MODEL        1
REMARK 921   NORMALIZED FREE ENERGY PREDICTED BY IDOCK:   -7.38 KCAL/MOL
REMARK 922        TOTAL FREE ENERGY PREDICTED BY IDOCK:  -10.01 KCAL/MOL
REMARK 923 INTER-LIGAND FREE ENERGY PREDICTED BY IDOCK:   -9.54 KCAL/MOL
REMARK 924 INTRA-LIGAND FREE ENERGY PREDICTED BY IDOCK:   -0.47 KCAL/MOL
REMARK 927      BINDING AFFINITY PREDICTED BY RF-SCORE:    0.00 PKD
ROOT
HETATM    1  O   UNL     1     -12.529  15.085  63.682  1.00  0.00    -1.036 OA 
HETATM    2  N   UNL     1     -12.388  13.809  63.114  1.00  0.00    -1.106 N  
HETATM    3  H   UNL     1     -12.629  15.862  63.145  1.00  0.00     0.000 HD 
HETATM    4  C   UNL     1     -12.245  12.693  63.886  1.00  0.00    -0.481 C  
HETATM    5  H   UNL     1     -12.392  13.713  62.099  1.00  0.00     0.000 HD 
HETATM    6  O   UNL     1     -12.055  11.592  63.379  1.00  0.00    -0.441 OA 
ENDROOT
BRANCH   4   7
HETATM    7  C   UNL     1     -12.336  12.888  65.354  1.00  0.00    -0.538 C  
HETATM    8  C   UNL     1     -11.640  12.107  66.193  1.00  0.00    -0.418 C  
BRANCH   8   9
HETATM    9  C   UNL     1     -11.731  12.300  67.639  1.00  0.00    -0.403 A  
HETATM   10  C   UNL     1     -11.871  11.192  68.484  1.00  0.00    -0.330 A  
HETATM   11  C   UNL     1     -12.021  11.369  69.862  1.00  0.00    -0.434 A  
HETATM   12  C   UNL     1     -12.040  12.653  70.406  1.00  0.00    -0.381 A  
HETATM   13  C   UNL     1     -11.888  13.762  69.566  1.00  0.00    -0.339 A  
HETATM   14  C   UNL     1     -11.740  13.591  68.183  1.00  0.00    -0.396 A  
BRANCH  13  15
HETATM   15  S   UNL     1     -12.029  15.404  70.243  1.00  0.00    -0.383 S  
HETATM   16  O   UNL     1     -10.984  15.567  71.232  1.00  0.00    -0.332 OA 
HETATM   17  O   UNL     1     -13.421  15.608  70.590  1.00  0.00    -0.476 OA 
BRANCH  15  18
HETATM   18  N   UNL     1     -11.728  16.424  68.938  1.00  0.00    -0.181 N  
HETATM   19  H   UNL     1     -12.476  16.660  68.287  1.00  0.00     0.000 HD 
BRANCH  18  20
HETATM   20  C   UNL     1     -10.425  16.952  68.751  1.00  0.00    -0.343 A  
HETATM   21  C   UNL     1      -9.329  16.095  68.678  1.00  0.00    -0.222 A  
HETATM   22  C   UNL     1      -8.042  16.624  68.568  1.00  0.00    -0.226 A  
HETATM   23  C   UNL     1      -7.857  18.006  68.513  1.00  0.00    -0.310 A  
HETATM   24  C   UNL     1      -8.958  18.861  68.569  1.00  0.00    -0.388 A  
HETATM   25  C   UNL     1     -10.243  18.334  68.698  1.00  0.00    -0.377 A  
ENDBRANCH  18  20
ENDBRANCH  15  18
ENDBRANCH  13  15
ENDBRANCH   8   9
ENDBRANCH   4   7
TORSDOF 5
ENDMDL
MODEL        2
REMARK 921   NORMALIZED FREE ENERGY PREDICTED BY IDOCK:   -7.27 KCAL/MOL
REMARK 922        TOTAL FREE ENERGY PREDICTED BY IDOCK:   -9.87 KCAL/MOL
REMARK 923 INTER-LIGAND FREE ENERGY PREDICTED BY IDOCK:   -9.15 KCAL/MOL
REMARK 924 INTRA-LIGAND FREE ENERGY PREDICTED BY IDOCK:   -0.72 KCAL/MOL
REMARK 927      BINDING AFFINITY PREDICTED BY RF-SCORE:    0.00 PKD
ROOT
HETATM    1  O   UNL     1     -11.411   8.568  69.657  1.00  0.00    -0.434 OA 
HETATM    2  N   UNL     1     -12.284   8.121  70.661  1.00  0.00    -0.491 N  
HETATM    3  H   UNL     1     -10.910   7.961  69.124  1.00  0.00     0.000 HD 
HETATM    4  C   UNL     1     -13.002   8.992  71.426  1.00  0.00    -0.291 C  
HETATM    5  H   UNL     1     -12.383   7.119  70.823  1.00  0.00     0.000 HD 
HETATM    6  O   UNL     1     -13.710   8.593  72.345  1.00  0.00    -0.386 OA 
ENDROOT
BRANCH   4   7
HETATM    7  C   UNL     1     -12.881  10.430  71.082  1.00  0.00    -0.511 C  
HETATM    8  C   UNL     1     -13.265  11.377  71.950  1.00  0.00    -0.485 C  
BRANCH   8   9
HETATM    9  C   UNL     1     -13.145  12.794  71.609  1.00  0.00    -0.428 A  
HETATM   10  C   UNL     1     -13.863  13.750  72.337  1.00  0.00    -0.681 A  
HETATM   11  C   UNL     1     -13.805  15.100  71.981  1.00  0.00    -0.608 A  
HETATM   12  C   UNL     1     -13.034  15.503  70.890  1.00  0.00    -0.526 A  
HETATM   13  C   UNL     1     -12.305  14.552  70.169  1.00  0.00    -0.342 A  
HETATM   14  C   UNL     1     -12.363  13.197  70.520  1.00  0.00    -0.380 A  
BRANCH  13  15
HETATM   15  S   UNL     1     -11.416  15.049  68.706  1.00  0.00    -0.336 S  
HETATM   16  O   UNL     1     -10.128  14.388  68.726  1.00  0.00    -0.236 OA 
HETATM   17  O   UNL     1     -11.511  16.492  68.615  1.00  0.00    -0.313 OA 
BRANCH  15  18
HETATM   18  N   UNL     1     -12.335  14.446  67.430  1.00  0.00    -0.600 N  
HETATM   19  H   UNL     1     -13.321  14.688  67.349  1.00  0.00     0.000 HD 
BRANCH  18  20
HETATM   20  C   UNL     1     -11.725  13.599  66.471  1.00  0.00    -0.382 A  
HETATM   21  C   UNL     1     -11.709  12.220  66.669  1.00  0.00    -0.417 A  
HETATM   22  C   UNL     1     -11.044  11.397  65.757  1.00  0.00    -0.217 A  
HETATM   23  C   UNL     1     -10.413  11.954  64.645  1.00  0.00    -0.340 A  
HETATM   24  C   UNL     1     -10.446  13.335  64.441  1.00  0.00    -0.424 A  
HETATM   25  C   UNL     1     -11.094  14.159  65.360  1.00  0.00    -0.321 A  
ENDBRANCH  18  20
ENDBRANCH  15  18
ENDBRANCH  13  15
ENDBRANCH   8   9
ENDBRANCH   4   7
TORSDOF 5
ENDMDL
MODEL        3
REMARK 921   NORMALIZED FREE ENERGY PREDICTED BY IDOCK:   -7.16 KCAL/MOL
REMARK 922        TOTAL FREE ENERGY PREDICTED BY IDOCK:   -9.73 KCAL/MOL
REMARK 923 INTER-LIGAND FREE ENERGY PREDICTED BY IDOCK:   -9.26 KCAL/MOL
REMARK 924 INTRA-LIGAND FREE ENERGY PREDICTED BY IDOCK:   -0.46 KCAL/MOL
REMARK 927      BINDING AFFINITY PREDICTED BY RF-SCORE:    0.00 PKD
ROOT
HETATM    1  O   UNL     1      -9.649  11.602  63.304  1.00  0.00    -0.433 OA 
HETATM    2  N   UNL     1     -11.016  11.441  63.028  1.00  0.00    -0.825 N  
HETATM    3  H   UNL     1      -8.985  11.096  62.848  1.00  0.00     0.000 HD 
HETATM    4  C   UNL     1     -11.969  12.166  63.681  1.00  0.00    -0.534 C  
HETATM    5  H   UNL     1     -11.304  10.765  62.321  1.00  0.00     0.000 HD 
HETATM    6  O   UNL     1     -13.163  11.970  63.481  1.00  0.00    -0.724 OA 
ENDROOT
BRANCH   4   7
HETATM    7  C   UNL     1     -11.480  13.194  64.633  1.00  0.00    -0.368 C  
HETATM    8  C   UNL     1     -12.172  13.483  65.744  1.00  0.00    -0.505 C  
BRANCH   8   9
HETATM    9  C   UNL     1     -11.689  14.497  66.681  1.00  0.00    -0.384 A  
HETATM   10  C   UNL     1     -12.033  14.415  68.036  1.00  0.00    -0.326 A  
HETATM   11  C   UNL     1     -11.629  15.412  68.928  1.00  0.00    -0.369 A  
HETATM   12  C   UNL     1     -10.886  16.501  68.472  1.00  0.00    -0.349 A  
HETATM   13  C   UNL     1     -10.531  16.579  67.122  1.00  0.00    -0.300 A  
HETATM   14  C   UNL     1     -10.935  15.584  66.222  1.00  0.00    -0.242 A  
BRANCH  13  15
HETATM   15  S   UNL     1      -9.684  18.026  66.517  1.00  0.00    -0.338 S  
HETATM   16  O   UNL     1     -10.616  18.776  65.702  1.00  0.00    -0.596 OA 
HETATM   17  O   UNL     1      -8.411  17.587  65.982  1.00  0.00    -0.495 OA 
BRANCH  15  18
HETATM   18  N   UNL     1      -9.319  18.909  67.904  1.00  0.00    -0.293 N  
HETATM   19  H   UNL     1      -9.977  18.937  68.683  1.00  0.00     0.000 HD 
BRANCH  18  20
HETATM   20  C   UNL     1      -8.091  19.612  67.981  1.00  0.00    -0.308 A  
HETATM   21  C   UNL     1      -7.209  19.364  69.031  1.00  0.00    -0.397 A  
HETATM   22  C   UNL     1      -6.035  20.111  69.141  1.00  0.00    -0.347 A  
HETATM   23  C   UNL     1      -5.739  21.090  68.193  1.00  0.00    -0.389 A  
HETATM   24  C   UNL     1      -6.616  21.325  67.133  1.00  0.00    -0.396 A  
HETATM   25  C   UNL     1      -7.798  20.591  67.032  1.00  0.00    -0.345 A  
ENDBRANCH  18  20
ENDBRANCH  15  18
ENDBRANCH  13  15
ENDBRANCH   8   9
ENDBRANCH   4   7
TORSDOF 5
ENDMDL
MODEL        4
REMARK 921   NORMALIZED FREE ENERGY PREDICTED BY IDOCK:   -7.14 KCAL/MOL
REMARK 922        TOTAL FREE ENERGY PREDICTED BY IDOCK:   -9.70 KCAL/MOL
REMARK 923 INTER-LIGAND FREE ENERGY PREDICTED BY IDOCK:   -9.07 KCAL/MOL
REMARK 924 INTRA-LIGAND FREE ENERGY PREDICTED BY IDOCK:   -0.63 KCAL/MOL
REMARK 927      BINDING AFFINITY PREDICTED BY RF-SCORE:    0.00 PKD
ROOT
HETATM    1  O   UNL     1     -11.309   8.672  69.832  1.00  0.00    -0.444 OA 
HETATM    2  N   UNL     1     -12.238   8.237  70.791  1.00  0.00    -0.495 N  
HETATM    3  H   UNL     1     -10.805   8.058  69.310  1.00  0.00     0.000 HD 
HETATM    4  C   UNL     1     -12.961   9.120  71.539  1.00  0.00    -0.346 C  
HETATM    5  H   UNL     1     -12.375   7.237  70.931  1.00  0.00     0.000 HD 
HETATM    6  O   UNL     1     -13.719   8.729  72.420  1.00  0.00    -0.421 OA 
ENDROOT
BRANCH   4   7
HETATM    7  C   UNL     1     -12.779  10.558  71.225  1.00  0.00    -0.532 C  
HETATM    8  C   UNL     1     -13.384  11.501  71.960  1.00  0.00    -0.397 C  
BRANCH   8   9
HETATM    9  C   UNL     1     -13.204  12.919  71.649  1.00  0.00    -0.416 A  
HETATM   10  C   UNL     1     -14.062  13.871  72.212  1.00  0.00    -0.632 A  
HETATM   11  C   UNL     1     -13.939  15.222  71.873  1.00  0.00    -0.644 A  
HETATM   12  C   UNL     1     -12.963  15.629  70.963  1.00  0.00    -0.518 A  
HETATM   13  C   UNL     1     -12.096  14.681  70.409  1.00  0.00    -0.319 A  
HETATM   14  C   UNL     1     -12.217  13.326  70.743  1.00  0.00    -0.390 A  
BRANCH  13  15
HETATM   15  S   UNL     1     -10.928  15.183  69.160  1.00  0.00    -0.275 S  
HETATM   16  O   UNL     1      -9.747  15.680  69.833  1.00  0.00    -0.283 OA 
HETATM   17  O   UNL     1     -11.644  16.006  68.207  1.00  0.00    -0.338 OA 
BRANCH  15  18
HETATM   18  N   UNL     1     -10.549  13.759  68.344  1.00  0.00    -0.247 N  
HETATM   19  H   UNL     1     -10.051  13.009  68.823  1.00  0.00     0.000 HD 
BRANCH  18  20
HETATM   20  C   UNL     1     -10.926  13.612  66.986  1.00  0.00    -0.289 A  
HETATM   21  C   UNL     1     -10.012  13.896  65.972  1.00  0.00    -0.325 A  
HETATM   22  C   UNL     1     -10.413  13.819  64.637  1.00  0.00    -0.433 A  
HETATM   23  C   UNL     1     -11.718  13.442  64.320  1.00  0.00    -0.455 A  
HETATM   24  C   UNL     1     -12.626  13.143  65.336  1.00  0.00    -0.512 A  
HETATM   25  C   UNL     1     -12.232  13.237  66.671  1.00  0.00    -0.359 A  
ENDBRANCH  18  20
ENDBRANCH  15  18
ENDBRANCH  13  15
ENDBRANCH   8   9
ENDBRANCH   4   7
TORSDOF 5
ENDMDL
MODEL        5
REMARK 921   NORMALIZED FREE ENERGY PREDICTED BY IDOCK:   -7.13 KCAL/MOL
REMARK 922        TOTAL FREE ENERGY PREDICTED BY IDOCK:   -9.68 KCAL/MOL
REMARK 923 INTER-LIGAND FREE ENERGY PREDICTED BY IDOCK:   -9.24 KCAL/MOL
REMARK 924 INTRA-LIGAND FREE ENERGY PREDICTED BY IDOCK:   -0.44 KCAL/MOL
REMARK 927      BINDING AFFINITY PREDICTED BY RF-SCORE:    0.00 PKD
ROOT
HETATM    1  O   UNL     1     -14.272   8.948  73.355  1.00  0.00    -1.241 OA 
HETATM    2  N   UNL     1     -13.430   8.230  72.490  1.00  0.00    -0.580 N  
HETATM    3  H   UNL     1     -14.857   8.508  73.961  1.00  0.00     0.000 HD 
HETATM    4  C   UNL     1     -12.590   8.862  71.620  1.00  0.00    -0.346 C  
HETATM    5  H   UNL     1     -13.447   7.211  72.513  1.00  0.00     0.000 HD 
HETATM    6  O   UNL     1     -11.909   8.225  70.823  1.00  0.00    -0.264 OA 
ENDROOT
BRANCH   4   7
HETATM    7  C   UNL     1     -12.550  10.342  71.698  1.00  0.00    -0.521 C  
HETATM    8  C   UNL     1     -12.404  11.083  70.590  1.00  0.00    -0.480 C  
BRANCH   8   9
HETATM    9  C   UNL     1     -12.363  12.542  70.668  1.00  0.00    -0.369 A  
HETATM   10  C   UNL     1     -13.163  13.214  71.601  1.00  0.00    -0.435 A  
HETATM   11  C   UNL     1     -13.179  14.611  71.643  1.00  0.00    -0.428 A  
HETATM   12  C   UNL     1     -12.402  15.347  70.748  1.00  0.00    -0.447 A  
HETATM   13  C   UNL     1     -11.591  14.679  69.824  1.00  0.00    -0.296 A  
HETATM   14  C   UNL     1     -11.574  13.278  69.775  1.00  0.00    -0.297 A  
BRANCH  13  15
HETATM   15  S   UNL     1     -10.690  15.616  68.605  1.00  0.00    -0.271 S  
HETATM   16  O   UNL     1     -11.479  15.640  67.392  1.00  0.00    -0.235 OA 
HETATM   17  O   UNL     1      -9.329  15.118  68.600  1.00  0.00    -0.184 OA 
BRANCH  15  18
HETATM   18  N   UNL     1     -10.607  17.171  69.249  1.00  0.00    -0.340 N  
HETATM   19  H   UNL     1     -10.996  17.366  70.170  1.00  0.00     0.000 HD 
BRANCH  18  20
HETATM   20  C   UNL     1      -9.993  18.205  68.498  1.00  0.00    -0.395 A  
HETATM   21  C   UNL     1     -10.743  18.945  67.586  1.00  0.00    -0.469 A  
HETATM   22  C   UNL     1     -10.117  19.912  66.798  1.00  0.00    -0.586 A  
HETATM   23  C   UNL     1      -8.749  20.148  66.937  1.00  0.00    -0.412 A  
HETATM   24  C   UNL     1      -8.004  19.416  67.863  1.00  0.00    -0.335 A  
HETATM   25  C   UNL     1      -8.625  18.437  68.638  1.00  0.00    -0.315 A  
ENDBRANCH  18  20
ENDBRANCH  15  18
ENDBRANCH  13  15
ENDBRANCH   8   9
ENDBRANCH   4   7
TORSDOF 5
ENDMDL
MODEL        6
REMARK 921   NORMALIZED FREE ENERGY PREDICTED BY IDOCK:   -7.12 KCAL/MOL
REMARK 922        TOTAL FREE ENERGY PREDICTED BY IDOCK:   -9.67 KCAL/MOL
REMARK 923 INTER-LIGAND FREE ENERGY PREDICTED BY IDOCK:   -9.08 KCAL/MOL
REMARK 924 INTRA-LIGAND FREE ENERGY PREDICTED BY IDOCK:   -0.59 KCAL/MOL
REMARK 927      BINDING AFFINITY PREDICTED BY RF-SCORE:    0.00 PKD
ROOT
HETATM    1  O   UNL     1      -9.507  12.094  63.237  1.00  0.00    -0.664 OA 
HETATM    2  N   UNL     1     -10.821  11.709  62.929  1.00  0.00    -0.647 N  
HETATM    3  H   UNL     1      -8.759  11.724  62.782  1.00  0.00     0.000 HD 
HETATM    4  C   UNL     1     -11.895  12.241  63.582  1.00  0.00    -0.522 C  
HETATM    5  H   UNL     1     -10.977  11.015  62.198  1.00  0.00     0.000 HD 
HETATM    6  O   UNL     1     -13.033  11.848  63.351  1.00  0.00    -0.730 OA 
ENDROOT
BRANCH   4   7
HETATM    7  C   UNL     1     -11.605  13.308  64.570  1.00  0.00    -0.407 C  
HETATM    8  C   UNL     1     -11.826  13.110  65.877  1.00  0.00    -0.453 C  
BRANCH   8   9
HETATM    9  C   UNL     1     -11.541  14.164  66.850  1.00  0.00    -0.410 A  
HETATM   10  C   UNL     1     -11.849  13.968  68.202  1.00  0.00    -0.402 A  
HETATM   11  C   UNL     1     -11.639  14.991  69.130  1.00  0.00    -0.333 A  
HETATM   12  C   UNL     1     -11.126  16.220  68.714  1.00  0.00    -0.355 A  
HETATM   13  C   UNL     1     -10.805  16.414  67.366  1.00  0.00    -0.219 A  
HETATM   14  C   UNL     1     -11.017  15.393  66.431  1.00  0.00    -0.277 A  
BRANCH  13  15
HETATM   15  S   UNL     1     -10.261  18.019  66.815  1.00  0.00    -0.371 S  
HETATM   16  O   UNL     1     -10.649  18.987  67.819  1.00  0.00    -0.418 OA 
HETATM   17  O   UNL     1     -10.683  18.166  65.436  1.00  0.00    -0.620 OA 
BRANCH  15  18
HETATM   18  N   UNL     1      -8.581  17.901  66.771  1.00  0.00    -0.246 N  
HETATM   19  H   UNL     1      -8.133  17.149  66.251  1.00  0.00     0.000 HD 
BRANCH  18  20
HETATM   20  C   UNL     1      -7.797  18.857  67.465  1.00  0.00    -0.237 A  
HETATM   21  C   UNL     1      -7.493  20.077  66.865  1.00  0.00    -0.294 A  
HETATM   22  C   UNL     1      -6.660  20.984  67.523  1.00  0.00    -0.438 A  
HETATM   23  C   UNL     1      -6.149  20.675  68.784  1.00  0.00    -0.366 A  
HETATM   24  C   UNL     1      -6.468  19.459  69.389  1.00  0.00    -0.357 A  
HETATM   25  C   UNL     1      -7.286  18.545  68.724  1.00  0.00    -0.316 A  
ENDBRANCH  18  20
ENDBRANCH  15  18
ENDBRANCH  13  15
ENDBRANCH   8   9
ENDBRANCH   4   7
TORSDOF 5
ENDMDL
MODEL        7
REMARK 921   NORMALIZED FREE ENERGY PREDICTED BY IDOCK:   -7.10 KCAL/MOL
REMARK 922        TOTAL FREE ENERGY PREDICTED BY IDOCK:   -9.65 KCAL/MOL
REMARK 923 INTER-LIGAND FREE ENERGY PREDICTED BY IDOCK:   -8.98 KCAL/MOL
REMARK 924 INTRA-LIGAND FREE ENERGY PREDICTED BY IDOCK:   -0.67 KCAL/MOL
REMARK 927      BINDING AFFINITY PREDICTED BY RF-SCORE:    0.00 PKD
ROOT
HETATM    1  O   UNL     1     -12.467  14.031  63.326  1.00  0.00    -1.139 OA 
HETATM    2  N   UNL     1     -11.801  12.835  63.011  1.00  0.00    -0.784 N  
HETATM    3  H   UNL     1     -12.842  14.585  62.651  1.00  0.00     0.000 HD 
HETATM    4  C   UNL     1     -11.263  12.039  63.980  1.00  0.00    -0.397 C  
HETATM    5  H   UNL     1     -11.718  12.554  62.035  1.00  0.00     0.000 HD 
HETATM    6  O   UNL     1     -10.626  11.032  63.690  1.00  0.00    -0.362 OA 
ENDROOT
BRANCH   4   7
HETATM    7  C   UNL     1     -11.494  12.458  65.384  1.00  0.00    -0.402 C  
HETATM    8  C   UNL     1     -11.157  11.654  66.403  1.00  0.00    -0.347 C  
BRANCH   8   9
HETATM    9  C   UNL     1     -11.387  12.068  67.786  1.00  0.00    -0.370 A  
HETATM   10  C   UNL     1     -11.841  11.136  68.728  1.00  0.00    -0.388 A  
HETATM   11  C   UNL     1     -12.123  11.534  70.037  1.00  0.00    -0.408 A  
HETATM   12  C   UNL     1     -11.961  12.867  70.414  1.00  0.00    -0.329 A  
HETATM   13  C   UNL     1     -11.494  13.798  69.480  1.00  0.00    -0.267 A  
HETATM   14  C   UNL     1     -11.213  13.405  68.164  1.00  0.00    -0.304 A  
BRANCH  13  15
HETATM   15  S   UNL     1     -11.398  15.521  69.927  1.00  0.00    -0.347 S  
HETATM   16  O   UNL     1     -11.223  15.596  71.362  1.00  0.00    -0.370 OA 
HETATM   17  O   UNL     1     -12.501  16.197  69.275  1.00  0.00     0.016 OA 
BRANCH  15  18
HETATM   18  N   UNL     1     -10.003  16.076  69.164  1.00  0.00    -0.232 N  
HETATM   19  H   UNL     1      -9.118  15.586  69.292  1.00  0.00     0.000 HD 
BRANCH  18  20
HETATM   20  C   UNL     1     -10.069  17.229  68.342  1.00  0.00    -0.333 A  
HETATM   21  C   UNL     1      -9.958  18.497  68.910  1.00  0.00    -0.383 A  
HETATM   22  C   UNL     1     -10.096  19.629  68.105  1.00  0.00    -0.556 A  
HETATM   23  C   UNL     1     -10.327  19.491  66.737  1.00  0.00    -0.570 A  
HETATM   24  C   UNL     1     -10.421  18.219  66.169  1.00  0.00    -0.403 A  
HETATM   25  C   UNL     1     -10.301  17.087  66.975  1.00  0.00    -0.304 A  
ENDBRANCH  18  20
ENDBRANCH  15  18
ENDBRANCH  13  15
ENDBRANCH   8   9
ENDBRANCH   4   7
TORSDOF 5
ENDMDL
MODEL        8
REMARK 921   NORMALIZED FREE ENERGY PREDICTED BY IDOCK:   -7.01 KCAL/MOL
REMARK 922        TOTAL FREE ENERGY PREDICTED BY IDOCK:   -9.53 KCAL/MOL
REMARK 923 INTER-LIGAND FREE ENERGY PREDICTED BY IDOCK:   -9.02 KCAL/MOL
REMARK 924 INTRA-LIGAND FREE ENERGY PREDICTED BY IDOCK:   -0.50 KCAL/MOL
REMARK 927      BINDING AFFINITY PREDICTED BY RF-SCORE:    0.00 PKD
ROOT
HETATM    1  O   UNL     1     -12.629  14.937  63.785  1.00  0.00    -0.999 OA 
HETATM    2  N   UNL     1     -12.286  13.725  63.163  1.00  0.00    -1.106 N  
HETATM    3  H   UNL     1     -12.815  15.721  63.281  1.00  0.00     0.000 HD 
HETATM    4  C   UNL     1     -12.020  12.600  63.887  1.00  0.00    -0.479 C  
HETATM    5  H   UNL     1     -12.235  13.686  62.146  1.00  0.00     0.000 HD 
HETATM    6  O   UNL     1     -11.656  11.566  63.337  1.00  0.00    -0.363 OA 
ENDROOT
BRANCH   4   7
HETATM    7  C   UNL     1     -12.198  12.700  65.356  1.00  0.00    -0.517 C  
HETATM    8  C   UNL     1     -11.414  12.002  66.190  1.00  0.00    -0.401 C  
BRANCH   8   9
HETATM    9  C   UNL     1     -11.591  12.102  67.638  1.00  0.00    -0.413 A  
HETATM   10  C   UNL     1     -11.821  13.350  68.229  1.00  0.00    -0.393 A  
HETATM   11  C   UNL     1     -11.930  13.466  69.618  1.00  0.00    -0.386 A  
HETATM   12  C   UNL     1     -11.802  12.336  70.427  1.00  0.00    -0.259 A  
HETATM   13  C   UNL     1     -11.585  11.086  69.838  1.00  0.00    -0.337 A  
HETATM   14  C   UNL     1     -11.472  10.964  68.447  1.00  0.00    -0.374 A  
BRANCH  13  15
HETATM   15  S   UNL     1     -11.305   9.663  70.875  1.00  0.00    -0.389 S  
HETATM   16  O   UNL     1     -12.205   9.756  72.005  1.00  0.00    -0.343 OA 
HETATM   17  O   UNL     1      -9.874   9.547  71.069  1.00  0.00    -0.268 OA 
BRANCH  15  18
HETATM   18  N   UNL     1     -11.746   8.351  69.916  1.00  0.00    -0.297 N  
HETATM   19  H   UNL     1     -12.404   8.475  69.146  1.00  0.00     0.000 HD 
BRANCH  18  20
HETATM   20  C   UNL     1     -11.197   7.073  70.186  1.00  0.00    -0.284 A  
HETATM   21  C   UNL     1     -11.326   6.512  71.456  1.00  0.00    -0.339 A  
HETATM   22  C   UNL     1     -10.720   5.287  71.736  1.00  0.00    -0.240 A  
HETATM   23  C   UNL     1     -10.003   4.618  70.744  1.00  0.00    -0.284 A  
HETATM   24  C   UNL     1      -9.890   5.174  69.469  1.00  0.00    -0.278 A  
HETATM   25  C   UNL     1     -10.479   6.407  69.192  1.00  0.00    -0.274 A  
ENDBRANCH  18  20
ENDBRANCH  15  18
ENDBRANCH  13  15
ENDBRANCH   8   9
ENDBRANCH   4   7
TORSDOF 5
ENDMDL
MODEL        9
REMARK 921   NORMALIZED FREE ENERGY PREDICTED BY IDOCK:   -7.00 KCAL/MOL
REMARK 922        TOTAL FREE ENERGY PREDICTED BY IDOCK:   -9.52 KCAL/MOL
REMARK 923 INTER-LIGAND FREE ENERGY PREDICTED BY IDOCK:   -9.00 KCAL/MOL
REMARK 924 INTRA-LIGAND FREE ENERGY PREDICTED BY IDOCK:   -0.52 KCAL/MOL
REMARK 927      BINDING AFFINITY PREDICTED BY RF-SCORE:    0.00 PKD
ROOT
HETATM    1  O   UNL     1     -12.223  16.224  73.563  1.00  0.00    -0.497 OA 
HETATM    2  N   UNL     1     -12.886  14.986  73.582  1.00  0.00    -0.505 N  
HETATM    3  H   UNL     1     -12.071  16.720  74.359  1.00  0.00     0.000 HD 
HETATM    4  C   UNL     1     -13.105  14.273  72.439  1.00  0.00    -0.431 C  
HETATM    5  H   UNL     1     -13.213  14.611  74.472  1.00  0.00     0.000 HD 
HETATM    6  O   UNL     1     -13.744  13.227  72.459  1.00  0.00    -0.621 OA 
ENDROOT
BRANCH   4   7
HETATM    7  C   UNL     1     -12.529  14.831  71.191  1.00  0.00    -0.397 C  
HETATM    8  C   UNL     1     -12.346  14.054  70.114  1.00  0.00    -0.409 C  
BRANCH   8   9
HETATM    9  C   UNL     1     -11.777  14.605  68.885  1.00  0.00    -0.343 A  
HETATM   10  C   UNL     1     -10.922  15.713  68.947  1.00  0.00    -0.266 A  
HETATM   11  C   UNL     1     -10.423  16.286  67.774  1.00  0.00    -0.295 A  
HETATM   12  C   UNL     1     -10.779  15.762  66.531  1.00  0.00    -0.283 A  
HETATM   13  C   UNL     1     -11.623  14.647  66.467  1.00  0.00    -0.344 A  
HETATM   14  C   UNL     1     -12.129  14.071  67.639  1.00  0.00    -0.344 A  
BRANCH  13  15
HETATM   15  S   UNL     1     -12.172  14.051  64.880  1.00  0.00    -0.439 S  
HETATM   16  O   UNL     1     -12.753  15.167  64.165  1.00  0.00    -0.694 OA 
HETATM   17  O   UNL     1     -12.931  12.839  65.115  1.00  0.00    -0.768 OA 
BRANCH  15  18
HETATM   18  N   UNL     1     -10.759  13.564  64.103  1.00  0.00    -0.562 N  
HETATM   19  H   UNL     1     -10.266  14.206  63.483  1.00  0.00     0.000 HD 
BRANCH  18  20
HETATM   20  C   UNL     1     -10.260  12.255  64.317  1.00  0.00    -0.330 A  
HETATM   21  C   UNL     1      -9.889  11.851  65.598  1.00  0.00    -0.266 A  
HETATM   22  C   UNL     1      -9.331  10.586  65.791  1.00  0.00    -0.229 A  
HETATM   23  C   UNL     1      -9.161   9.724  64.707  1.00  0.00    -0.319 A  
HETATM   24  C   UNL     1      -9.549  10.126  63.428  1.00  0.00    -0.236 A  
HETATM   25  C   UNL     1     -10.090  11.396  63.231  1.00  0.00    -0.424 A  
ENDBRANCH  18  20
ENDBRANCH  15  18
ENDBRANCH  13  15
ENDBRANCH   8   9
ENDBRANCH   4   7
TORSDOF 5
ENDMDL
MODEL       10
REMARK 921   NORMALIZED FREE ENERGY PREDICTED BY IDOCK:   -7.00 KCAL/MOL
REMARK 922        TOTAL FREE ENERGY PREDICTED BY IDOCK:   -9.52 KCAL/MOL
REMARK 923 INTER-LIGAND FREE ENERGY PREDICTED BY IDOCK:   -9.00 KCAL/MOL
REMARK 924 INTRA-LIGAND FREE ENERGY PREDICTED BY IDOCK:   -0.52 KCAL/MOL
REMARK 927      BINDING AFFINITY PREDICTED BY RF-SCORE:    0.00 PKD
ROOT
HETATM    1  O   UNL     1     -12.304  11.716  63.055  1.00  0.00    -0.970 OA 
HETATM    2  N   UNL     1     -12.312  13.117  62.958  1.00  0.00    -0.823 N  
HETATM    3  H   UNL     1     -12.274  11.162  62.283  1.00  0.00     0.000 HD 
HETATM    4  C   UNL     1     -12.356  13.912  64.066  1.00  0.00    -0.307 C  
HETATM    5  H   UNL     1     -12.285  13.551  62.035  1.00  0.00     0.000 HD 
HETATM    6  O   UNL     1     -12.431  15.132  63.967  1.00  0.00    -0.771 OA 
ENDROOT
BRANCH   4   7
HETATM    7  C   UNL     1     -12.305  13.221  65.377  1.00  0.00    -0.528 C  
HETATM    8  C   UNL     1     -11.944  13.882  66.486  1.00  0.00    -0.470 C  
BRANCH   8   9
HETATM    9  C   UNL     1     -11.893  13.199  67.778  1.00  0.00    -0.392 A  
HETATM   10  C   UNL     1     -12.205  13.899  68.951  1.00  0.00    -0.257 A  
HETATM   11  C   UNL     1     -12.100  13.274  70.196  1.00  0.00    -0.403 A  
HETATM   12  C   UNL     1     -11.676  11.948  70.281  1.00  0.00    -0.293 A  
HETATM   13  C   UNL     1     -11.377  11.242  69.111  1.00  0.00    -0.282 A  
HETATM   14  C   UNL     1     -11.477  11.864  67.859  1.00  0.00    -0.385 A  
BRANCH  13  15
HETATM   15  S   UNL     1     -10.724   9.587  69.225  1.00  0.00    -0.198 S  
HETATM   16  O   UNL     1      -9.483   9.652  69.968  1.00  0.00    -0.212 OA 
HETATM   17  O   UNL     1     -10.766   9.015  67.895  1.00  0.00    -0.217 OA 
BRANCH  15  18
HETATM   18  N   UNL     1     -11.871   8.745  70.125  1.00  0.00    -0.439 N  
HETATM   19  H   UNL     1     -12.864   8.936  69.999  1.00  0.00     0.000 HD 
BRANCH  18  20
HETATM   20  C   UNL     1     -11.445   7.767  71.059  1.00  0.00    -0.281 A  
HETATM   21  C   UNL     1     -11.297   6.440  70.661  1.00  0.00    -0.419 A  
HETATM   22  C   UNL     1     -10.948   5.470  71.602  1.00  0.00    -0.238 A  
HETATM   23  C   UNL     1     -10.731   5.833  72.932  1.00  0.00    -0.282 A  
HETATM   24  C   UNL     1     -10.863   7.165  73.323  1.00  0.00    -0.378 A  
HETATM   25  C   UNL     1     -11.230   8.132  72.387  1.00  0.00    -0.452 A  
ENDBRANCH  18  20
ENDBRANCH  15  18
ENDBRANCH  13  15
ENDBRANCH   8   9
ENDBRANCH   4   7
TORSDOF 5
ENDMDL
MODEL       11
REMARK 921   NORMALIZED FREE ENERGY PREDICTED BY IDOCK:   -6.99 KCAL/MOL
REMARK 922        TOTAL FREE ENERGY PREDICTED BY IDOCK:   -9.51 KCAL/MOL
REMARK 923 INTER-LIGAND FREE ENERGY PREDICTED BY IDOCK:   -8.93 KCAL/MOL
REMARK 924 INTRA-LIGAND FREE ENERGY PREDICTED BY IDOCK:   -0.58 KCAL/MOL
REMARK 927      BINDING AFFINITY PREDICTED BY RF-SCORE:    0.00 PKD
ROOT
HETATM    1  O   UNL     1     -14.012   8.778  71.189  1.00  0.00    -0.586 OA 
HETATM    2  N   UNL     1     -12.794   8.527  71.840  1.00  0.00    -0.345 N  
HETATM    3  H   UNL     1     -14.788   8.259  71.365  1.00  0.00     0.000 HD 
HETATM    4  C   UNL     1     -11.679   9.273  71.587  1.00  0.00    -0.392 C  
HETATM    5  H   UNL     1     -12.740   7.769  72.519  1.00  0.00     0.000 HD 
HETATM    6  O   UNL     1     -10.604   9.002  72.111  1.00  0.00    -0.324 OA 
ENDROOT
BRANCH   4   7
HETATM    7  C   UNL     1     -11.846  10.415  70.656  1.00  0.00    -0.445 C  
HETATM    8  C   UNL     1     -11.128  10.488  69.526  1.00  0.00    -0.320 C  
BRANCH   8   9
HETATM    9  C   UNL     1     -11.293  11.616  68.609  1.00  0.00    -0.326 A  
HETATM   10  C   UNL     1     -11.493  11.381  67.243  1.00  0.00    -0.301 A  
HETATM   11  C   UNL     1     -11.589  12.451  66.349  1.00  0.00    -0.442 A  
HETATM   12  C   UNL     1     -11.479  13.763  66.812  1.00  0.00    -0.367 A  
HETATM   13  C   UNL     1     -11.292  14.000  68.178  1.00  0.00    -0.292 A  
HETATM   14  C   UNL     1     -11.191  12.931  69.079  1.00  0.00    -0.320 A  
BRANCH  13  15
HETATM   15  S   UNL     1     -11.034  15.667  68.753  1.00  0.00    -0.302 S  
HETATM   16  O   UNL     1     -10.924  16.524  67.592  1.00  0.00    -0.301 OA 
HETATM   17  O   UNL     1      -9.981  15.621  69.747  1.00  0.00    -0.277 OA 
BRANCH  15  18
HETATM   18  N   UNL     1     -12.444  16.044  69.594  1.00  0.00    -0.484 N  
HETATM   19  H   UNL     1     -13.209  16.527  69.124  1.00  0.00     0.000 HD 
BRANCH  18  20
HETATM   20  C   UNL     1     -12.558  15.685  70.960  1.00  0.00    -0.459 A  
HETATM   21  C   UNL     1     -13.349  14.599  71.333  1.00  0.00    -0.441 A  
HETATM   22  C   UNL     1     -13.516  14.296  72.685  1.00  0.00    -0.623 A  
HETATM   23  C   UNL     1     -12.879  15.066  73.658  1.00  0.00    -0.583 A  
HETATM   24  C   UNL     1     -12.075  16.143  73.281  1.00  0.00    -0.604 A  
HETATM   25  C   UNL     1     -11.922  16.458  71.931  1.00  0.00    -0.392 A  
ENDBRANCH  18  20
ENDBRANCH  15  18
ENDBRANCH  13  15
ENDBRANCH   8   9
ENDBRANCH   4   7
TORSDOF 5
ENDMDL
MODEL       12
REMARK 921   NORMALIZED FREE ENERGY PREDICTED BY IDOCK:   -6.91 KCAL/MOL
REMARK 922        TOTAL FREE ENERGY PREDICTED BY IDOCK:   -9.40 KCAL/MOL
REMARK 923 INTER-LIGAND FREE ENERGY PREDICTED BY IDOCK:   -8.88 KCAL/MOL
REMARK 924 INTRA-LIGAND FREE ENERGY PREDICTED BY IDOCK:   -0.52 KCAL/MOL
REMARK 927      BINDING AFFINITY PREDICTED BY RF-SCORE:    0.00 PKD
ROOT
HETATM    1  O   UNL     1     -14.393   8.612  73.170  1.00  0.00    -1.076 OA 
HETATM    2  N   UNL     1     -13.426   7.910  72.433  1.00  0.00    -0.515 N  
HETATM    3  H   UNL     1     -15.100   8.164  73.620  1.00  0.00     0.000 HD 
HETATM    4  C   UNL     1     -12.411   8.554  71.787  1.00  0.00    -0.342 C  
HETATM    5  H   UNL     1     -13.484   6.893  72.379  1.00  0.00     0.000 HD 
HETATM    6  O   UNL     1     -11.612   7.936  71.091  1.00  0.00    -0.274 OA 
ENDROOT
BRANCH   4   7
HETATM    7  C   UNL     1     -12.333  10.023  71.977  1.00  0.00    -0.222 C  
HETATM    8  C   UNL     1     -12.943  10.857  71.123  1.00  0.00    -0.449 C  
BRANCH   8   9
HETATM    9  C   UNL     1     -12.865  12.305  71.311  1.00  0.00    -0.337 A  
HETATM   10  C   UNL     1     -13.625  12.921  72.313  1.00  0.00    -0.611 A  
HETATM   11  C   UNL     1     -13.605  14.310  72.461  1.00  0.00    -0.620 A  
HETATM   12  C   UNL     1     -12.833  15.095  71.605  1.00  0.00    -0.439 A  
HETATM   13  C   UNL     1     -12.063  14.482  70.611  1.00  0.00    -0.322 A  
HETATM   14  C   UNL     1     -12.081  13.089  70.456  1.00  0.00    -0.373 A  
BRANCH  13  15
HETATM   15  S   UNL     1     -11.169  15.490  69.444  1.00  0.00    -0.329 S  
HETATM   16  O   UNL     1     -10.037  16.069  70.135  1.00  0.00    -0.158 OA 
HETATM   17  O   UNL     1     -12.139  16.329  68.770  1.00  0.00    -0.098 OA 
BRANCH  15  18
HETATM   18  N   UNL     1     -10.619  14.401  68.283  1.00  0.00    -0.238 N  
HETATM   19  H   UNL     1      -9.967  13.660  68.542  1.00  0.00     0.000 HD 
BRANCH  18  20
HETATM   20  C   UNL     1     -11.068  14.521  66.944  1.00  0.00    -0.325 A  
HETATM   21  C   UNL     1     -10.450  15.423  66.080  1.00  0.00    -0.333 A  
HETATM   22  C   UNL     1     -10.944  15.589  64.785  1.00  0.00    -0.416 A  
HETATM   23  C   UNL     1     -12.041  14.843  64.354  1.00  0.00    -0.417 A  
HETATM   24  C   UNL     1     -12.647  13.929  65.217  1.00  0.00    -0.508 A  
HETATM   25  C   UNL     1     -12.166  13.775  66.517  1.00  0.00    -0.475 A  
ENDBRANCH  18  20
ENDBRANCH  15  18
ENDBRANCH  13  15
ENDBRANCH   8   9
ENDBRANCH   4   7
TORSDOF 5
ENDMDL
MODEL       13
REMARK 921   NORMALIZED FREE ENERGY PREDICTED BY IDOCK:   -6.89 KCAL/MOL
REMARK 922        TOTAL FREE ENERGY PREDICTED BY IDOCK:   -9.37 KCAL/MOL
REMARK 923 INTER-LIGAND FREE ENERGY PREDICTED BY IDOCK:   -8.67 KCAL/MOL
REMARK 924 INTRA-LIGAND FREE ENERGY PREDICTED BY IDOCK:   -0.70 KCAL/MOL
REMARK 927      BINDING AFFINITY PREDICTED BY RF-SCORE:    0.00 PKD
ROOT
HETATM    1  O   UNL     1     -11.654  16.350  63.778  1.00  0.00    -1.605 OA 
HETATM    2  N   UNL     1     -12.441  15.187  63.758  1.00  0.00    -1.007 N  
HETATM    3  H   UNL     1     -11.942  17.154  63.361  1.00  0.00     0.000 HD 
HETATM    4  C   UNL     1     -12.027  14.033  64.357  1.00  0.00    -0.454 C  
HETATM    5  H   UNL     1     -13.344  15.206  63.285  1.00  0.00     0.000 HD 
HETATM    6  O   UNL     1     -12.692  13.005  64.276  1.00  0.00    -0.653 OA 
ENDROOT
BRANCH   4   7
HETATM    7  C   UNL     1     -10.747  14.096  65.102  1.00  0.00    -0.400 C  
HETATM    8  C   UNL     1     -10.610  13.475  66.283  1.00  0.00    -0.288 C  
BRANCH   8   9
HETATM    9  C   UNL     1      -9.347  13.539  67.017  1.00  0.00    -0.247 A  
HETATM   10  C   UNL     1      -8.921  12.439  67.771  1.00  0.00    -0.182 A  
HETATM   11  C   UNL     1      -7.747  12.511  68.526  1.00  0.00    -0.113 A  
HETATM   12  C   UNL     1      -6.995  13.686  68.540  1.00  0.00    -0.104 A  
HETATM   13  C   UNL     1      -7.411  14.782  67.778  1.00  0.00    -0.163 A  
HETATM   14  C   UNL     1      -8.589  14.717  67.021  1.00  0.00    -0.249 A  
BRANCH  13  15
HETATM   15  S   UNL     1      -6.516  16.320  67.887  1.00  0.00    -0.153 S  
HETATM   16  O   UNL     1      -6.463  16.897  66.561  1.00  0.00    -0.215 OA 
HETATM   17  O   UNL     1      -5.302  16.058  68.635  1.00  0.00    -0.098 OA 
BRANCH  15  18
HETATM   18  N   UNL     1      -7.468  17.290  68.882  1.00  0.00    -0.254 N  
HETATM   19  H   UNL     1      -7.421  17.189  69.895  1.00  0.00     0.000 HD 
BRANCH  18  20
HETATM   20  C   UNL     1      -8.334  18.249  68.299  1.00  0.00    -0.302 A  
HETATM   21  C   UNL     1      -9.666  17.924  68.048  1.00  0.00    -0.303 A  
HETATM   22  C   UNL     1     -10.494  18.847  67.408  1.00  0.00    -0.520 A  
HETATM   23  C   UNL     1      -9.994  20.096  67.036  1.00  0.00    -0.596 A  
HETATM   24  C   UNL     1      -8.664  20.423  67.304  1.00  0.00    -0.429 A  
HETATM   25  C   UNL     1      -7.830  19.495  67.927  1.00  0.00    -0.330 A  
ENDBRANCH  18  20
ENDBRANCH  15  18
ENDBRANCH  13  15
ENDBRANCH   8   9
ENDBRANCH   4   7
TORSDOF 5
ENDMDL
MODEL       14
REMARK 921   NORMALIZED FREE ENERGY PREDICTED BY IDOCK:   -6.88 KCAL/MOL
REMARK 922        TOTAL FREE ENERGY PREDICTED BY IDOCK:   -9.37 KCAL/MOL
REMARK 923 INTER-LIGAND FREE ENERGY PREDICTED BY IDOCK:   -8.79 KCAL/MOL
REMARK 924 INTRA-LIGAND FREE ENERGY PREDICTED BY IDOCK:   -0.57 KCAL/MOL
REMARK 927      BINDING AFFINITY PREDICTED BY RF-SCORE:    0.00 PKD
ROOT
HETATM    1  O   UNL     1     -14.313   9.160  72.839  1.00  0.00    -1.006 OA 
HETATM    2  N   UNL     1     -13.098   8.458  72.789  1.00  0.00    -0.625 N  
HETATM    3  H   UNL     1     -15.042   8.858  73.369  1.00  0.00     0.000 HD 
HETATM    4  C   UNL     1     -12.052   8.891  72.028  1.00  0.00    -0.371 C  
HETATM    5  H   UNL     1     -12.995   7.603  73.335  1.00  0.00     0.000 HD 
HETATM    6  O   UNL     1     -11.020   8.235  71.939  1.00  0.00    -0.250 OA 
ENDROOT
BRANCH   4   7
HETATM    7  C   UNL     1     -12.235  10.186  71.328  1.00  0.00    -0.496 C  
HETATM    8  C   UNL     1     -11.490  10.497  70.257  1.00  0.00    -0.416 C  
BRANCH   8   9
HETATM    9  C   UNL     1     -11.671  11.774  69.569  1.00  0.00    -0.408 A  
HETATM   10  C   UNL     1     -11.933  12.935  70.307  1.00  0.00    -0.359 A  
HETATM   11  C   UNL     1     -12.169  14.149  69.656  1.00  0.00    -0.376 A  
HETATM   12  C   UNL     1     -12.153  14.210  68.262  1.00  0.00    -0.297 A  
HETATM   13  C   UNL     1     -11.879  13.055  67.522  1.00  0.00    -0.355 A  
HETATM   14  C   UNL     1     -11.644  11.835  68.169  1.00  0.00    -0.391 A  
BRANCH  13  15
HETATM   15  S   UNL     1     -11.974  13.108  65.743  1.00  0.00    -0.446 S  
HETATM   16  O   UNL     1     -12.980  14.084  65.383  1.00  0.00    -0.726 OA 
HETATM   17  O   UNL     1     -12.062  11.739  65.276  1.00  0.00    -0.271 OA 
BRANCH  15  18
HETATM   18  N   UNL     1     -10.459  13.662  65.258  1.00  0.00    -0.333 N  
HETATM   19  H   UNL     1      -9.947  13.178  64.521  1.00  0.00     0.000 HD 
BRANCH  18  20
HETATM   20  C   UNL     1      -9.901  14.806  65.882  1.00  0.00    -0.334 A  
HETATM   21  C   UNL     1     -10.290  16.081  65.476  1.00  0.00    -0.415 A  
HETATM   22  C   UNL     1      -9.684  17.203  66.044  1.00  0.00    -0.213 A  
HETATM   23  C   UNL     1      -8.706  17.047  67.026  1.00  0.00    -0.240 A  
HETATM   24  C   UNL     1      -8.331  15.769  67.443  1.00  0.00    -0.189 A  
HETATM   25  C   UNL     1      -8.923  14.647  66.863  1.00  0.00    -0.275 A  
ENDBRANCH  18  20
ENDBRANCH  15  18
ENDBRANCH  13  15
ENDBRANCH   8   9
ENDBRANCH   4   7
TORSDOF 5
ENDMDL
MODEL       15
REMARK 921   NORMALIZED FREE ENERGY PREDICTED BY IDOCK:   -6.88 KCAL/MOL
REMARK 922        TOTAL FREE ENERGY PREDICTED BY IDOCK:   -9.37 KCAL/MOL
REMARK 923 INTER-LIGAND FREE ENERGY PREDICTED BY IDOCK:   -8.65 KCAL/MOL
REMARK 924 INTRA-LIGAND FREE ENERGY PREDICTED BY IDOCK:   -0.71 KCAL/MOL
REMARK 927      BINDING AFFINITY PREDICTED BY RF-SCORE:    0.00 PKD
ROOT
HETATM    1  O   UNL     1     -12.365  16.907  74.111  1.00  0.00    -0.533 OA 
HETATM    2  N   UNL     1     -13.267  15.847  73.927  1.00  0.00    -0.847 N  
HETATM    3  H   UNL     1     -12.259  17.331  74.955  1.00  0.00     0.000 HD 
HETATM    4  C   UNL     1     -13.419  15.238  72.715  1.00  0.00    -0.518 C  
HETATM    5  H   UNL     1     -13.823  15.524  74.719  1.00  0.00     0.000 HD 
HETATM    6  O   UNL     1     -14.258  14.359  72.550  1.00  0.00    -0.531 OA 
ENDROOT
BRANCH   4   7
HETATM    7  C   UNL     1     -12.519  15.695  71.628  1.00  0.00    -0.503 C  
HETATM    8  C   UNL     1     -12.551  15.111  70.422  1.00  0.00    -0.405 C  
BRANCH   8   9
HETATM    9  C   UNL     1     -11.663  15.562  69.351  1.00  0.00    -0.382 A  
HETATM   10  C   UNL     1     -10.725  16.570  69.601  1.00  0.00    -0.323 A  
HETATM   11  C   UNL     1      -9.914  17.052  68.570  1.00  0.00    -0.293 A  
HETATM   12  C   UNL     1     -10.040  16.536  67.280  1.00  0.00    -0.273 A  
HETATM   13  C   UNL     1     -10.967  15.519  67.031  1.00  0.00    -0.283 A  
HETATM   14  C   UNL     1     -11.785  15.034  68.060  1.00  0.00    -0.320 A  
BRANCH  13  15
HETATM   15  S   UNL     1     -11.210  14.941  65.362  1.00  0.00    -0.360 S  
HETATM   16  O   UNL     1     -10.957  16.051  64.468  1.00  0.00    -0.592 OA 
HETATM   17  O   UNL     1     -12.475  14.234  65.332  1.00  0.00    -0.443 OA 
BRANCH  15  18
HETATM   18  N   UNL     1     -10.022  13.768  65.146  1.00  0.00    -0.579 N  
HETATM   19  H   UNL     1      -9.394  13.814  64.345  1.00  0.00     0.000 HD 
BRANCH  18  20
HETATM   20  C   UNL     1      -9.901  12.715  66.088  1.00  0.00    -0.259 A  
HETATM   21  C   UNL     1     -10.817  11.665  66.082  1.00  0.00    -0.343 A  
HETATM   22  C   UNL     1     -10.736  10.670  67.058  1.00  0.00    -0.317 A  
HETATM   23  C   UNL     1      -9.731  10.719  68.024  1.00  0.00    -0.174 A  
HETATM   24  C   UNL     1      -8.806  11.763  68.018  1.00  0.00    -0.164 A  
HETATM   25  C   UNL     1      -8.896  12.768  67.054  1.00  0.00    -0.213 A  
ENDBRANCH  18  20
ENDBRANCH  15  18
ENDBRANCH  13  15
ENDBRANCH   8   9
ENDBRANCH   4   7
TORSDOF 5
ENDMDL
MODEL       16
REMARK 921   NORMALIZED FREE ENERGY PREDICTED BY IDOCK:   -6.85 KCAL/MOL
REMARK 922        TOTAL FREE ENERGY PREDICTED BY IDOCK:   -9.32 KCAL/MOL
REMARK 923 INTER-LIGAND FREE ENERGY PREDICTED BY IDOCK:   -8.67 KCAL/MOL
REMARK 924 INTRA-LIGAND FREE ENERGY PREDICTED BY IDOCK:   -0.65 KCAL/MOL
REMARK 927      BINDING AFFINITY PREDICTED BY RF-SCORE:    0.00 PKD
ROOT
HETATM    1  O   UNL     1     -14.143   9.050  73.209  1.00  0.00    -1.218 OA 
HETATM    2  N   UNL     1     -13.211   8.145  72.676  1.00  0.00    -0.560 N  
HETATM    3  H   UNL     1     -14.768   8.787  73.876  1.00  0.00     0.000 HD 
HETATM    4  C   UNL     1     -12.315   8.522  71.719  1.00  0.00    -0.338 C  
HETATM    5  H   UNL     1     -13.204   7.183  73.013  1.00  0.00     0.000 HD 
HETATM    6  O   UNL     1     -11.551   7.707  71.212  1.00  0.00    -0.267 OA 
ENDROOT
BRANCH   4   7
HETATM    7  C   UNL     1     -12.319   9.955  71.337  1.00  0.00    -0.498 C  
HETATM    8  C   UNL     1     -11.826  10.350  70.154  1.00  0.00    -0.379 C  
BRANCH   8   9
HETATM    9  C   UNL     1     -11.830  11.763  69.779  1.00  0.00    -0.420 A  
HETATM   10  C   UNL     1     -12.356  12.718  70.658  1.00  0.00    -0.381 A  
HETATM   11  C   UNL     1     -12.421  14.063  70.285  1.00  0.00    -0.403 A  
HETATM   12  C   UNL     1     -11.969  14.463  69.028  1.00  0.00    -0.342 A  
HETATM   13  C   UNL     1     -11.431  13.514  68.152  1.00  0.00    -0.303 A  
HETATM   14  C   UNL     1     -11.365  12.164  68.520  1.00  0.00    -0.324 A  
BRANCH  13  15
HETATM   15  S   UNL     1     -10.962  14.005  66.504  1.00  0.00    -0.310 S  
HETATM   16  O   UNL     1      -9.516  13.993  66.433  1.00  0.00    -0.282 OA 
HETATM   17  O   UNL     1     -11.713  15.201  66.181  1.00  0.00    -0.174 OA 
BRANCH  15  18
HETATM   18  N   UNL     1     -11.580  12.792  65.512  1.00  0.00    -0.343 N  
HETATM   19  H   UNL     1     -12.587  12.694  65.388  1.00  0.00     0.000 HD 
BRANCH  18  20
HETATM   20  C   UNL     1     -10.689  11.908  64.853  1.00  0.00    -0.301 A  
HETATM   21  C   UNL     1     -10.280  12.176  63.548  1.00  0.00    -0.453 A  
HETATM   22  C   UNL     1      -9.461  11.265  62.879  1.00  0.00    -0.385 A  
HETATM   23  C   UNL     1      -9.041  10.100  63.521  1.00  0.00    -0.302 A  
HETATM   24  C   UNL     1      -9.439   9.843  64.833  1.00  0.00    -0.355 A  
HETATM   25  C   UNL     1     -10.272  10.744  65.497  1.00  0.00    -0.330 A  
ENDBRANCH  18  20
ENDBRANCH  15  18
ENDBRANCH  13  15
ENDBRANCH   8   9
ENDBRANCH   4   7
TORSDOF 5
ENDMDL
MODEL       17
REMARK 921   NORMALIZED FREE ENERGY PREDICTED BY IDOCK:   -6.80 KCAL/MOL
REMARK 922        TOTAL FREE ENERGY PREDICTED BY IDOCK:   -9.26 KCAL/MOL
REMARK 923 INTER-LIGAND FREE ENERGY PREDICTED BY IDOCK:   -8.82 KCAL/MOL
REMARK 924 INTRA-LIGAND FREE ENERGY PREDICTED BY IDOCK:   -0.44 KCAL/MOL
REMARK 927      BINDING AFFINITY PREDICTED BY RF-SCORE:    0.00 PKD
ROOT
HETATM    1  O   UNL     1     -12.013  11.399  63.046  1.00  0.00    -0.918 OA 
HETATM    2  N   UNL     1     -12.530  12.641  63.450  1.00  0.00    -0.732 N  
HETATM    3  H   UNL     1     -12.079  11.101  62.146  1.00  0.00     0.000 HD 
HETATM    4  C   UNL     1     -12.436  13.069  64.742  1.00  0.00    -0.427 C  
HETATM    5  H   UNL     1     -12.987  13.237  62.761  1.00  0.00     0.000 HD 
HETATM    6  O   UNL     1     -12.950  14.124  65.098  1.00  0.00    -0.729 OA 
ENDROOT
BRANCH   4   7
HETATM    7  C   UNL     1     -11.683  12.196  65.675  1.00  0.00    -0.385 C  
HETATM    8  C   UNL     1     -11.785  12.361  67.001  1.00  0.00    -0.423 C  
BRANCH   8   9
HETATM    9  C   UNL     1     -11.041  11.500  67.920  1.00  0.00    -0.317 A  
HETATM   10  C   UNL     1      -9.741  11.092  67.596  1.00  0.00    -0.184 A  
HETATM   11  C   UNL     1      -9.045  10.219  68.436  1.00  0.00    -0.136 A  
HETATM   12  C   UNL     1      -9.644   9.741  69.602  1.00  0.00    -0.239 A  
HETATM   13  C   UNL     1     -10.938  10.158  69.935  1.00  0.00    -0.293 A  
HETATM   14  C   UNL     1     -11.642  11.030  69.095  1.00  0.00    -0.389 A  
BRANCH  13  15
HETATM   15  S   UNL     1     -11.747   9.458  71.360  1.00  0.00    -0.404 S  
HETATM   16  O   UNL     1     -12.802  10.365  71.760  1.00  0.00    -0.417 OA 
HETATM   17  O   UNL     1     -10.711   9.063  72.293  1.00  0.00    -0.270 OA 
BRANCH  15  18
HETATM   18  N   UNL     1     -12.427   8.024  70.796  1.00  0.00    -0.500 N  
HETATM   19  H   UNL     1     -13.390   8.009  70.462  1.00  0.00     0.000 HD 
BRANCH  18  20
HETATM   20  C   UNL     1     -11.650   6.839  70.787  1.00  0.00    -0.366 A  
HETATM   21  C   UNL     1     -11.411   6.153  71.977  1.00  0.00    -0.366 A  
HETATM   22  C   UNL     1     -10.585   5.028  71.973  1.00  0.00    -0.243 A  
HETATM   23  C   UNL     1     -10.015   4.583  70.780  1.00  0.00    -0.269 A  
HETATM   24  C   UNL     1     -10.270   5.262  69.588  1.00  0.00    -0.348 A  
HETATM   25  C   UNL     1     -11.080   6.397  69.593  1.00  0.00    -0.465 A  
ENDBRANCH  18  20
ENDBRANCH  15  18
ENDBRANCH  13  15
ENDBRANCH   8   9
ENDBRANCH   4   7
TORSDOF 5
ENDMDL
MODEL       18
REMARK 921   NORMALIZED FREE ENERGY PREDICTED BY IDOCK:   -6.77 KCAL/MOL
REMARK 922        TOTAL FREE ENERGY PREDICTED BY IDOCK:   -9.22 KCAL/MOL
REMARK 923 INTER-LIGAND FREE ENERGY PREDICTED BY IDOCK:   -8.60 KCAL/MOL
REMARK 924 INTRA-LIGAND FREE ENERGY PREDICTED BY IDOCK:   -0.62 KCAL/MOL
REMARK 927      BINDING AFFINITY PREDICTED BY RF-SCORE:    0.00 PKD
ROOT
HETATM    1  O   UNL     1     -12.863  15.596  69.565  1.00  0.00    -0.505 OA 
HETATM    2  N   UNL     1     -13.421  15.587  70.853  1.00  0.00    -0.782 N  
HETATM    3  H   UNL     1     -12.872  16.376  69.023  1.00  0.00     0.000 HD 
HETATM    4  C   UNL     1     -13.408  14.467  71.632  1.00  0.00    -0.363 C  
HETATM    5  H   UNL     1     -13.846  16.440  71.217  1.00  0.00     0.000 HD 
HETATM    6  O   UNL     1     -13.957  14.452  72.728  1.00  0.00    -0.569 OA 
ENDROOT
BRANCH   4   7
HETATM    7  C   UNL     1     -12.697  13.287  71.081  1.00  0.00    -0.404 C  
HETATM    8  C   UNL     1     -12.996  12.049  71.501  1.00  0.00    -0.407 C  
BRANCH   8   9
HETATM    9  C   UNL     1     -12.294  10.888  70.958  1.00  0.00    -0.498 A  
HETATM   10  C   UNL     1     -12.235   9.699  71.696  1.00  0.00    -0.484 A  
HETATM   11  C   UNL     1     -11.514   8.603  71.215  1.00  0.00    -0.341 A  
HETATM   12  C   UNL     1     -10.840   8.688  69.996  1.00  0.00    -0.226 A  
HETATM   13  C   UNL     1     -10.908   9.870  69.250  1.00  0.00    -0.227 A  
HETATM   14  C   UNL     1     -11.626  10.973  69.729  1.00  0.00    -0.401 A  
BRANCH  13  15
HETATM   15  S   UNL     1      -9.953  10.020  67.753  1.00  0.00    -0.179 S  
HETATM   16  O   UNL     1     -10.552   9.156  66.758  1.00  0.00    -0.227 OA 
HETATM   17  O   UNL     1      -8.557   9.881  68.117  1.00  0.00    -0.117 OA 
BRANCH  15  18
HETATM   18  N   UNL     1     -10.149  11.627  67.289  1.00  0.00    -0.198 N  
HETATM   19  H   UNL     1      -9.851  12.380  67.908  1.00  0.00     0.000 HD 
BRANCH  18  20
HETATM   20  C   UNL     1     -10.731  11.924  66.032  1.00  0.00    -0.285 A  
HETATM   21  C   UNL     1     -10.014  11.697  64.859  1.00  0.00    -0.293 A  
HETATM   22  C   UNL     1     -10.565  12.060  63.629  1.00  0.00    -0.503 A  
HETATM   23  C   UNL     1     -11.836  12.631  63.574  1.00  0.00    -0.619 A  
HETATM   24  C   UNL     1     -12.559  12.841  64.748  1.00  0.00    -0.518 A  
HETATM   25  C   UNL     1     -12.002  12.496  65.980  1.00  0.00    -0.456 A  
ENDBRANCH  18  20
ENDBRANCH  15  18
ENDBRANCH  13  15
ENDBRANCH   8   9
ENDBRANCH   4   7
TORSDOF 5
ENDMDL
MODEL       19
REMARK 921   NORMALIZED FREE ENERGY PREDICTED BY IDOCK:   -6.75 KCAL/MOL
REMARK 922        TOTAL FREE ENERGY PREDICTED BY IDOCK:   -9.19 KCAL/MOL
REMARK 923 INTER-LIGAND FREE ENERGY PREDICTED BY IDOCK:   -8.43 KCAL/MOL
REMARK 924 INTRA-LIGAND FREE ENERGY PREDICTED BY IDOCK:   -0.76 KCAL/MOL
REMARK 927      BINDING AFFINITY PREDICTED BY RF-SCORE:    0.00 PKD
ROOT
HETATM    1  O   UNL     1     -14.114  13.395  72.685  1.00  0.00    -0.767 OA 
HETATM    2  N   UNL     1     -13.501  14.643  72.876  1.00  0.00    -0.471 N  
HETATM    3  H   UNL     1     -14.835  13.104  73.232  1.00  0.00     0.000 HD 
HETATM    4  C   UNL     1     -12.466  15.061  72.090  1.00  0.00    -0.344 C  
HETATM    5  H   UNL     1     -13.837  15.254  73.620  1.00  0.00     0.000 HD 
HETATM    6  O   UNL     1     -11.894  16.123  72.309  1.00  0.00    -0.486 OA 
ENDROOT
BRANCH   4   7
HETATM    7  C   UNL     1     -12.083  14.166  70.971  1.00  0.00    -0.411 C  
HETATM    8  C   UNL     1     -12.441  14.452  69.712  1.00  0.00    -0.262 C  
BRANCH   8   9
HETATM    9  C   UNL     1     -12.063  13.569  68.609  1.00  0.00    -0.303 A  
HETATM   10  C   UNL     1     -11.610  12.271  68.879  1.00  0.00    -0.367 A  
HETATM   11  C   UNL     1     -11.188  11.440  67.838  1.00  0.00    -0.352 A  
HETATM   12  C   UNL     1     -11.208  11.901  66.521  1.00  0.00    -0.383 A  
HETATM   13  C   UNL     1     -11.673  13.192  66.248  1.00  0.00    -0.375 A  
HETATM   14  C   UNL     1     -12.095  14.031  67.288  1.00  0.00    -0.405 A  
BRANCH  13  15
HETATM   15  S   UNL     1     -11.590  13.822  64.583  1.00  0.00    -0.396 S  
HETATM   16  O   UNL     1     -12.684  14.752  64.406  1.00  0.00    -0.604 OA 
HETATM   17  O   UNL     1     -11.429  12.684  63.700  1.00  0.00    -0.429 OA 
BRANCH  15  18
HETATM   18  N   UNL     1     -10.129  14.659  64.523  1.00  0.00    -0.387 N  
HETATM   19  H   UNL     1      -9.486  14.515  63.746  1.00  0.00     0.000 HD 
BRANCH  18  20
HETATM   20  C   UNL     1      -9.802  15.566  65.563  1.00  0.00    -0.313 A  
HETATM   21  C   UNL     1     -10.416  16.816  65.617  1.00  0.00    -0.284 A  
HETATM   22  C   UNL     1     -10.036  17.731  66.600  1.00  0.00    -0.350 A  
HETATM   23  C   UNL     1      -9.059  17.388  67.534  1.00  0.00    -0.232 A  
HETATM   24  C   UNL     1      -8.458  16.130  67.487  1.00  0.00    -0.177 A  
HETATM   25  C   UNL     1      -8.824  15.221  66.494  1.00  0.00    -0.335 A  
ENDBRANCH  18  20
ENDBRANCH  15  18
ENDBRANCH  13  15
ENDBRANCH   8   9
ENDBRANCH   4   7
TORSDOF 5
ENDMDL
MODEL       20
REMARK 921   NORMALIZED FREE ENERGY PREDICTED BY IDOCK:   -6.71 KCAL/MOL
REMARK 922        TOTAL FREE ENERGY PREDICTED BY IDOCK:   -9.14 KCAL/MOL
REMARK 923 INTER-LIGAND FREE ENERGY PREDICTED BY IDOCK:   -8.43 KCAL/MOL
REMARK 924 INTRA-LIGAND FREE ENERGY PREDICTED BY IDOCK:   -0.72 KCAL/MOL
REMARK 927      BINDING AFFINITY PREDICTED BY RF-SCORE:    0.00 PKD
ROOT
HETATM    1  O   UNL     1     -13.484   8.603  71.795  1.00  0.00    -0.349 OA 
HETATM    2  N   UNL     1     -13.535   9.892  72.350  1.00  0.00    -0.625 N  
HETATM    3  H   UNL     1     -13.796   7.842  72.272  1.00  0.00     0.000 HD 
HETATM    4  C   UNL     1     -13.087  10.984  71.666  1.00  0.00    -0.438 C  
HETATM    5  H   UNL     1     -13.916  10.014  73.288  1.00  0.00     0.000 HD 
HETATM    6  O   UNL     1     -13.074  12.095  72.186  1.00  0.00    -0.434 OA 
ENDROOT
BRANCH   4   7
HETATM    7  C   UNL     1     -12.628  10.751  70.275  1.00  0.00    -0.350 C  
HETATM    8  C   UNL     1     -11.963  11.703  69.605  1.00  0.00    -0.390 C  
BRANCH   8   9
HETATM    9  C   UNL     1     -11.511  11.471  68.233  1.00  0.00    -0.368 A  
HETATM   10  C   UNL     1     -10.672  10.387  67.948  1.00  0.00    -0.307 A  
HETATM   11  C   UNL     1     -10.184  10.193  66.653  1.00  0.00    -0.287 A  
HETATM   12  C   UNL     1     -10.525  11.084  65.635  1.00  0.00    -0.293 A  
HETATM   13  C   UNL     1     -11.374  12.160  65.914  1.00  0.00    -0.356 A  
HETATM   14  C   UNL     1     -11.863  12.362  67.211  1.00  0.00    -0.357 A  
BRANCH  13  15
HETATM   15  S   UNL     1     -11.715  13.363  64.644  1.00  0.00    -0.392 S  
HETATM   16  O   UNL     1     -12.835  14.167  65.084  1.00  0.00    -0.686 OA 
HETATM   17  O   UNL     1     -11.757  12.654  63.381  1.00  0.00    -0.497 OA 
BRANCH  15  18
HETATM   18  N   UNL     1     -10.329  14.319  64.588  1.00  0.00    -0.594 N  
HETATM   19  H   UNL     1      -9.687  14.248  63.800  1.00  0.00     0.000 HD 
BRANCH  18  20
HETATM   20  C   UNL     1     -10.063  15.224  65.646  1.00  0.00    -0.371 A  
HETATM   21  C   UNL     1     -10.552  16.527  65.590  1.00  0.00    -0.317 A  
HETATM   22  C   UNL     1     -10.225  17.434  66.600  1.00  0.00    -0.324 A  
HETATM   23  C   UNL     1      -9.426  17.030  67.670  1.00  0.00    -0.236 A  
HETATM   24  C   UNL     1      -8.951  15.719  67.732  1.00  0.00    -0.176 A  
HETATM   25  C   UNL     1      -9.262  14.818  66.714  1.00  0.00    -0.282 A  
ENDBRANCH  18  20
ENDBRANCH  15  18
ENDBRANCH  13  15
ENDBRANCH   8   9
ENDBRANCH   4   7
TORSDOF 5
ENDMDL
MODEL       21
REMARK 921   NORMALIZED FREE ENERGY PREDICTED BY IDOCK:   -6.69 KCAL/MOL
REMARK 922        TOTAL FREE ENERGY PREDICTED BY IDOCK:   -9.11 KCAL/MOL
REMARK 923 INTER-LIGAND FREE ENERGY PREDICTED BY IDOCK:   -8.71 KCAL/MOL
REMARK 924 INTRA-LIGAND FREE ENERGY PREDICTED BY IDOCK:   -0.40 KCAL/MOL
REMARK 927      BINDING AFFINITY PREDICTED BY RF-SCORE:    0.00 PKD
ROOT
HETATM    1  O   UNL     1     -11.243   8.814  69.242  1.00  0.00    -0.435 OA 
HETATM    2  N   UNL     1     -11.763   8.305  70.442  1.00  0.00    -0.473 N  
HETATM    3  H   UNL     1     -10.933   8.241  68.550  1.00  0.00     0.000 HD 
HETATM    4  C   UNL     1     -12.209   9.127  71.435  1.00  0.00    -0.335 C  
HETATM    5  H   UNL     1     -11.809   7.295  70.575  1.00  0.00     0.000 HD 
HETATM    6  O   UNL     1     -12.598   8.673  72.506  1.00  0.00    -0.392 OA 
ENDROOT
BRANCH   4   7
HETATM    7  C   UNL     1     -12.197  10.582  71.144  1.00  0.00    -0.496 C  
HETATM    8  C   UNL     1     -13.014  11.418  71.800  1.00  0.00    -0.519 C  
BRANCH   8   9
HETATM    9  C   UNL     1     -13.002  12.852  71.511  1.00  0.00    -0.388 A  
HETATM   10  C   UNL     1     -13.898  13.704  72.168  1.00  0.00    -0.642 A  
HETATM   11  C   UNL     1     -13.938  15.065  71.855  1.00  0.00    -0.604 A  
HETATM   12  C   UNL     1     -13.087  15.584  70.878  1.00  0.00    -0.508 A  
HETATM   13  C   UNL     1     -12.182  14.738  70.230  1.00  0.00    -0.338 A  
HETATM   14  C   UNL     1     -12.140  13.371  70.537  1.00  0.00    -0.399 A  
BRANCH  13  15
HETATM   15  S   UNL     1     -11.179  15.375  68.901  1.00  0.00    -0.314 S  
HETATM   16  O   UNL     1     -12.003  15.433  67.713  1.00  0.00    -0.156 OA 
HETATM   17  O   UNL     1      -9.933  14.636  68.909  1.00  0.00    -0.232 OA 
BRANCH  15  18
HETATM   18  N   UNL     1     -10.787  16.940  69.385  1.00  0.00    -0.351 N  
HETATM   19  H   UNL     1     -11.059  17.276  70.309  1.00  0.00     0.000 HD 
BRANCH  18  20
HETATM   20  C   UNL     1     -10.076  17.787  68.499  1.00  0.00    -0.377 A  
HETATM   21  C   UNL     1      -8.733  17.539  68.223  1.00  0.00    -0.270 A  
HETATM   22  C   UNL     1      -8.019  18.419  67.407  1.00  0.00    -0.241 A  
HETATM   23  C   UNL     1      -8.655  19.532  66.856  1.00  0.00    -0.341 A  
HETATM   24  C   UNL     1     -10.004  19.768  67.120  1.00  0.00    -0.536 A  
HETATM   25  C   UNL     1     -10.713  18.900  67.950  1.00  0.00    -0.362 A  
ENDBRANCH  18  20
ENDBRANCH  15  18
ENDBRANCH  13  15
ENDBRANCH   8   9
ENDBRANCH   4   7
TORSDOF 5
ENDMDL
MODEL       22
REMARK 921   NORMALIZED FREE ENERGY PREDICTED BY IDOCK:   -6.68 KCAL/MOL
REMARK 922        TOTAL FREE ENERGY PREDICTED BY IDOCK:   -9.10 KCAL/MOL
REMARK 923 INTER-LIGAND FREE ENERGY PREDICTED BY IDOCK:   -8.37 KCAL/MOL
REMARK 924 INTRA-LIGAND FREE ENERGY PREDICTED BY IDOCK:   -0.73 KCAL/MOL
REMARK 927      BINDING AFFINITY PREDICTED BY RF-SCORE:    0.00 PKD
ROOT
HETATM    1  O   UNL     1     -11.492  14.944  64.309  1.00  0.00    -0.621 OA 
HETATM    2  N   UNL     1     -12.321  14.099  63.554  1.00  0.00    -1.127 N  
HETATM    3  H   UNL     1     -11.452  15.880  64.145  1.00  0.00     0.000 HD 
HETATM    4  C   UNL     1     -12.380  12.756  63.790  1.00  0.00    -0.446 C  
HETATM    5  H   UNL     1     -12.894  14.498  62.811  1.00  0.00     0.000 HD 
HETATM    6  O   UNL     1     -13.056  12.018  63.081  1.00  0.00    -0.624 OA 
ENDROOT
BRANCH   4   7
HETATM    7  C   UNL     1     -11.591  12.252  64.941  1.00  0.00    -0.395 C  
HETATM    8  C   UNL     1     -10.603  11.364  64.757  1.00  0.00    -0.377 C  
BRANCH   8   9
HETATM    9  C   UNL     1      -9.827  10.868  65.892  1.00  0.00    -0.285 A  
HETATM   10  C   UNL     1      -8.437  10.733  65.782  1.00  0.00    -0.174 A  
HETATM   11  C   UNL     1      -7.693  10.201  66.839  1.00  0.00    -0.103 A  
HETATM   12  C   UNL     1      -8.332   9.792  68.009  1.00  0.00    -0.110 A  
HETATM   13  C   UNL     1      -9.718   9.938  68.127  1.00  0.00    -0.144 A  
HETATM   14  C   UNL     1     -10.470  10.468  67.070  1.00  0.00    -0.304 A  
BRANCH  13  15
HETATM   15  S   UNL     1     -10.548   9.309  69.574  1.00  0.00    -0.220 S  
HETATM   16  O   UNL     1      -9.860   9.825  70.738  1.00  0.00    -0.218 OA 
HETATM   17  O   UNL     1     -10.724   7.884  69.383  1.00  0.00    -0.228 OA 
BRANCH  15  18
HETATM   18  N   UNL     1     -12.092   9.977  69.496  1.00  0.00    -0.453 N  
HETATM   19  H   UNL     1     -12.831   9.503  68.979  1.00  0.00     0.000 HD 
BRANCH  18  20
HETATM   20  C   UNL     1     -12.355  11.205  70.154  1.00  0.00    -0.295 A  
HETATM   21  C   UNL     1     -11.889  12.401  69.611  1.00  0.00    -0.380 A  
HETATM   22  C   UNL     1     -12.089  13.598  70.301  1.00  0.00    -0.427 A  
HETATM   23  C   UNL     1     -12.767  13.598  71.520  1.00  0.00    -0.420 A  
HETATM   24  C   UNL     1     -13.247  12.400  72.052  1.00  0.00    -0.514 A  
HETATM   25  C   UNL     1     -13.033  11.201  71.373  1.00  0.00    -0.506 A  
ENDBRANCH  18  20
ENDBRANCH  15  18
ENDBRANCH  13  15
ENDBRANCH   8   9
ENDBRANCH   4   7
TORSDOF 5
ENDMDL
MODEL       23
REMARK 921   NORMALIZED FREE ENERGY PREDICTED BY IDOCK:   -6.66 KCAL/MOL
REMARK 922        TOTAL FREE ENERGY PREDICTED BY IDOCK:   -9.08 KCAL/MOL
REMARK 923 INTER-LIGAND FREE ENERGY PREDICTED BY IDOCK:   -8.33 KCAL/MOL
REMARK 924 INTRA-LIGAND FREE ENERGY PREDICTED BY IDOCK:   -0.75 KCAL/MOL
REMARK 927      BINDING AFFINITY PREDICTED BY RF-SCORE:    0.00 PKD
ROOT
HETATM    1  O   UNL     1     -12.527  15.216  63.582  1.00  0.00    -0.985 OA 
HETATM    2  N   UNL     1     -12.445  13.850  63.270  1.00  0.00    -1.112 N  
HETATM    3  H   UNL     1     -12.946  15.838  62.997  1.00  0.00     0.000 HD 
HETATM    4  C   UNL     1     -11.845  12.958  64.109  1.00  0.00    -0.414 C  
HETATM    5  H   UNL     1     -12.845  13.516  62.393  1.00  0.00     0.000 HD 
HETATM    6  O   UNL     1     -11.719  11.779  63.795  1.00  0.00    -0.424 OA 
ENDROOT
BRANCH   4   7
HETATM    7  C   UNL     1     -11.363  13.492  65.406  1.00  0.00    -0.302 C  
HETATM    8  C   UNL     1     -10.168  14.094  65.498  1.00  0.00    -0.371 C  
BRANCH   8   9
HETATM    9  C   UNL     1      -9.694  14.620  66.777  1.00  0.00    -0.267 A  
HETATM   10  C   UNL     1     -10.528  14.578  67.901  1.00  0.00    -0.242 A  
HETATM   11  C   UNL     1     -10.109  15.133  69.113  1.00  0.00    -0.245 A  
HETATM   12  C   UNL     1      -8.857  15.741  69.209  1.00  0.00    -0.262 A  
HETATM   13  C   UNL     1      -8.017  15.773  68.091  1.00  0.00    -0.135 A  
HETATM   14  C   UNL     1      -8.433  15.221  66.873  1.00  0.00    -0.286 A  
BRANCH  13  15
HETATM   15  S   UNL     1      -6.468  16.652  68.181  1.00  0.00    -0.140 S  
HETATM   16  O   UNL     1      -5.497  15.917  67.398  1.00  0.00    -0.260 OA 
HETATM   17  O   UNL     1      -6.225  16.955  69.577  1.00  0.00    -0.209 OA 
BRANCH  15  18
HETATM   18  N   UNL     1      -6.781  18.131  67.437  1.00  0.00    -0.192 N  
HETATM   19  H   UNL     1      -6.028  18.650  66.988  1.00  0.00     0.000 HD 
BRANCH  18  20
HETATM   20  C   UNL     1      -8.101  18.648  67.442  1.00  0.00    -0.247 A  
HETATM   21  C   UNL     1      -8.610  19.252  68.590  1.00  0.00    -0.401 A  
HETATM   22  C   UNL     1      -9.934  19.693  68.611  1.00  0.00    -0.553 A  
HETATM   23  C   UNL     1     -10.738  19.546  67.480  1.00  0.00    -0.565 A  
HETATM   24  C   UNL     1     -10.220  18.957  66.326  1.00  0.00    -0.491 A  
HETATM   25  C   UNL     1      -8.903  18.498  66.310  1.00  0.00    -0.221 A  
ENDBRANCH  18  20
ENDBRANCH  15  18
ENDBRANCH  13  15
ENDBRANCH   8   9
ENDBRANCH   4   7
TORSDOF 5
ENDMDL
MODEL       24
REMARK 921   NORMALIZED FREE ENERGY PREDICTED BY IDOCK:   -6.64 KCAL/MOL
REMARK 922        TOTAL FREE ENERGY PREDICTED BY IDOCK:   -9.05 KCAL/MOL
REMARK 923 INTER-LIGAND FREE ENERGY PREDICTED BY IDOCK:   -8.28 KCAL/MOL
REMARK 924 INTRA-LIGAND FREE ENERGY PREDICTED BY IDOCK:   -0.76 KCAL/MOL
REMARK 927      BINDING AFFINITY PREDICTED BY RF-SCORE:    0.00 PKD
ROOT
HETATM    1  O   UNL     1     -13.520   9.990  70.234  1.00  0.00    -0.546 OA 
HETATM    2  N   UNL     1     -12.271   9.714  70.813  1.00  0.00    -0.421 N  
HETATM    3  H   UNL     1     -14.329   9.898  70.725  1.00  0.00     0.000 HD 
HETATM    4  C   UNL     1     -11.110   9.845  70.108  1.00  0.00    -0.296 C  
HETATM    5  H   UNL     1     -12.231   9.407  71.785  1.00  0.00     0.000 HD 
HETATM    6  O   UNL     1     -10.031   9.537  70.602  1.00  0.00    -0.263 OA 
ENDROOT
BRANCH   4   7
HETATM    7  C   UNL     1     -11.231  10.379  68.729  1.00  0.00    -0.295 C  
HETATM    8  C   UNL     1     -10.324  10.067  67.792  1.00  0.00    -0.261 C  
BRANCH   8   9
HETATM    9  C   UNL     1     -10.444  10.594  66.434  1.00  0.00    -0.276 A  
HETATM   10  C   UNL     1      -9.805   9.941  65.372  1.00  0.00    -0.384 A  
HETATM   11  C   UNL     1      -9.861  10.470  64.080  1.00  0.00    -0.401 A  
HETATM   12  C   UNL     1     -10.549  11.659  63.840  1.00  0.00    -0.446 A  
HETATM   13  C   UNL     1     -11.200  12.307  64.896  1.00  0.00    -0.319 A  
HETATM   14  C   UNL     1     -11.144  11.783  66.194  1.00  0.00    -0.358 A  
BRANCH  13  15
HETATM   15  S   UNL     1     -11.979  13.885  64.612  1.00  0.00    -0.440 S  
HETATM   16  O   UNL     1     -12.749  14.217  65.792  1.00  0.00    -0.508 OA 
HETATM   17  O   UNL     1     -12.604  13.828  63.306  1.00  0.00    -0.830 OA 
BRANCH  15  18
HETATM   18  N   UNL     1     -10.695  14.966  64.460  1.00  0.00    -0.601 N  
HETATM   19  H   UNL     1     -10.207  15.060  63.571  1.00  0.00     0.000 HD 
BRANCH  18  20
HETATM   20  C   UNL     1     -10.301  15.742  65.579  1.00  0.00    -0.404 A  
HETATM   21  C   UNL     1      -9.570  15.157  66.611  1.00  0.00    -0.272 A  
HETATM   22  C   UNL     1      -9.247  15.908  67.742  1.00  0.00    -0.201 A  
HETATM   23  C   UNL     1      -9.641  17.243  67.831  1.00  0.00    -0.269 A  
HETATM   24  C   UNL     1     -10.359  17.831  66.788  1.00  0.00    -0.343 A  
HETATM   25  C   UNL     1     -10.697  17.076  65.665  1.00  0.00    -0.150 A  
ENDBRANCH  18  20
ENDBRANCH  15  18
ENDBRANCH  13  15
ENDBRANCH   8   9
ENDBRANCH   4   7
TORSDOF 5
ENDMDL
MODEL       25
REMARK 921   NORMALIZED FREE ENERGY PREDICTED BY IDOCK:   -6.63 KCAL/MOL
REMARK 922        TOTAL FREE ENERGY PREDICTED BY IDOCK:   -9.04 KCAL/MOL
REMARK 923 INTER-LIGAND FREE ENERGY PREDICTED BY IDOCK:   -8.62 KCAL/MOL
REMARK 924 INTRA-LIGAND FREE ENERGY PREDICTED BY IDOCK:   -0.42 KCAL/MOL
REMARK 927      BINDING AFFINITY PREDICTED BY RF-SCORE:    0.00 PKD
ROOT
HETATM    1  O   UNL     1      -9.628  11.798  63.260  1.00  0.00    -0.496 OA 
HETATM    2  N   UNL     1     -10.971  11.521  62.959  1.00  0.00    -0.783 N  
HETATM    3  H   UNL     1      -8.915  11.396  62.777  1.00  0.00     0.000 HD 
HETATM    4  C   UNL     1     -11.995  12.098  63.653  1.00  0.00    -0.534 C  
HETATM    5  H   UNL     1     -11.187  10.871  62.203  1.00  0.00     0.000 HD 
HETATM    6  O   UNL     1     -13.162  11.797  63.426  1.00  0.00    -0.569 OA 
ENDROOT
BRANCH   4   7
HETATM    7  C   UNL     1     -11.615  13.099  64.679  1.00  0.00    -0.384 C  
HETATM    8  C   UNL     1     -11.507  14.398  64.362  1.00  0.00    -0.299 C  
BRANCH   8   9
HETATM    9  C   UNL     1     -11.132  15.383  65.375  1.00  0.00    -0.331 A  
HETATM   10  C   UNL     1     -10.914  16.716  65.005  1.00  0.00    -0.172 A  
HETATM   11  C   UNL     1     -10.495  17.654  65.954  1.00  0.00    -0.247 A  
HETATM   12  C   UNL     1     -10.283  17.265  67.276  1.00  0.00    -0.320 A  
HETATM   13  C   UNL     1     -10.513  15.936  67.652  1.00  0.00    -0.289 A  
HETATM   14  C   UNL     1     -10.930  14.992  66.705  1.00  0.00    -0.325 A  
BRANCH  13  15
HETATM   15  S   UNL     1     -10.130  15.414  69.312  1.00  0.00    -0.268 S  
HETATM   16  O   UNL     1      -8.740  15.729  69.566  1.00  0.00    -0.259 OA 
HETATM   17  O   UNL     1     -10.627  14.061  69.463  1.00  0.00    -0.076 OA 
BRANCH  15  18
HETATM   18  N   UNL     1     -11.109  16.374  70.291  1.00  0.00    -0.405 N  
HETATM   19  H   UNL     1     -11.024  17.390  70.263  1.00  0.00     0.000 HD 
BRANCH  18  20
HETATM   20  C   UNL     1     -12.051  15.760  71.152  1.00  0.00    -0.427 A  
HETATM   21  C   UNL     1     -11.728  15.528  72.488  1.00  0.00    -0.569 A  
HETATM   22  C   UNL     1     -12.633  14.857  73.313  1.00  0.00    -0.586 A  
HETATM   23  C   UNL     1     -13.862  14.436  72.805  1.00  0.00    -0.368 A  
HETATM   24  C   UNL     1     -14.189  14.683  71.472  1.00  0.00    -0.540 A  
HETATM   25  C   UNL     1     -13.279  15.338  70.642  1.00  0.00    -0.370 A  
ENDBRANCH  18  20
ENDBRANCH  15  18
ENDBRANCH  13  15
ENDBRANCH   8   9
ENDBRANCH   4   7
TORSDOF 5
ENDMDL
MODEL       26
REMARK 921   NORMALIZED FREE ENERGY PREDICTED BY IDOCK:   -6.63 KCAL/MOL
REMARK 922        TOTAL FREE ENERGY PREDICTED BY IDOCK:   -9.03 KCAL/MOL
REMARK 923 INTER-LIGAND FREE ENERGY PREDICTED BY IDOCK:   -8.13 KCAL/MOL
REMARK 924 INTRA-LIGAND FREE ENERGY PREDICTED BY IDOCK:   -0.91 KCAL/MOL
REMARK 927      BINDING AFFINITY PREDICTED BY RF-SCORE:    0.00 PKD
ROOT
HETATM    1  O   UNL     1     -12.646  10.684  71.327  1.00  0.00    -0.359 OA 
HETATM    2  N   UNL     1     -13.470  11.516  72.101  1.00  0.00    -0.523 N  
HETATM    3  H   UNL     1     -12.663   9.738  71.420  1.00  0.00     0.000 HD 
HETATM    4  C   UNL     1     -13.446  12.874  71.966  1.00  0.00    -0.473 C  
HETATM    5  H   UNL     1     -14.103  11.095  72.781  1.00  0.00     0.000 HD 
HETATM    6  O   UNL     1     -14.121  13.594  72.694  1.00  0.00    -0.746 OA 
ENDROOT
BRANCH   4   7
HETATM    7  C   UNL     1     -12.570  13.417  70.899  1.00  0.00    -0.406 C  
HETATM    8  C   UNL     1     -12.607  14.718  70.580  1.00  0.00    -0.416 C  
BRANCH   8   9
HETATM    9  C   UNL     1     -11.743  15.252  69.528  1.00  0.00    -0.359 A  
HETATM   10  C   UNL     1     -10.842  16.283  69.821  1.00  0.00    -0.356 A  
HETATM   11  C   UNL     1     -10.056  16.844  68.810  1.00  0.00    -0.295 A  
HETATM   12  C   UNL     1     -10.170  16.383  67.498  1.00  0.00    -0.273 A  
HETATM   13  C   UNL     1     -11.060  15.344  67.205  1.00  0.00    -0.291 A  
HETATM   14  C   UNL     1     -11.852  14.781  68.213  1.00  0.00    -0.316 A  
BRANCH  13  15
HETATM   15  S   UNL     1     -11.291  14.836  65.512  1.00  0.00    -0.331 S  
HETATM   16  O   UNL     1     -10.852  15.921  64.660  1.00  0.00    -0.557 OA 
HETATM   17  O   UNL     1     -12.632  14.300  65.403  1.00  0.00    -0.460 OA 
BRANCH  15  18
HETATM   18  N   UNL     1     -10.254  13.523  65.322  1.00  0.00    -0.407 N  
HETATM   19  H   UNL     1      -9.705  13.421  64.470  1.00  0.00     0.000 HD 
BRANCH  18  20
HETATM   20  C   UNL     1     -10.151  12.560  66.358  1.00  0.00    -0.243 A  
HETATM   21  C   UNL     1     -11.181  11.646  66.566  1.00  0.00    -0.356 A  
HETATM   22  C   UNL     1     -11.106  10.749  67.633  1.00  0.00    -0.384 A  
HETATM   23  C   UNL     1      -9.995  10.757  68.476  1.00  0.00    -0.186 A  
HETATM   24  C   UNL     1      -8.957  11.663  68.255  1.00  0.00    -0.185 A  
HETATM   25  C   UNL     1      -9.039  12.572  67.200  1.00  0.00    -0.205 A  
ENDBRANCH  18  20
ENDBRANCH  15  18
ENDBRANCH  13  15
ENDBRANCH   8   9
ENDBRANCH   4   7
TORSDOF 5
ENDMDL
MODEL       27
REMARK 921   NORMALIZED FREE ENERGY PREDICTED BY IDOCK:   -6.61 KCAL/MOL
REMARK 922        TOTAL FREE ENERGY PREDICTED BY IDOCK:   -9.01 KCAL/MOL
REMARK 923 INTER-LIGAND FREE ENERGY PREDICTED BY IDOCK:   -8.72 KCAL/MOL
REMARK 924 INTRA-LIGAND FREE ENERGY PREDICTED BY IDOCK:   -0.28 KCAL/MOL
REMARK 927      BINDING AFFINITY PREDICTED BY RF-SCORE:    0.00 PKD
ROOT
HETATM    1  O   UNL     1     -11.865   8.304  70.749  1.00  0.00    -0.407 OA 
HETATM    2  N   UNL     1     -12.474   9.285  71.547  1.00  0.00    -0.336 N  
HETATM    3  H   UNL     1     -11.788   7.402  71.040  1.00  0.00     0.000 HD 
HETATM    4  C   UNL     1     -12.584  10.580  71.129  1.00  0.00    -0.417 C  
HETATM    5  H   UNL     1     -12.845   9.025  72.460  1.00  0.00     0.000 HD 
HETATM    6  O   UNL     1     -13.058  11.442  71.862  1.00  0.00    -0.492 OA 
ENDROOT
BRANCH   4   7
HETATM    7  C   UNL     1     -12.106  10.875  69.757  1.00  0.00    -0.409 C  
HETATM    8  C   UNL     1     -11.895  12.139  69.362  1.00  0.00    -0.370 C  
BRANCH   8   9
HETATM    9  C   UNL     1     -11.425  12.428  68.008  1.00  0.00    -0.377 A  
HETATM   10  C   UNL     1     -11.158  11.377  67.122  1.00  0.00    -0.366 A  
HETATM   11  C   UNL     1     -10.650  11.639  65.847  1.00  0.00    -0.318 A  
HETATM   12  C   UNL     1     -10.396  12.953  65.451  1.00  0.00    -0.310 A  
HETATM   13  C   UNL     1     -10.673  14.006  66.329  1.00  0.00    -0.289 A  
HETATM   14  C   UNL     1     -11.180  13.749  67.610  1.00  0.00    -0.316 A  
BRANCH  13  15
HETATM   15  S   UNL     1     -10.240  15.672  65.868  1.00  0.00    -0.378 S  
HETATM   16  O   UNL     1     -11.009  16.020  64.693  1.00  0.00    -0.590 OA 
HETATM   17  O   UNL     1      -8.793  15.755  65.863  1.00  0.00    -0.302 OA 
BRANCH  15  18
HETATM   18  N   UNL     1     -10.749  16.613  67.169  1.00  0.00    -0.256 N  
HETATM   19  H   UNL     1     -11.284  16.193  67.928  1.00  0.00     0.000 HD 
BRANCH  18  20
HETATM   20  C   UNL     1     -10.429  17.994  67.199  1.00  0.00    -0.367 A  
HETATM   21  C   UNL     1     -10.490  18.750  66.030  1.00  0.00    -0.483 A  
HETATM   22  C   UNL     1     -10.103  20.091  66.052  1.00  0.00    -0.559 A  
HETATM   23  C   UNL     1      -9.674  20.675  67.244  1.00  0.00    -0.562 A  
HETATM   24  C   UNL     1      -9.631  19.920  68.416  1.00  0.00    -0.406 A  
HETATM   25  C   UNL     1      -9.999  18.575  68.392  1.00  0.00    -0.414 A  
ENDBRANCH  18  20
ENDBRANCH  15  18
ENDBRANCH  13  15
ENDBRANCH   8   9
ENDBRANCH   4   7
TORSDOF 5
ENDMDL
MODEL       28
REMARK 921   NORMALIZED FREE ENERGY PREDICTED BY IDOCK:   -6.60 KCAL/MOL
REMARK 922        TOTAL FREE ENERGY PREDICTED BY IDOCK:   -9.00 KCAL/MOL
REMARK 923 INTER-LIGAND FREE ENERGY PREDICTED BY IDOCK:   -8.42 KCAL/MOL
REMARK 924 INTRA-LIGAND FREE ENERGY PREDICTED BY IDOCK:   -0.58 KCAL/MOL
REMARK 927      BINDING AFFINITY PREDICTED BY RF-SCORE:    0.00 PKD
ROOT
HETATM    1  O   UNL     1     -12.513  14.799  63.585  1.00  0.00    -1.064 OA 
HETATM    2  N   UNL     1     -11.583  15.805  63.893  1.00  0.00    -0.832 N  
HETATM    3  H   UNL     1     -12.857  14.689  62.706  1.00  0.00     0.000 HD 
HETATM    4  C   UNL     1     -11.089  15.962  65.155  1.00  0.00    -0.311 C  
HETATM    5  H   UNL     1     -11.270  16.434  63.154  1.00  0.00     0.000 HD 
HETATM    6  O   UNL     1     -10.329  16.886  65.426  1.00  0.00    -0.609 OA 
ENDROOT
BRANCH   4   7
HETATM    7  C   UNL     1     -11.517  14.961  66.162  1.00  0.00    -0.272 C  
HETATM    8  C   UNL     1     -10.778  14.731  67.256  1.00  0.00    -0.294 C  
BRANCH   8   9
HETATM    9  C   UNL     1     -11.200  13.743  68.248  1.00  0.00    -0.301 A  
HETATM   10  C   UNL     1     -11.940  14.148  69.366  1.00  0.00    -0.382 A  
HETATM   11  C   UNL     1     -12.296  13.223  70.351  1.00  0.00    -0.365 A  
HETATM   12  C   UNL     1     -11.909  11.888  70.231  1.00  0.00    -0.368 A  
HETATM   13  C   UNL     1     -11.182  11.478  69.108  1.00  0.00    -0.274 A  
HETATM   14  C   UNL     1     -10.819  12.401  68.119  1.00  0.00    -0.250 A  
BRANCH  13  15
HETATM   15  S   UNL     1     -10.588   9.800  69.011  1.00  0.00    -0.222 S  
HETATM   16  O   UNL     1      -9.329   9.734  69.722  1.00  0.00    -0.199 OA 
HETATM   17  O   UNL     1     -10.683   9.389  67.625  1.00  0.00    -0.273 OA 
BRANCH  15  18
HETATM   18  N   UNL     1     -11.744   8.897  69.838  1.00  0.00    -0.379 N  
HETATM   19  H   UNL     1     -12.734   9.012  69.626  1.00  0.00     0.000 HD 
BRANCH  18  20
HETATM   20  C   UNL     1     -11.330   7.975  70.832  1.00  0.00    -0.276 A  
HETATM   21  C   UNL     1     -11.028   6.660  70.482  1.00  0.00    -0.337 A  
HETATM   22  C   UNL     1     -10.691   5.739  71.475  1.00  0.00    -0.319 A  
HETATM   23  C   UNL     1     -10.640   6.139  72.811  1.00  0.00    -0.254 A  
HETATM   24  C   UNL     1     -10.926   7.460  73.156  1.00  0.00    -0.408 A  
HETATM   25  C   UNL     1     -11.281   8.377  72.167  1.00  0.00    -0.431 A  
ENDBRANCH  18  20
ENDBRANCH  15  18
ENDBRANCH  13  15
ENDBRANCH   8   9
ENDBRANCH   4   7
TORSDOF 5
ENDMDL
MODEL       29
REMARK 921   NORMALIZED FREE ENERGY PREDICTED BY IDOCK:   -6.58 KCAL/MOL
REMARK 922        TOTAL FREE ENERGY PREDICTED BY IDOCK:   -8.97 KCAL/MOL
REMARK 923 INTER-LIGAND FREE ENERGY PREDICTED BY IDOCK:   -8.47 KCAL/MOL
REMARK 924 INTRA-LIGAND FREE ENERGY PREDICTED BY IDOCK:   -0.50 KCAL/MOL
REMARK 927      BINDING AFFINITY PREDICTED BY RF-SCORE:    0.00 PKD
ROOT
HETATM    1  O   UNL     1     -11.558  15.617  72.931  1.00  0.00    -0.437 OA 
HETATM    2  N   UNL     1     -12.705  14.864  73.228  1.00  0.00    -0.491 N  
HETATM    3  H   UNL     1     -11.208  16.255  73.543  1.00  0.00     0.000 HD 
HETATM    4  C   UNL     1     -13.208  13.949  72.350  1.00  0.00    -0.488 C  
HETATM    5  H   UNL     1     -13.175  15.005  74.122  1.00  0.00     0.000 HD 
HETATM    6  O   UNL     1     -14.248  13.346  72.591  1.00  0.00    -0.747 OA 
ENDROOT
BRANCH   4   7
HETATM    7  C   UNL     1     -12.429  13.728  71.107  1.00  0.00    -0.450 C  
HETATM    8  C   UNL     1     -12.671  14.459  70.009  1.00  0.00    -0.185 C  
BRANCH   8   9
HETATM    9  C   UNL     1     -11.903  14.240  68.784  1.00  0.00    -0.377 A  
HETATM   10  C   UNL     1     -11.497  12.945  68.437  1.00  0.00    -0.347 A  
HETATM   11  C   UNL     1     -10.710  12.732  67.301  1.00  0.00    -0.256 A  
HETATM   12  C   UNL     1     -10.317  13.811  66.509  1.00  0.00    -0.286 A  
HETATM   13  C   UNL     1     -10.732  15.104  66.847  1.00  0.00    -0.308 A  
HETATM   14  C   UNL     1     -11.518  15.324  67.985  1.00  0.00    -0.351 A  
BRANCH  13  15
HETATM   15  S   UNL     1     -10.134  16.494  65.904  1.00  0.00    -0.312 S  
HETATM   16  O   UNL     1     -11.009  16.664  64.764  1.00  0.00    -0.705 OA 
HETATM   17  O   UNL     1      -8.707  16.312  65.727  1.00  0.00    -0.390 OA 
BRANCH  15  18
HETATM   18  N   UNL     1     -10.305  17.810  66.941  1.00  0.00    -0.346 N  
HETATM   19  H   UNL     1     -11.232  18.116  67.234  1.00  0.00     0.000 HD 
BRANCH  18  20
HETATM   20  C   UNL     1      -9.149  18.488  67.403  1.00  0.00    -0.275 A  
HETATM   21  C   UNL     1      -8.374  17.932  68.419  1.00  0.00    -0.307 A  
HETATM   22  C   UNL     1      -7.279  18.639  68.920  1.00  0.00    -0.311 A  
HETATM   23  C   UNL     1      -6.954  19.889  68.393  1.00  0.00    -0.335 A  
HETATM   24  C   UNL     1      -7.722  20.435  67.364  1.00  0.00    -0.364 A  
HETATM   25  C   UNL     1      -8.827  19.738  66.875  1.00  0.00    -0.401 A  
ENDBRANCH  18  20
ENDBRANCH  15  18
ENDBRANCH  13  15
ENDBRANCH   8   9
ENDBRANCH   4   7
TORSDOF 5
ENDMDL
MODEL       30
REMARK 921   NORMALIZED FREE ENERGY PREDICTED BY IDOCK:   -6.56 KCAL/MOL
REMARK 922        TOTAL FREE ENERGY PREDICTED BY IDOCK:   -8.95 KCAL/MOL
REMARK 923 INTER-LIGAND FREE ENERGY PREDICTED BY IDOCK:   -7.79 KCAL/MOL
REMARK 924 INTRA-LIGAND FREE ENERGY PREDICTED BY IDOCK:   -1.16 KCAL/MOL
REMARK 927      BINDING AFFINITY PREDICTED BY RF-SCORE:    0.00 PKD
ROOT
HETATM    1  O   UNL     1     -12.322  15.999  71.159  1.00  0.00    -0.526 OA 
HETATM    2  N   UNL     1     -12.835  14.977  71.974  1.00  0.00    -0.314 N  
HETATM    3  H   UNL     1     -12.227  16.890  71.476  1.00  0.00     0.000 HD 
HETATM    4  C   UNL     1     -12.971  13.698  71.518  1.00  0.00    -0.360 C  
HETATM    5  H   UNL     1     -13.112  15.196  72.930  1.00  0.00     0.000 HD 
HETATM    6  O   UNL     1     -13.483  12.829  72.216  1.00  0.00    -0.565 OA 
ENDROOT
BRANCH   4   7
HETATM    7  C   UNL     1     -12.468  13.427  70.149  1.00  0.00    -0.243 C  
HETATM    8  C   UNL     1     -12.047  12.202  69.805  1.00  0.00    -0.306 C  
BRANCH   8   9
HETATM    9  C   UNL     1     -11.550  11.936  68.455  1.00  0.00    -0.375 A  
HETATM   10  C   UNL     1     -10.609  10.921  68.245  1.00  0.00    -0.223 A  
HETATM   11  C   UNL     1     -10.081  10.699  66.970  1.00  0.00    -0.255 A  
HETATM   12  C   UNL     1     -10.484  11.495  65.898  1.00  0.00    -0.303 A  
HETATM   13  C   UNL     1     -11.435  12.501  66.102  1.00  0.00    -0.377 A  
HETATM   14  C   UNL     1     -11.965  12.730  67.378  1.00  0.00    -0.335 A  
BRANCH  13  15
HETATM   15  S   UNL     1     -11.863  13.592  64.759  1.00  0.00    -0.403 S  
HETATM   16  O   UNL     1     -13.141  14.196  65.069  1.00  0.00    -0.728 OA 
HETATM   17  O   UNL     1     -11.667  12.855  63.527  1.00  0.00    -0.490 OA 
BRANCH  15  18
HETATM   18  N   UNL     1     -10.665  14.775  64.782  1.00  0.00    -0.567 N  
HETATM   19  H   UNL     1     -10.302  15.156  63.908  1.00  0.00     0.000 HD 
BRANCH  18  20
HETATM   20  C   UNL     1     -10.164  15.238  66.024  1.00  0.00    -0.317 A  
HETATM   21  C   UNL     1      -8.971  14.725  66.530  1.00  0.00    -0.267 A  
HETATM   22  C   UNL     1      -8.521  15.131  67.788  1.00  0.00    -0.156 A  
HETATM   23  C   UNL     1      -9.256  16.059  68.527  1.00  0.00    -0.206 A  
HETATM   24  C   UNL     1     -10.442  16.582  68.011  1.00  0.00    -0.313 A  
HETATM   25  C   UNL     1     -10.901  16.164  66.762  1.00  0.00    -0.162 A  
ENDBRANCH  18  20
ENDBRANCH  15  18
ENDBRANCH  13  15
ENDBRANCH   8   9
ENDBRANCH   4   7
TORSDOF 5
ENDMDL
MODEL       31
REMARK 921   NORMALIZED FREE ENERGY PREDICTED BY IDOCK:   -6.55 KCAL/MOL
REMARK 922        TOTAL FREE ENERGY PREDICTED BY IDOCK:   -8.94 KCAL/MOL
REMARK 923 INTER-LIGAND FREE ENERGY PREDICTED BY IDOCK:   -8.24 KCAL/MOL
REMARK 924 INTRA-LIGAND FREE ENERGY PREDICTED BY IDOCK:   -0.70 KCAL/MOL
REMARK 927      BINDING AFFINITY PREDICTED BY RF-SCORE:    0.00 PKD
ROOT
HETATM    1  O   UNL     1     -12.045  11.382  62.875  1.00  0.00    -0.919 OA 
HETATM    2  N   UNL     1     -11.397  12.580  63.217  1.00  0.00    -0.719 N  
HETATM    3  H   UNL     1     -12.396  11.236  62.004  1.00  0.00     0.000 HD 
HETATM    4  C   UNL     1     -10.892  12.789  64.468  1.00  0.00    -0.347 C  
HETATM    5  H   UNL     1     -11.300  13.311  62.514  1.00  0.00     0.000 HD 
HETATM    6  O   UNL     1     -10.388  13.864  64.775  1.00  0.00    -0.418 OA 
ENDROOT
BRANCH   4   7
HETATM    7  C   UNL     1     -10.987  11.653  65.417  1.00  0.00    -0.328 C  
HETATM    8  C   UNL     1      -9.967  10.795  65.562  1.00  0.00    -0.321 C  
BRANCH   8   9
HETATM    9  C   UNL     1     -10.062   9.675  66.497  1.00  0.00    -0.314 A  
HETATM   10  C   UNL     1      -9.815   8.371  66.052  1.00  0.00    -0.082 A  
HETATM   11  C   UNL     1      -9.963   7.287  66.923  1.00  0.00    -0.302 A  
HETATM   12  C   UNL     1     -10.366   7.498  68.241  1.00  0.00    -0.233 A  
HETATM   13  C   UNL     1     -10.600   8.802  68.693  1.00  0.00    -0.139 A  
HETATM   14  C   UNL     1     -10.457   9.891  67.824  1.00  0.00    -0.292 A  
BRANCH  13  15
HETATM   15  S   UNL     1     -11.227   9.062  70.341  1.00  0.00    -0.211 S  
HETATM   16  O   UNL     1     -10.234   9.815  71.078  1.00  0.00    -0.249 OA 
HETATM   17  O   UNL     1     -11.705   7.783  70.826  1.00  0.00    -0.284 OA 
BRANCH  15  18
HETATM   18  N   UNL     1     -12.600  10.013  70.122  1.00  0.00    -0.525 N  
HETATM   19  H   UNL     1     -13.420   9.631  69.651  1.00  0.00     0.000 HD 
BRANCH  18  20
HETATM   20  C   UNL     1     -12.608  11.348  70.598  1.00  0.00    -0.271 A  
HETATM   21  C   UNL     1     -13.247  11.657  71.797  1.00  0.00    -0.438 A  
HETATM   22  C   UNL     1     -13.313  12.985  72.224  1.00  0.00    -0.606 A  
HETATM   23  C   UNL     1     -12.726  13.994  71.460  1.00  0.00    -0.443 A  
HETATM   24  C   UNL     1     -12.073  13.679  70.269  1.00  0.00    -0.427 A  
HETATM   25  C   UNL     1     -12.021  12.355  69.832  1.00  0.00    -0.369 A  
ENDBRANCH  18  20
ENDBRANCH  15  18
ENDBRANCH  13  15
ENDBRANCH   8   9
ENDBRANCH   4   7
TORSDOF 5
ENDMDL
MODEL       32
REMARK 921   NORMALIZED FREE ENERGY PREDICTED BY IDOCK:   -6.55 KCAL/MOL
REMARK 922        TOTAL FREE ENERGY PREDICTED BY IDOCK:   -8.93 KCAL/MOL
REMARK 923 INTER-LIGAND FREE ENERGY PREDICTED BY IDOCK:   -8.11 KCAL/MOL
REMARK 924 INTRA-LIGAND FREE ENERGY PREDICTED BY IDOCK:   -0.82 KCAL/MOL
REMARK 927      BINDING AFFINITY PREDICTED BY RF-SCORE:    0.00 PKD
ROOT
HETATM    1  O   UNL     1      -9.507  12.094  63.237  1.00  0.00    -0.664 OA 
HETATM    2  N   UNL     1     -10.821  11.709  62.929  1.00  0.00    -0.647 N  
HETATM    3  H   UNL     1      -8.759  11.724  62.782  1.00  0.00     0.000 HD 
HETATM    4  C   UNL     1     -11.895  12.241  63.582  1.00  0.00    -0.522 C  
HETATM    5  H   UNL     1     -10.977  11.015  62.198  1.00  0.00     0.000 HD 
HETATM    6  O   UNL     1     -13.033  11.848  63.351  1.00  0.00    -0.730 OA 
ENDROOT
BRANCH   4   7
HETATM    7  C   UNL     1     -11.605  13.308  64.570  1.00  0.00    -0.407 C  
HETATM    8  C   UNL     1     -11.826  13.110  65.877  1.00  0.00    -0.453 C  
BRANCH   8   9
HETATM    9  C   UNL     1     -11.541  14.164  66.850  1.00  0.00    -0.410 A  
HETATM   10  C   UNL     1     -11.849  13.968  68.202  1.00  0.00    -0.402 A  
HETATM   11  C   UNL     1     -11.639  14.991  69.130  1.00  0.00    -0.333 A  
HETATM   12  C   UNL     1     -11.126  16.220  68.714  1.00  0.00    -0.355 A  
HETATM   13  C   UNL     1     -10.805  16.414  67.366  1.00  0.00    -0.219 A  
HETATM   14  C   UNL     1     -11.017  15.393  66.431  1.00  0.00    -0.277 A  
BRANCH  13  15
HETATM   15  S   UNL     1     -10.261  18.019  66.815  1.00  0.00    -0.371 S  
HETATM   16  O   UNL     1     -10.649  18.987  67.819  1.00  0.00    -0.418 OA 
HETATM   17  O   UNL     1     -10.683  18.166  65.436  1.00  0.00    -0.620 OA 
BRANCH  15  18
HETATM   18  N   UNL     1      -8.581  17.901  66.771  1.00  0.00    -0.246 N  
HETATM   19  H   UNL     1      -8.038  18.531  66.183  1.00  0.00     0.000 HD 
BRANCH  18  20
HETATM   20  C   UNL     1      -7.930  16.920  67.560  1.00  0.00    -0.170 A  
HETATM   21  C   UNL     1      -7.644  17.179  68.899  1.00  0.00    -0.234 A  
HETATM   22  C   UNL     1      -6.938  16.238  69.651  1.00  0.00    -0.086 A  
HETATM   23  C   UNL     1      -6.537  15.036  69.067  1.00  0.00    -0.109 A  
HETATM   24  C   UNL     1      -6.840  14.773  67.730  1.00  0.00    -0.195 A  
HETATM   25  C   UNL     1      -7.529  15.720  66.973  1.00  0.00    -0.242 A  
ENDBRANCH  18  20
ENDBRANCH  15  18
ENDBRANCH  13  15
ENDBRANCH   8   9
ENDBRANCH   4   7
TORSDOF 5
ENDMDL
MODEL       33
REMARK 921   NORMALIZED FREE ENERGY PREDICTED BY IDOCK:   -6.53 KCAL/MOL
REMARK 922        TOTAL FREE ENERGY PREDICTED BY IDOCK:   -8.92 KCAL/MOL
REMARK 923 INTER-LIGAND FREE ENERGY PREDICTED BY IDOCK:   -8.42 KCAL/MOL
REMARK 924 INTRA-LIGAND FREE ENERGY PREDICTED BY IDOCK:   -0.50 KCAL/MOL
REMARK 927      BINDING AFFINITY PREDICTED BY RF-SCORE:    0.00 PKD
ROOT
HETATM    1  O   UNL     1     -10.129  20.239  65.734  1.00  0.00    -0.568 OA 
HETATM    2  N   UNL     1      -9.346  20.425  66.883  1.00  0.00    -0.544 N  
HETATM    3  H   UNL     1     -10.255  20.933  65.098  1.00  0.00     0.000 HD 
HETATM    4  C   UNL     1      -9.165  19.427  67.797  1.00  0.00    -0.318 C  
HETATM    5  H   UNL     1      -8.900  21.329  67.040  1.00  0.00     0.000 HD 
HETATM    6  O   UNL     1      -8.534  19.622  68.830  1.00  0.00    -0.321 OA 
ENDROOT
BRANCH   4   7
HETATM    7  C   UNL     1      -9.766  18.112  67.466  1.00  0.00    -0.304 C  
HETATM    8  C   UNL     1     -10.530  17.465  68.358  1.00  0.00    -0.384 C  
BRANCH   8   9
HETATM    9  C   UNL     1     -11.121  16.168  68.031  1.00  0.00    -0.317 A  
HETATM   10  C   UNL     1     -11.360  15.234  69.047  1.00  0.00    -0.311 A  
HETATM   11  C   UNL     1     -11.867  13.969  68.739  1.00  0.00    -0.396 A  
HETATM   12  C   UNL     1     -12.132  13.624  67.413  1.00  0.00    -0.375 A  
HETATM   13  C   UNL     1     -11.906  14.560  66.398  1.00  0.00    -0.349 A  
HETATM   14  C   UNL     1     -11.395  15.829  66.700  1.00  0.00     0.109 A  
BRANCH  13  15
HETATM   15  S   UNL     1     -12.133  14.082  64.696  1.00  0.00    -0.444 S  
HETATM   16  O   UNL     1     -12.568  15.251  63.961  1.00  0.00    -0.750 OA 
HETATM   17  O   UNL     1     -12.919  12.864  64.692  1.00  0.00    -0.734 OA 
BRANCH  15  18
HETATM   18  N   UNL     1     -10.593  13.636  64.176  1.00  0.00    -0.541 N  
HETATM   19  H   UNL     1      -9.984  14.321  63.731  1.00  0.00     0.000 HD 
BRANCH  18  20
HETATM   20  C   UNL     1     -10.153  12.302  64.363  1.00  0.00    -0.270 A  
HETATM   21  C   UNL     1      -9.925  11.816  65.649  1.00  0.00    -0.271 A  
HETATM   22  C   UNL     1      -9.422  10.526  65.823  1.00  0.00    -0.249 A  
HETATM   23  C   UNL     1      -9.165   9.721  64.713  1.00  0.00    -0.319 A  
HETATM   24  C   UNL     1      -9.410  10.204  63.427  1.00  0.00    -0.334 A  
HETATM   25  C   UNL     1      -9.895  11.500  63.252  1.00  0.00    -0.431 A  
ENDBRANCH  18  20
ENDBRANCH  15  18
ENDBRANCH  13  15
ENDBRANCH   8   9
ENDBRANCH   4   7
TORSDOF 5
ENDMDL
MODEL       34
REMARK 921   NORMALIZED FREE ENERGY PREDICTED BY IDOCK:   -6.52 KCAL/MOL
REMARK 922        TOTAL FREE ENERGY PREDICTED BY IDOCK:   -8.90 KCAL/MOL
REMARK 923 INTER-LIGAND FREE ENERGY PREDICTED BY IDOCK:   -8.28 KCAL/MOL
REMARK 924 INTRA-LIGAND FREE ENERGY PREDICTED BY IDOCK:   -0.62 KCAL/MOL
REMARK 927      BINDING AFFINITY PREDICTED BY RF-SCORE:    0.00 PKD
ROOT
HETATM    1  O   UNL     1     -14.402  15.455  70.936  1.00  0.00    -0.844 OA 
HETATM    2  N   UNL     1     -14.296  14.370  71.821  1.00  0.00    -0.497 N  
HETATM    3  H   UNL     1     -15.009  16.169  71.093  1.00  0.00     0.000 HD 
HETATM    4  C   UNL     1     -13.425  13.344  71.596  1.00  0.00    -0.299 C  
HETATM    5  H   UNL     1     -14.886  14.348  72.653  1.00  0.00     0.000 HD 
HETATM    6  O   UNL     1     -13.390  12.369  72.339  1.00  0.00    -0.481 OA 
ENDROOT
BRANCH   4   7
HETATM    7  C   UNL     1     -12.536  13.479  70.417  1.00  0.00    -0.345 C  
HETATM    8  C   UNL     1     -11.936  12.404  69.884  1.00  0.00    -0.369 C  
BRANCH   8   9
HETATM    9  C   UNL     1     -11.058  12.539  68.723  1.00  0.00    -0.314 A  
HETATM   10  C   UNL     1     -10.186  11.498  68.382  1.00  0.00    -0.211 A  
HETATM   11  C   UNL     1      -9.299  11.641  67.311  1.00  0.00    -0.170 A  
HETATM   12  C   UNL     1      -9.272  12.827  66.578  1.00  0.00    -0.190 A  
HETATM   13  C   UNL     1     -10.151  13.864  66.908  1.00  0.00    -0.260 A  
HETATM   14  C   UNL     1     -11.040  13.728  67.982  1.00  0.00    -0.284 A  
BRANCH  13  15
HETATM   15  S   UNL     1     -10.036  15.421  66.047  1.00  0.00    -0.353 S  
HETATM   16  O   UNL     1     -10.711  15.274  64.775  1.00  0.00    -0.410 OA 
HETATM   17  O   UNL     1      -8.653  15.847  66.113  1.00  0.00    -0.330 OA 
BRANCH  15  18
HETATM   18  N   UNL     1     -10.896  16.499  67.015  1.00  0.00    -0.186 N  
HETATM   19  H   UNL     1     -11.707  16.181  67.544  1.00  0.00     0.000 HD 
BRANCH  18  20
HETATM   20  C   UNL     1     -10.483  17.853  67.087  1.00  0.00    -0.353 A  
HETATM   21  C   UNL     1     -10.532  18.659  65.952  1.00  0.00    -0.395 A  
HETATM   22  C   UNL     1     -10.055  19.970  66.012  1.00  0.00    -0.559 A  
HETATM   23  C   UNL     1      -9.548  20.475  67.209  1.00  0.00    -0.580 A  
HETATM   24  C   UNL     1      -9.516  19.670  68.349  1.00  0.00    -0.452 A  
HETATM   25  C   UNL     1      -9.975  18.355  68.285  1.00  0.00    -0.394 A  
ENDBRANCH  18  20
ENDBRANCH  15  18
ENDBRANCH  13  15
ENDBRANCH   8   9
ENDBRANCH   4   7
TORSDOF 5
ENDMDL
MODEL       35
REMARK 921   NORMALIZED FREE ENERGY PREDICTED BY IDOCK:   -6.51 KCAL/MOL
REMARK 922        TOTAL FREE ENERGY PREDICTED BY IDOCK:   -8.89 KCAL/MOL
REMARK 923 INTER-LIGAND FREE ENERGY PREDICTED BY IDOCK:   -8.26 KCAL/MOL
REMARK 924 INTRA-LIGAND FREE ENERGY PREDICTED BY IDOCK:   -0.63 KCAL/MOL
REMARK 927      BINDING AFFINITY PREDICTED BY RF-SCORE:    0.00 PKD
ROOT
HETATM    1  O   UNL     1     -11.820  15.309  63.847  1.00  0.00    -0.876 OA 
HETATM    2  N   UNL     1     -12.622  14.266  63.358  1.00  0.00    -1.004 N  
HETATM    3  H   UNL     1     -12.007  16.219  63.646  1.00  0.00     0.000 HD 
HETATM    4  C   UNL     1     -12.352  12.960  63.646  1.00  0.00    -0.434 C  
HETATM    5  H   UNL     1     -13.426  14.490  62.772  1.00  0.00     0.000 HD 
HETATM    6  O   UNL     1     -13.020  12.053  63.159  1.00  0.00    -0.662 OA 
ENDROOT
BRANCH   4   7
HETATM    7  C   UNL     1     -11.223  12.707  64.574  1.00  0.00    -0.375 C  
HETATM    8  C   UNL     1     -11.441  12.196  65.795  1.00  0.00    -0.414 C  
BRANCH   8   9
HETATM    9  C   UNL     1     -10.327  11.948  66.709  1.00  0.00    -0.238 A  
HETATM   10  C   UNL     1      -9.261  12.854  66.772  1.00  0.00    -0.230 A  
HETATM   11  C   UNL     1      -8.162  12.596  67.596  1.00  0.00    -0.174 A  
HETATM   12  C   UNL     1      -8.116  11.427  68.357  1.00  0.00    -0.145 A  
HETATM   13  C   UNL     1      -9.186  10.527  68.306  1.00  0.00    -0.152 A  
HETATM   14  C   UNL     1     -10.289  10.779  67.479  1.00  0.00    -0.244 A  
BRANCH  13  15
HETATM   15  S   UNL     1      -9.076   8.981  69.185  1.00  0.00    -0.142 S  
HETATM   16  O   UNL     1      -7.705   8.522  69.104  1.00  0.00    -0.088 OA 
HETATM   17  O   UNL     1     -10.169   8.147  68.728  1.00  0.00    -0.199 OA 
BRANCH  15  18
HETATM   18  N   UNL     1      -9.438   9.379  70.781  1.00  0.00    -0.261 N  
HETATM   19  H   UNL     1      -8.690   9.591  71.440  1.00  0.00     0.000 HD 
BRANCH  18  20
HETATM   20  C   UNL     1     -10.792   9.415  71.201  1.00  0.00    -0.357 A  
HETATM   21  C   UNL     1     -11.623  10.454  70.786  1.00  0.00    -0.450 A  
HETATM   22  C   UNL     1     -12.934  10.524  71.261  1.00  0.00    -0.532 A  
HETATM   23  C   UNL     1     -13.413   9.547  72.134  1.00  0.00    -0.535 A  
HETATM   24  C   UNL     1     -12.584   8.500  72.535  1.00  0.00    -0.346 A  
HETATM   25  C   UNL     1     -11.268   8.439  72.075  1.00  0.00    -0.404 A  
ENDBRANCH  18  20
ENDBRANCH  15  18
ENDBRANCH  13  15
ENDBRANCH   8   9
ENDBRANCH   4   7
TORSDOF 5
ENDMDL
MODEL       36
REMARK 921   NORMALIZED FREE ENERGY PREDICTED BY IDOCK:   -6.50 KCAL/MOL
REMARK 922        TOTAL FREE ENERGY PREDICTED BY IDOCK:   -8.88 KCAL/MOL
REMARK 923 INTER-LIGAND FREE ENERGY PREDICTED BY IDOCK:   -8.20 KCAL/MOL
REMARK 924 INTRA-LIGAND FREE ENERGY PREDICTED BY IDOCK:   -0.67 KCAL/MOL
REMARK 927      BINDING AFFINITY PREDICTED BY RF-SCORE:    0.00 PKD
ROOT
HETATM    1  O   UNL     1     -11.430   7.700  69.525  1.00  0.00    -0.442 OA 
HETATM    2  N   UNL     1     -11.467   7.263  70.859  1.00  0.00    -0.283 N  
HETATM    3  H   UNL     1     -11.428   7.087  68.799  1.00  0.00     0.000 HD 
HETATM    4  C   UNL     1     -11.469   8.144  71.901  1.00  0.00    -0.299 C  
HETATM    5  H   UNL     1     -11.493   6.262  71.054  1.00  0.00     0.000 HD 
HETATM    6  O   UNL     1     -11.434   7.750  73.062  1.00  0.00    -0.372 OA 
ENDROOT
BRANCH   4   7
HETATM    7  C   UNL     1     -11.520   9.584  71.550  1.00  0.00    -0.466 C  
HETATM    8  C   UNL     1     -12.650  10.288  71.707  1.00  0.00    -0.488 C  
BRANCH   8   9
HETATM    9  C   UNL     1     -12.698  11.707  71.359  1.00  0.00    -0.445 A  
HETATM   10  C   UNL     1     -13.503  12.581  72.101  1.00  0.00    -0.523 A  
HETATM   11  C   UNL     1     -13.605  13.927  71.740  1.00  0.00    -0.466 A  
HETATM   12  C   UNL     1     -12.910  14.409  70.630  1.00  0.00    -0.390 A  
HETATM   13  C   UNL     1     -12.095  13.542  69.894  1.00  0.00    -0.341 A  
HETATM   14  C   UNL     1     -11.991  12.190  70.250  1.00  0.00    -0.389 A  
BRANCH  13  15
HETATM   15  S   UNL     1     -11.301  14.128  68.410  1.00  0.00    -0.306 S  
HETATM   16  O   UNL     1      -9.900  13.772  68.488  1.00  0.00    -0.226 OA 
HETATM   17  O   UNL     1     -11.711  15.505  68.219  1.00  0.00    -0.360 OA 
BRANCH  15  18
HETATM   18  N   UNL     1     -12.033  13.255  67.170  1.00  0.00    -0.367 N  
HETATM   19  H   UNL     1     -12.970  13.500  66.852  1.00  0.00     0.000 HD 
BRANCH  18  20
HETATM   20  C   UNL     1     -11.335  12.176  66.571  1.00  0.00    -0.350 A  
HETATM   21  C   UNL     1     -11.147  10.989  67.276  1.00  0.00    -0.359 A  
HETATM   22  C   UNL     1     -10.397   9.958  66.708  1.00  0.00    -0.285 A  
HETATM   23  C   UNL     1      -9.852  10.110  65.433  1.00  0.00    -0.375 A  
HETATM   24  C   UNL     1     -10.056  11.294  64.723  1.00  0.00    -0.338 A  
HETATM   25  C   UNL     1     -10.790  12.332  65.296  1.00  0.00    -0.332 A  
ENDBRANCH  18  20
ENDBRANCH  15  18
ENDBRANCH  13  15
ENDBRANCH   8   9
ENDBRANCH   4   7
TORSDOF 5
ENDMDL
MODEL       37
REMARK 921   NORMALIZED FREE ENERGY PREDICTED BY IDOCK:   -6.50 KCAL/MOL
REMARK 922        TOTAL FREE ENERGY PREDICTED BY IDOCK:   -8.88 KCAL/MOL
REMARK 923 INTER-LIGAND FREE ENERGY PREDICTED BY IDOCK:   -8.55 KCAL/MOL
REMARK 924 INTRA-LIGAND FREE ENERGY PREDICTED BY IDOCK:   -0.32 KCAL/MOL
REMARK 927      BINDING AFFINITY PREDICTED BY RF-SCORE:    0.00 PKD
ROOT
HETATM    1  O   UNL     1     -12.634  14.241  63.225  1.00  0.00    -1.069 OA 
HETATM    2  N   UNL     1     -12.026  15.346  63.839  1.00  0.00    -0.972 N  
HETATM    3  H   UNL     1     -13.400  14.337  62.670  1.00  0.00     0.000 HD 
HETATM    4  C   UNL     1     -10.927  15.208  64.636  1.00  0.00    -0.303 C  
HETATM    5  H   UNL     1     -12.415  16.276  63.687  1.00  0.00     0.000 HD 
HETATM    6  O   UNL     1     -10.444  16.171  65.222  1.00  0.00    -0.499 OA 
ENDROOT
BRANCH   4   7
HETATM    7  C   UNL     1     -10.358  13.842  64.746  1.00  0.00    -0.419 C  
HETATM    8  C   UNL     1     -10.731  13.023  65.740  1.00  0.00    -0.291 C  
BRANCH   8   9
HETATM    9  C   UNL     1     -10.169  11.678  65.848  1.00  0.00    -0.277 A  
HETATM   10  C   UNL     1      -9.858  10.956  64.689  1.00  0.00    -0.350 A  
HETATM   11  C   UNL     1      -9.379   9.646  64.779  1.00  0.00    -0.286 A  
HETATM   12  C   UNL     1      -9.214   9.045  66.028  1.00  0.00    -0.284 A  
HETATM   13  C   UNL     1      -9.511   9.768  67.188  1.00  0.00    -0.154 A  
HETATM   14  C   UNL     1      -9.995  11.081  67.103  1.00  0.00    -0.218 A  
BRANCH  13  15
HETATM   15  S   UNL     1      -9.413   8.963  68.775  1.00  0.00    -0.145 S  
HETATM   16  O   UNL     1      -8.026   8.627  69.015  1.00  0.00    -0.110 OA 
HETATM   17  O   UNL     1     -10.442   7.944  68.805  1.00  0.00    -0.207 OA 
BRANCH  15  18
HETATM   18  N   UNL     1      -9.901  10.142  69.875  1.00  0.00    -0.369 N  
HETATM   19  H   UNL     1      -9.461  11.061  69.871  1.00  0.00     0.000 HD 
BRANCH  18  20
HETATM   20  C   UNL     1     -10.929   9.845  70.805  1.00  0.00    -0.337 A  
HETATM   21  C   UNL     1     -10.780   8.782  71.693  1.00  0.00    -0.397 A  
HETATM   22  C   UNL     1     -11.825   8.450  72.557  1.00  0.00    -0.427 A  
HETATM   23  C   UNL     1     -13.006   9.191  72.542  1.00  0.00    -0.416 A  
HETATM   24  C   UNL     1     -13.146  10.266  71.663  1.00  0.00    -0.553 A  
HETATM   25  C   UNL     1     -12.109  10.588  70.787  1.00  0.00    -0.470 A  
ENDBRANCH  18  20
ENDBRANCH  15  18
ENDBRANCH  13  15
ENDBRANCH   8   9
ENDBRANCH   4   7
TORSDOF 5
ENDMDL
MODEL       38
REMARK 921   NORMALIZED FREE ENERGY PREDICTED BY IDOCK:   -6.48 KCAL/MOL
REMARK 922        TOTAL FREE ENERGY PREDICTED BY IDOCK:   -8.85 KCAL/MOL
REMARK 923 INTER-LIGAND FREE ENERGY PREDICTED BY IDOCK:   -8.18 KCAL/MOL
REMARK 924 INTRA-LIGAND FREE ENERGY PREDICTED BY IDOCK:   -0.67 KCAL/MOL
REMARK 927      BINDING AFFINITY PREDICTED BY RF-SCORE:    0.00 PKD
ROOT
HETATM    1  O   UNL     1     -14.048  13.545  72.693  1.00  0.00    -0.762 OA 
HETATM    2  N   UNL     1     -13.500  14.832  72.807  1.00  0.00    -0.469 N  
HETATM    3  H   UNL     1     -14.722  13.235  73.287  1.00  0.00     0.000 HD 
HETATM    4  C   UNL     1     -12.533  15.277  71.954  1.00  0.00    -0.353 C  
HETATM    5  H   UNL     1     -13.833  15.450  73.547  1.00  0.00     0.000 HD 
HETATM    6  O   UNL     1     -12.014  16.378  72.105  1.00  0.00    -0.509 OA 
ENDROOT
BRANCH   4   7
HETATM    7  C   UNL     1     -12.155  14.364  70.848  1.00  0.00    -0.414 C  
HETATM    8  C   UNL     1     -12.064  14.814  69.589  1.00  0.00    -0.346 C  
BRANCH   8   9
HETATM    9  C   UNL     1     -11.692  13.912  68.499  1.00  0.00    -0.390 A  
HETATM   10  C   UNL     1     -12.119  14.183  67.193  1.00  0.00    -0.432 A  
HETATM   11  C   UNL     1     -11.822  13.295  66.155  1.00  0.00    -0.437 A  
HETATM   12  C   UNL     1     -11.105  12.127  66.415  1.00  0.00    -0.358 A  
HETATM   13  C   UNL     1     -10.666  11.861  67.717  1.00  0.00    -0.207 A  
HETATM   14  C   UNL     1     -10.963  12.746  68.762  1.00  0.00    -0.289 A  
BRANCH  13  15
HETATM   15  S   UNL     1      -9.853  10.315  68.072  1.00  0.00    -0.154 S  
HETATM   16  O   UNL     1      -8.533  10.364  67.479  1.00  0.00    -0.115 OA 
HETATM   17  O   UNL     1     -10.781   9.254  67.737  1.00  0.00    -0.259 OA 
BRANCH  15  18
HETATM   18  N   UNL     1      -9.711  10.290  69.750  1.00  0.00    -0.393 N  
HETATM   19  H   UNL     1      -8.905  10.718  70.203  1.00  0.00     0.000 HD 
BRANCH  18  20
HETATM   20  C   UNL     1     -10.722   9.670  70.526  1.00  0.00    -0.311 A  
HETATM   21  C   UNL     1     -11.886  10.368  70.843  1.00  0.00    -0.475 A  
HETATM   22  C   UNL     1     -12.845   9.778  71.668  1.00  0.00    -0.519 A  
HETATM   23  C   UNL     1     -12.645   8.488  72.159  1.00  0.00    -0.431 A  
HETATM   24  C   UNL     1     -11.487   7.785  71.826  1.00  0.00    -0.307 A  
HETATM   25  C   UNL     1     -10.519   8.380  71.017  1.00  0.00    -0.251 A  
ENDBRANCH  18  20
ENDBRANCH  15  18
ENDBRANCH  13  15
ENDBRANCH   8   9
ENDBRANCH   4   7
TORSDOF 5
ENDMDL
MODEL       39
REMARK 921   NORMALIZED FREE ENERGY PREDICTED BY IDOCK:   -6.47 KCAL/MOL
REMARK 922        TOTAL FREE ENERGY PREDICTED BY IDOCK:   -8.83 KCAL/MOL
REMARK 923 INTER-LIGAND FREE ENERGY PREDICTED BY IDOCK:   -8.32 KCAL/MOL
REMARK 924 INTRA-LIGAND FREE ENERGY PREDICTED BY IDOCK:   -0.51 KCAL/MOL
REMARK 927      BINDING AFFINITY PREDICTED BY RF-SCORE:    0.00 PKD
ROOT
HETATM    1  O   UNL     1     -11.770   8.233  70.021  1.00  0.00    -0.456 OA 
HETATM    2  N   UNL     1     -10.700   7.792  69.226  1.00  0.00    -0.350 N  
HETATM    3  H   UNL     1     -12.087   7.724  70.759  1.00  0.00     0.000 HD 
HETATM    4  C   UNL     1     -10.246   8.523  68.167  1.00  0.00    -0.208 C  
HETATM    5  H   UNL     1     -10.251   6.903  69.446  1.00  0.00     0.000 HD 
HETATM    6  O   UNL     1      -9.356   8.096  67.439  1.00  0.00    -0.137 OA 
ENDROOT
BRANCH   4   7
HETATM    7  C   UNL     1     -10.883   9.846  67.955  1.00  0.00    -0.312 C  
HETATM    8  C   UNL     1     -10.533  10.615  66.914  1.00  0.00    -0.304 C  
BRANCH   8   9
HETATM    9  C   UNL     1     -11.161  11.919  66.707  1.00  0.00    -0.359 A  
HETATM   10  C   UNL     1     -11.961  12.137  65.578  1.00  0.00    -0.290 A  
HETATM   11  C   UNL     1     -12.515  13.397  65.338  1.00  0.00    -0.543 A  
HETATM   12  C   UNL     1     -12.268  14.451  66.218  1.00  0.00    -0.366 A  
HETATM   13  C   UNL     1     -11.480  14.233  67.353  1.00  0.00    -0.347 A  
HETATM   14  C   UNL     1     -10.919  12.972  67.598  1.00  0.00    -0.277 A  
BRANCH  13  15
HETATM   15  S   UNL     1     -11.068  15.605  68.414  1.00  0.00    -0.343 S  
HETATM   16  O   UNL     1     -10.816  16.755  67.572  1.00  0.00    -0.307 OA 
HETATM   17  O   UNL     1     -10.070  15.137  69.354  1.00  0.00    -0.234 OA 
BRANCH  15  18
HETATM   18  N   UNL     1     -12.464  15.869  69.319  1.00  0.00    -0.416 N  
HETATM   19  H   UNL     1     -13.260  16.353  68.905  1.00  0.00     0.000 HD 
BRANCH  18  20
HETATM   20  C   UNL     1     -12.522  15.415  70.660  1.00  0.00    -0.428 A  
HETATM   21  C   UNL     1     -13.228  14.255  70.974  1.00  0.00    -0.367 A  
HETATM   22  C   UNL     1     -13.343  13.853  72.305  1.00  0.00    -0.599 A  
HETATM   23  C   UNL     1     -12.738  14.600  73.316  1.00  0.00    -0.552 A  
HETATM   24  C   UNL     1     -12.017  15.752  72.997  1.00  0.00    -0.596 A  
HETATM   25  C   UNL     1     -11.917  16.165  71.669  1.00  0.00    -0.528 A  
ENDBRANCH  18  20
ENDBRANCH  15  18
ENDBRANCH  13  15
ENDBRANCH   8   9
ENDBRANCH   4   7
TORSDOF 5
ENDMDL
MODEL       40
REMARK 921   NORMALIZED FREE ENERGY PREDICTED BY IDOCK:   -6.46 KCAL/MOL
REMARK 922        TOTAL FREE ENERGY PREDICTED BY IDOCK:   -8.82 KCAL/MOL
REMARK 923 INTER-LIGAND FREE ENERGY PREDICTED BY IDOCK:   -8.33 KCAL/MOL
REMARK 924 INTRA-LIGAND FREE ENERGY PREDICTED BY IDOCK:   -0.49 KCAL/MOL
REMARK 927      BINDING AFFINITY PREDICTED BY RF-SCORE:    0.00 PKD
ROOT
HETATM    1  O   UNL     1      -9.531  20.392  65.705  1.00  0.00    -0.614 OA 
HETATM    2  N   UNL     1      -9.566  20.519  67.103  1.00  0.00    -0.544 N  
HETATM    3  H   UNL     1      -9.171  21.075  65.151  1.00  0.00     0.000 HD 
HETATM    4  C   UNL     1     -10.083  19.539  67.898  1.00  0.00    -0.417 C  
HETATM    5  H   UNL     1      -9.195  21.366  67.534  1.00  0.00     0.000 HD 
HETATM    6  O   UNL     1     -10.170  19.689  69.112  1.00  0.00    -0.394 OA 
ENDROOT
BRANCH   4   7
HETATM    7  C   UNL     1     -10.524  18.298  67.216  1.00  0.00    -0.419 C  
HETATM    8  C   UNL     1      -9.756  17.198  67.231  1.00  0.00    -0.254 C  
BRANCH   8   9
HETATM    9  C   UNL     1     -10.192  15.976  66.557  1.00  0.00    -0.301 A  
HETATM   10  C   UNL     1     -10.706  16.041  65.256  1.00  0.00    -0.417 A  
HETATM   11  C   UNL     1     -11.183  14.888  64.626  1.00  0.00    -0.349 A  
HETATM   12  C   UNL     1     -11.156  13.663  65.294  1.00  0.00    -0.307 A  
HETATM   13  C   UNL     1     -10.630  13.593  66.588  1.00  0.00    -0.277 A  
HETATM   14  C   UNL     1     -10.154  14.746  67.226  1.00  0.00    -0.236 A  
BRANCH  13  15
HETATM   15  S   UNL     1     -10.703  12.053  67.484  1.00  0.00    -0.236 S  
HETATM   16  O   UNL     1      -9.503  11.305  67.176  1.00  0.00    -0.168 OA 
HETATM   17  O   UNL     1     -12.015  11.484  67.255  1.00  0.00    -0.605 OA 
BRANCH  15  18
HETATM   18  N   UNL     1     -10.677  12.509  69.105  1.00  0.00    -0.435 N  
HETATM   19  H   UNL     1     -10.073  13.270  69.415  1.00  0.00     0.000 HD 
BRANCH  18  20
HETATM   20  C   UNL     1     -11.500  11.827  70.035  1.00  0.00    -0.151 A  
HETATM   21  C   UNL     1     -12.457  12.528  70.766  1.00  0.00    -0.357 A  
HETATM   22  C   UNL     1     -13.214  11.864  71.732  1.00  0.00    -0.426 A  
HETATM   23  C   UNL     1     -13.024  10.499  71.952  1.00  0.00    -0.553 A  
HETATM   24  C   UNL     1     -12.077   9.796  71.207  1.00  0.00    -0.470 A  
HETATM   25  C   UNL     1     -11.307  10.463  70.254  1.00  0.00    -0.406 A  
ENDBRANCH  18  20
ENDBRANCH  15  18
ENDBRANCH  13  15
ENDBRANCH   8   9
ENDBRANCH   4   7
TORSDOF 5
ENDMDL
MODEL       41
REMARK 921   NORMALIZED FREE ENERGY PREDICTED BY IDOCK:   -6.46 KCAL/MOL
REMARK 922        TOTAL FREE ENERGY PREDICTED BY IDOCK:   -8.81 KCAL/MOL
REMARK 923 INTER-LIGAND FREE ENERGY PREDICTED BY IDOCK:   -8.22 KCAL/MOL
REMARK 924 INTRA-LIGAND FREE ENERGY PREDICTED BY IDOCK:   -0.59 KCAL/MOL
REMARK 927      BINDING AFFINITY PREDICTED BY RF-SCORE:    0.00 PKD
ROOT
HETATM    1  O   UNL     1     -10.520  20.552  68.048  1.00  0.00    -0.183 OA 
HETATM    2  N   UNL     1      -9.442  20.707  67.162  1.00  0.00    -0.609 N  
HETATM    3  H   UNL     1     -10.779  21.245  68.645  1.00  0.00     0.000 HD 
HETATM    4  C   UNL     1      -9.071  19.713  66.305  1.00  0.00    -0.376 C  
HETATM    5  H   UNL     1      -8.922  21.584  67.160  1.00  0.00     0.000 HD 
HETATM    6  O   UNL     1      -8.086  19.834  65.584  1.00  0.00    -0.384 OA 
ENDROOT
BRANCH   4   7
HETATM    7  C   UNL     1      -9.920  18.497  66.295  1.00  0.00    -0.384 C  
HETATM    8  C   UNL     1      -9.413  17.310  65.931  1.00  0.00    -0.046 C  
BRANCH   8   9
HETATM    9  C   UNL     1     -10.252  16.112  65.922  1.00  0.00    -0.381 A  
HETATM   10  C   UNL     1     -10.925  15.741  64.751  1.00  0.00    -0.410 A  
HETATM   11  C   UNL     1     -11.778  14.634  64.747  1.00  0.00    -0.429 A  
HETATM   12  C   UNL     1     -11.971  13.894  65.914  1.00  0.00    -0.429 A  
HETATM   13  C   UNL     1     -11.289  14.255  67.082  1.00  0.00    -0.337 A  
HETATM   14  C   UNL     1     -10.435  15.366  67.092  1.00  0.00    -0.290 A  
BRANCH  13  15
HETATM   15  S   UNL     1     -11.624  13.383  68.600  1.00  0.00    -0.350 S  
HETATM   16  O   UNL     1     -10.418  13.409  69.400  1.00  0.00     0.071 OA 
HETATM   17  O   UNL     1     -12.256  12.128  68.245  1.00  0.00    -0.356 OA 
BRANCH  15  18
HETATM   18  N   UNL     1     -12.817  14.300  69.357  1.00  0.00    -0.298 N  
HETATM   19  H   UNL     1     -13.648  14.588  68.841  1.00  0.00     0.000 HD 
BRANCH  18  20
HETATM   20  C   UNL     1     -12.656  14.670  70.715  1.00  0.00    -0.350 A  
HETATM   21  C   UNL     1     -13.255  13.912  71.720  1.00  0.00    -0.455 A  
HETATM   22  C   UNL     1     -13.153  14.322  73.050  1.00  0.00    -0.526 A  
HETATM   23  C   UNL     1     -12.440  15.477  73.373  1.00  0.00    -0.631 A  
HETATM   24  C   UNL     1     -11.828  16.225  72.367  1.00  0.00    -0.606 A  
HETATM   25  C   UNL     1     -11.944  15.826  71.035  1.00  0.00    -0.462 A  
ENDBRANCH  18  20
ENDBRANCH  15  18
ENDBRANCH  13  15
ENDBRANCH   8   9
ENDBRANCH   4   7
TORSDOF 5
ENDMDL
MODEL       42
REMARK 921   NORMALIZED FREE ENERGY PREDICTED BY IDOCK:   -6.45 KCAL/MOL
REMARK 922        TOTAL FREE ENERGY PREDICTED BY IDOCK:   -8.80 KCAL/MOL
REMARK 923 INTER-LIGAND FREE ENERGY PREDICTED BY IDOCK:   -8.11 KCAL/MOL
REMARK 924 INTRA-LIGAND FREE ENERGY PREDICTED BY IDOCK:   -0.69 KCAL/MOL
REMARK 927      BINDING AFFINITY PREDICTED BY RF-SCORE:    0.00 PKD
ROOT
HETATM    1  O   UNL     1      -9.658  12.140  63.194  1.00  0.00    -0.617 OA 
HETATM    2  N   UNL     1     -11.048  11.990  63.069  1.00  0.00    -0.662 N  
HETATM    3  H   UNL     1      -9.060  11.839  62.519  1.00  0.00     0.000 HD 
HETATM    4  C   UNL     1     -11.905  12.422  64.038  1.00  0.00    -0.439 C  
HETATM    5  H   UNL     1     -11.427  11.547  62.232  1.00  0.00     0.000 HD 
HETATM    6  O   UNL     1     -13.113  12.225  63.949  1.00  0.00    -0.772 OA 
ENDROOT
BRANCH   4   7
HETATM    7  C   UNL     1     -11.298  13.135  65.188  1.00  0.00    -0.322 C  
HETATM    8  C   UNL     1     -11.869  13.092  66.400  1.00  0.00    -0.465 C  
BRANCH   8   9
HETATM    9  C   UNL     1     -11.269  13.797  67.533  1.00  0.00    -0.316 A  
HETATM   10  C   UNL     1     -12.018  14.015  68.695  1.00  0.00    -0.389 A  
HETATM   11  C   UNL     1     -11.477  14.741  69.760  1.00  0.00    -0.330 A  
HETATM   12  C   UNL     1     -10.186  15.261  69.667  1.00  0.00    -0.253 A  
HETATM   13  C   UNL     1      -9.430  15.034  68.512  1.00  0.00    -0.203 A  
HETATM   14  C   UNL     1      -9.969  14.309  67.441  1.00  0.00    -0.242 A  
BRANCH  13  15
HETATM   15  S   UNL     1      -7.827  15.796  68.346  1.00  0.00    -0.142 S  
HETATM   16  O   UNL     1      -7.598  16.042  66.938  1.00  0.00    -0.212 OA 
HETATM   17  O   UNL     1      -6.894  15.009  69.127  1.00  0.00    -0.112 OA 
BRANCH  15  18
HETATM   18  N   UNL     1      -7.976  17.267  69.153  1.00  0.00    -0.102 N  
HETATM   19  H   UNL     1      -7.690  17.349  70.128  1.00  0.00     0.000 HD 
BRANCH  18  20
HETATM   20  C   UNL     1      -8.503  18.389  68.466  1.00  0.00    -0.325 A  
HETATM   21  C   UNL     1      -7.644  19.353  67.943  1.00  0.00    -0.316 A  
HETATM   22  C   UNL     1      -8.171  20.492  67.332  1.00  0.00    -0.344 A  
HETATM   23  C   UNL     1      -9.553  20.655  67.230  1.00  0.00    -0.558 A  
HETATM   24  C   UNL     1     -10.410  19.679  67.740  1.00  0.00    -0.586 A  
HETATM   25  C   UNL     1      -9.885  18.550  68.367  1.00  0.00    -0.404 A  
ENDBRANCH  18  20
ENDBRANCH  15  18
ENDBRANCH  13  15
ENDBRANCH   8   9
ENDBRANCH   4   7
TORSDOF 5
ENDMDL
MODEL       43
REMARK 921   NORMALIZED FREE ENERGY PREDICTED BY IDOCK:   -6.44 KCAL/MOL
REMARK 922        TOTAL FREE ENERGY PREDICTED BY IDOCK:   -8.80 KCAL/MOL
REMARK 923 INTER-LIGAND FREE ENERGY PREDICTED BY IDOCK:   -8.09 KCAL/MOL
REMARK 924 INTRA-LIGAND FREE ENERGY PREDICTED BY IDOCK:   -0.70 KCAL/MOL
REMARK 927      BINDING AFFINITY PREDICTED BY RF-SCORE:    0.00 PKD
ROOT
HETATM    1  O   UNL     1     -13.105  12.544  63.862  1.00  0.00    -0.728 OA 
HETATM    2  N   UNL     1     -12.247  11.669  63.177  1.00  0.00    -0.966 N  
HETATM    3  H   UNL     1     -14.044  12.537  63.716  1.00  0.00     0.000 HD 
HETATM    4  C   UNL     1     -10.898  11.679  63.387  1.00  0.00    -0.379 C  
HETATM    5  H   UNL     1     -12.640  11.010  62.506  1.00  0.00     0.000 HD 
HETATM    6  O   UNL     1     -10.151  10.958  62.734  1.00  0.00    -0.224 OA 
ENDROOT
BRANCH   4   7
HETATM    7  C   UNL     1     -10.400  12.599  64.438  1.00  0.00    -0.386 C  
HETATM    8  C   UNL     1     -10.078  12.137  65.655  1.00  0.00    -0.274 C  
BRANCH   8   9
HETATM    9  C   UNL     1      -9.587  13.045  66.691  1.00  0.00    -0.259 A  
HETATM   10  C   UNL     1      -8.336  12.821  67.280  1.00  0.00    -0.187 A  
HETATM   11  C   UNL     1      -7.884  13.645  68.314  1.00  0.00    -0.141 A  
HETATM   12  C   UNL     1      -8.681  14.694  68.773  1.00  0.00    -0.166 A  
HETATM   13  C   UNL     1      -9.926  14.928  68.177  1.00  0.00    -0.222 A  
HETATM   14  C   UNL     1     -10.385  14.103  67.142  1.00  0.00    -0.265 A  
BRANCH  13  15
HETATM   15  S   UNL     1     -10.993  16.193  68.840  1.00  0.00    -0.345 S  
HETATM   16  O   UNL     1     -11.085  17.253  67.859  1.00  0.00    -0.276 OA 
HETATM   17  O   UNL     1     -10.549  16.465  70.192  1.00  0.00    -0.251 OA 
BRANCH  15  18
HETATM   18  N   UNL     1     -12.492  15.439  68.992  1.00  0.00    -0.580 N  
HETATM   19  H   UNL     1     -13.155  15.455  68.218  1.00  0.00     0.000 HD 
BRANCH  18  20
HETATM   20  C   UNL     1     -12.824  14.784  70.204  1.00  0.00    -0.148 A  
HETATM   21  C   UNL     1     -13.505  15.473  71.206  1.00  0.00    -0.560 A  
HETATM   22  C   UNL     1     -13.764  14.845  72.425  1.00  0.00    -0.576 A  
HETATM   23  C   UNL     1     -13.358  13.526  72.632  1.00  0.00    -0.546 A  
HETATM   24  C   UNL     1     -12.691  12.834  71.621  1.00  0.00    -0.293 A  
HETATM   25  C   UNL     1     -12.415  13.466  70.409  1.00  0.00    -0.322 A  
ENDBRANCH  18  20
ENDBRANCH  15  18
ENDBRANCH  13  15
ENDBRANCH   8   9
ENDBRANCH   4   7
TORSDOF 5
ENDMDL
MODEL       44
REMARK 921   NORMALIZED FREE ENERGY PREDICTED BY IDOCK:   -6.41 KCAL/MOL
REMARK 922        TOTAL FREE ENERGY PREDICTED BY IDOCK:   -8.76 KCAL/MOL
REMARK 923 INTER-LIGAND FREE ENERGY PREDICTED BY IDOCK:   -8.22 KCAL/MOL
REMARK 924 INTRA-LIGAND FREE ENERGY PREDICTED BY IDOCK:   -0.54 KCAL/MOL
REMARK 927      BINDING AFFINITY PREDICTED BY RF-SCORE:    0.00 PKD
ROOT
HETATM    1  O   UNL     1     -11.419   6.705  66.726  1.00  0.00    -0.776 OA 
HETATM    2  N   UNL     1     -10.047   6.766  66.435  1.00  0.00    -0.430 N  
HETATM    3  H   UNL     1     -11.867   5.876  66.849  1.00  0.00     0.000 HD 
HETATM    4  C   UNL     1      -9.404   7.957  66.260  1.00  0.00    -0.164 C  
HETATM    5  H   UNL     1      -9.518   5.898  66.352  1.00  0.00     0.000 HD 
HETATM    6  O   UNL     1      -8.221   7.996  65.939  1.00  0.00    -0.112 OA 
ENDROOT
BRANCH   4   7
HETATM    7  C   UNL     1     -10.211   9.182  66.480  1.00  0.00    -0.322 C  
HETATM    8  C   UNL     1     -10.182  10.189  65.595  1.00  0.00    -0.288 C  
BRANCH   8   9
HETATM    9  C   UNL     1     -10.977  11.397  65.814  1.00  0.00    -0.256 A  
HETATM   10  C   UNL     1     -11.873  11.831  64.829  1.00  0.00    -0.174 A  
HETATM   11  C   UNL     1     -12.592  13.017  65.001  1.00  0.00    -0.515 A  
HETATM   12  C   UNL     1     -12.415  13.782  66.154  1.00  0.00    -0.466 A  
HETATM   13  C   UNL     1     -11.530  13.344  67.146  1.00  0.00    -0.339 A  
HETATM   14  C   UNL     1     -10.805  12.157  66.977  1.00  0.00    -0.289 A  
BRANCH  13  15
HETATM   15  S   UNL     1     -11.216  14.378  68.563  1.00  0.00    -0.281 S  
HETATM   16  O   UNL     1     -11.907  15.634  68.356  1.00  0.00    -0.346 OA 
HETATM   17  O   UNL     1      -9.789  14.345  68.812  1.00  0.00    -0.232 OA 
BRANCH  15  18
HETATM   18  N   UNL     1     -11.927  13.555  69.849  1.00  0.00    -0.335 N  
HETATM   19  H   UNL     1     -11.975  12.537  69.843  1.00  0.00     0.000 HD 
BRANCH  18  20
HETATM   20  C   UNL     1     -12.456  14.288  70.940  1.00  0.00    -0.354 A  
HETATM   21  C   UNL     1     -13.833  14.327  71.152  1.00  0.00    -0.199 A  
HETATM   22  C   UNL     1     -14.353  15.110  72.184  1.00  0.00    -0.647 A  
HETATM   23  C   UNL     1     -13.495  15.837  73.010  1.00  0.00    -0.672 A  
HETATM   24  C   UNL     1     -12.116  15.782  72.806  1.00  0.00    -0.596 A  
HETATM   25  C   UNL     1     -11.596  15.015  71.763  1.00  0.00    -0.425 A  
ENDBRANCH  18  20
ENDBRANCH  15  18
ENDBRANCH  13  15
ENDBRANCH   8   9
ENDBRANCH   4   7
TORSDOF 5
ENDMDL
MODEL       45
REMARK 921   NORMALIZED FREE ENERGY PREDICTED BY IDOCK:   -6.40 KCAL/MOL
REMARK 922        TOTAL FREE ENERGY PREDICTED BY IDOCK:   -8.74 KCAL/MOL
REMARK 923 INTER-LIGAND FREE ENERGY PREDICTED BY IDOCK:   -8.15 KCAL/MOL
REMARK 924 INTRA-LIGAND FREE ENERGY PREDICTED BY IDOCK:   -0.60 KCAL/MOL
REMARK 927      BINDING AFFINITY PREDICTED BY RF-SCORE:    0.00 PKD
ROOT
HETATM    1  O   UNL     1     -10.912  16.318  64.922  1.00  0.00    -0.565 OA 
HETATM    2  N   UNL     1     -11.618  15.622  63.929  1.00  0.00    -0.789 N  
HETATM    3  H   UNL     1     -10.574  17.194  64.774  1.00  0.00     0.000 HD 
HETATM    4  C   UNL     1     -12.103  14.364  64.142  1.00  0.00    -0.376 C  
HETATM    5  H   UNL     1     -11.773  16.067  63.024  1.00  0.00     0.000 HD 
HETATM    6  O   UNL     1     -12.659  13.740  63.245  1.00  0.00    -0.830 OA 
ENDROOT
BRANCH   4   7
HETATM    7  C   UNL     1     -11.921  13.809  65.506  1.00  0.00    -0.404 C  
HETATM    8  C   UNL     1     -11.587  12.522  65.682  1.00  0.00    -0.435 C  
BRANCH   8   9
HETATM    9  C   UNL     1     -11.409  11.976  67.026  1.00  0.00    -0.396 A  
HETATM   10  C   UNL     1     -11.449  12.828  68.137  1.00  0.00    -0.357 A  
HETATM   11  C   UNL     1     -11.218  12.326  69.421  1.00  0.00    -0.243 A  
HETATM   12  C   UNL     1     -10.939  10.971  69.604  1.00  0.00    -0.286 A  
HETATM   13  C   UNL     1     -10.912  10.115  68.498  1.00  0.00    -0.232 A  
HETATM   14  C   UNL     1     -11.139  10.613  67.208  1.00  0.00    -0.313 A  
BRANCH  13  15
HETATM   15  S   UNL     1     -10.441   8.410  68.716  1.00  0.00    -0.134 S  
HETATM   16  O   UNL     1      -9.171   8.388  69.411  1.00  0.00    -0.153 OA 
HETATM   17  O   UNL     1     -10.601   7.752  67.436  1.00  0.00    -0.274 OA 
BRANCH  15  18
HETATM   18  N   UNL     1     -11.636   7.769  69.715  1.00  0.00    -0.389 N  
HETATM   19  H   UNL     1     -12.609   7.760  69.411  1.00  0.00     0.000 HD 
BRANCH  18  20
HETATM   20  C   UNL     1     -11.278   7.244  70.982  1.00  0.00    -0.266 A  
HETATM   21  C   UNL     1     -11.161   8.092  72.082  1.00  0.00    -0.393 A  
HETATM   22  C   UNL     1     -10.738   7.580  73.309  1.00  0.00    -0.437 A  
HETATM   23  C   UNL     1     -10.450   6.221  73.438  1.00  0.00    -0.273 A  
HETATM   24  C   UNL     1     -10.584   5.372  72.339  1.00  0.00    -0.276 A  
HETATM   25  C   UNL     1     -10.990   5.885  71.108  1.00  0.00    -0.327 A  
ENDBRANCH  18  20
ENDBRANCH  15  18
ENDBRANCH  13  15
ENDBRANCH   8   9
ENDBRANCH   4   7
TORSDOF 5
ENDMDL
MODEL       46
REMARK 921   NORMALIZED FREE ENERGY PREDICTED BY IDOCK:   -6.38 KCAL/MOL
REMARK 922        TOTAL FREE ENERGY PREDICTED BY IDOCK:   -8.72 KCAL/MOL
REMARK 923 INTER-LIGAND FREE ENERGY PREDICTED BY IDOCK:   -8.12 KCAL/MOL
REMARK 924 INTRA-LIGAND FREE ENERGY PREDICTED BY IDOCK:   -0.60 KCAL/MOL
REMARK 927      BINDING AFFINITY PREDICTED BY RF-SCORE:    0.00 PKD
ROOT
HETATM    1  O   UNL     1      -9.623  11.598  63.287  1.00  0.00    -0.433 OA 
HETATM    2  N   UNL     1     -10.978  11.419  62.965  1.00  0.00    -0.825 N  
HETATM    3  H   UNL     1      -8.934  11.150  62.810  1.00  0.00     0.000 HD 
HETATM    4  C   UNL     1     -11.968  12.062  63.650  1.00  0.00    -0.515 C  
HETATM    5  H   UNL     1     -11.229  10.793  62.201  1.00  0.00     0.000 HD 
HETATM    6  O   UNL     1     -13.150  11.846  63.405  1.00  0.00    -0.710 OA 
ENDROOT
BRANCH   4   7
HETATM    7  C   UNL     1     -11.534  13.025  64.691  1.00  0.00    -0.374 C  
HETATM    8  C   UNL     1     -11.773  14.337  64.553  1.00  0.00    -0.431 C  
BRANCH   8   9
HETATM    9  C   UNL     1     -11.344  15.285  65.579  1.00  0.00    -0.220 A  
HETATM   10  C   UNL     1     -10.664  16.453  65.211  1.00  0.00    -0.312 A  
HETATM   11  C   UNL     1     -10.195  17.336  66.187  1.00  0.00    -0.338 A  
HETATM   12  C   UNL     1     -10.393  17.055  67.539  1.00  0.00    -0.329 A  
HETATM   13  C   UNL     1     -11.083  15.896  67.910  1.00  0.00    -0.317 A  
HETATM   14  C   UNL     1     -11.553  15.005  66.936  1.00  0.00    -0.229 A  
BRANCH  13  15
HETATM   15  S   UNL     1     -11.234  15.477  69.636  1.00  0.00    -0.332 S  
HETATM   16  O   UNL     1     -11.496  16.699  70.366  1.00  0.00    -0.128 OA 
HETATM   17  O   UNL     1     -10.106  14.634  69.975  1.00  0.00     0.138 OA 
BRANCH  15  18
HETATM   18  N   UNL     1     -12.591  14.482  69.709  1.00  0.00    -0.548 N  
HETATM   19  H   UNL     1     -13.511  14.848  69.468  1.00  0.00     0.000 HD 
BRANCH  18  20
HETATM   20  C   UNL     1     -12.444  13.130  70.110  1.00  0.00    -0.122 A  
HETATM   21  C   UNL     1     -11.900  12.197  69.229  1.00  0.00    -0.370 A  
HETATM   22  C   UNL     1     -11.825  10.854  69.603  1.00  0.00    -0.416 A  
HETATM   23  C   UNL     1     -12.276  10.452  70.861  1.00  0.00    -0.484 A  
HETATM   24  C   UNL     1     -12.805  11.392  71.747  1.00  0.00    -0.449 A  
HETATM   25  C   UNL     1     -12.897  12.731  71.367  1.00  0.00    -0.371 A  
ENDBRANCH  18  20
ENDBRANCH  15  18
ENDBRANCH  13  15
ENDBRANCH   8   9
ENDBRANCH   4   7
TORSDOF 5
ENDMDL
MODEL       47
REMARK 921   NORMALIZED FREE ENERGY PREDICTED BY IDOCK:   -6.37 KCAL/MOL
REMARK 922        TOTAL FREE ENERGY PREDICTED BY IDOCK:   -8.70 KCAL/MOL
REMARK 923 INTER-LIGAND FREE ENERGY PREDICTED BY IDOCK:   -8.04 KCAL/MOL
REMARK 924 INTRA-LIGAND FREE ENERGY PREDICTED BY IDOCK:   -0.67 KCAL/MOL
REMARK 927      BINDING AFFINITY PREDICTED BY RF-SCORE:    0.00 PKD
ROOT
HETATM    1  O   UNL     1     -12.548  12.383  63.191  1.00  0.00    -0.743 OA 
HETATM    2  N   UNL     1     -12.434  13.775  63.047  1.00  0.00    -1.000 N  
HETATM    3  H   UNL     1     -12.510  11.799  62.442  1.00  0.00     0.000 HD 
HETATM    4  C   UNL     1     -12.489  14.613  64.122  1.00  0.00    -0.147 C  
HETATM    5  H   UNL     1     -12.307  14.169  62.115  1.00  0.00     0.000 HD 
HETATM    6  O   UNL     1     -12.456  15.831  63.977  1.00  0.00    -0.698 OA 
ENDROOT
BRANCH   4   7
HETATM    7  C   UNL     1     -12.586  13.972  65.456  1.00  0.00    -0.543 C  
HETATM    8  C   UNL     1     -11.803  14.374  66.468  1.00  0.00    -0.406 C  
BRANCH   8   9
HETATM    9  C   UNL     1     -11.899  13.740  67.782  1.00  0.00    -0.404 A  
HETATM   10  C   UNL     1     -12.310  14.491  68.891  1.00  0.00    -0.091 A  
HETATM   11  C   UNL     1     -12.346  13.912  70.162  1.00  0.00    -0.400 A  
HETATM   12  C   UNL     1     -11.964  12.582  70.337  1.00  0.00    -0.335 A  
HETATM   13  C   UNL     1     -11.566  11.825  69.229  1.00  0.00    -0.315 A  
HETATM   14  C   UNL     1     -11.526  12.401  67.952  1.00  0.00    -0.385 A  
BRANCH  13  15
HETATM   15  S   UNL     1     -10.968  10.164  69.468  1.00  0.00    -0.267 S  
HETATM   16  O   UNL     1     -11.694   9.588  70.581  1.00  0.00    -0.270 OA 
HETATM   17  O   UNL     1      -9.521  10.224  69.474  1.00  0.00    -0.214 OA 
BRANCH  15  18
HETATM   18  N   UNL     1     -11.389   9.358  68.050  1.00  0.00    -0.351 N  
HETATM   19  H   UNL     1     -12.365   9.143  67.852  1.00  0.00     0.000 HD 
BRANCH  18  20
HETATM   20  C   UNL     1     -10.374   8.981  67.135  1.00  0.00    -0.272 A  
HETATM   21  C   UNL     1     -10.009   9.843  66.104  1.00  0.00    -0.331 A  
HETATM   22  C   UNL     1      -9.061   9.436  65.163  1.00  0.00    -0.280 A  
HETATM   23  C   UNL     1      -8.470   8.177  65.267  1.00  0.00    -0.157 A  
HETATM   24  C   UNL     1      -8.826   7.322  66.311  1.00  0.00    -0.179 A  
HETATM   25  C   UNL     1      -9.786   7.720  67.241  1.00  0.00    -0.249 A  
ENDBRANCH  18  20
ENDBRANCH  15  18
ENDBRANCH  13  15
ENDBRANCH   8   9
ENDBRANCH   4   7
TORSDOF 5
ENDMDL
MODEL       48
REMARK 921   NORMALIZED FREE ENERGY PREDICTED BY IDOCK:   -6.36 KCAL/MOL
REMARK 922        TOTAL FREE ENERGY PREDICTED BY IDOCK:   -8.69 KCAL/MOL
REMARK 923 INTER-LIGAND FREE ENERGY PREDICTED BY IDOCK:   -7.92 KCAL/MOL
REMARK 924 INTRA-LIGAND FREE ENERGY PREDICTED BY IDOCK:   -0.77 KCAL/MOL
REMARK 927      BINDING AFFINITY PREDICTED BY RF-SCORE:    0.00 PKD
ROOT
HETATM    1  O   UNL     1     -10.609  20.241  66.241  1.00  0.00    -0.317 OA 
HETATM    2  N   UNL     1      -9.346  20.703  66.643  1.00  0.00    -0.630 N  
HETATM    3  H   UNL     1     -11.219  20.799  65.774  1.00  0.00     0.000 HD 
HETATM    4  C   UNL     1      -8.469  19.900  67.315  1.00  0.00    -0.324 C  
HETATM    5  H   UNL     1      -9.076  21.662  66.428  1.00  0.00     0.000 HD 
HETATM    6  O   UNL     1      -7.396  20.335  67.720  1.00  0.00    -0.284 OA 
ENDROOT
BRANCH   4   7
HETATM    7  C   UNL     1      -8.886  18.492  67.518  1.00  0.00    -0.276 C  
HETATM    8  C   UNL     1      -7.973  17.516  67.624  1.00  0.00    -0.207 C  
BRANCH   8   9
HETATM    9  C   UNL     1      -8.385  16.127  67.824  1.00  0.00    -0.162 A  
HETATM   10  C   UNL     1      -7.438  15.099  67.741  1.00  0.00    -0.179 A  
HETATM   11  C   UNL     1      -7.831  13.764  67.868  1.00  0.00    -0.159 A  
HETATM   12  C   UNL     1      -9.174  13.446  68.072  1.00  0.00    -0.209 A  
HETATM   13  C   UNL     1     -10.121  14.471  68.168  1.00  0.00    -0.227 A  
HETATM   14  C   UNL     1      -9.733  15.812  68.038  1.00  0.00    -0.212 A  
BRANCH  13  15
HETATM   15  S   UNL     1     -11.850  14.062  68.310  1.00  0.00    -0.360 S  
HETATM   16  O   UNL     1     -11.958  12.882  69.142  1.00  0.00    -0.298 OA 
HETATM   17  O   UNL     1     -12.408  14.084  66.973  1.00  0.00    -0.397 OA 
BRANCH  15  18
HETATM   18  N   UNL     1     -12.528  15.377  69.114  1.00  0.00    -0.605 N  
HETATM   19  H   UNL     1     -12.836  16.196  68.591  1.00  0.00     0.000 HD 
BRANCH  18  20
HETATM   20  C   UNL     1     -12.667  15.337  70.524  1.00  0.00    -0.390 A  
HETATM   21  C   UNL     1     -13.908  15.061  71.095  1.00  0.00    -0.468 A  
HETATM   22  C   UNL     1     -14.055  15.095  72.483  1.00  0.00    -0.535 A  
HETATM   23  C   UNL     1     -12.958  15.386  73.294  1.00  0.00    -0.648 A  
HETATM   24  C   UNL     1     -11.713  15.645  72.720  1.00  0.00    -0.537 A  
HETATM   25  C   UNL     1     -11.570  15.630  71.333  1.00  0.00    -0.499 A  
ENDBRANCH  18  20
ENDBRANCH  15  18
ENDBRANCH  13  15
ENDBRANCH   8   9
ENDBRANCH   4   7
TORSDOF 5
ENDMDL
MODEL       49
REMARK 921   NORMALIZED FREE ENERGY PREDICTED BY IDOCK:   -6.34 KCAL/MOL
REMARK 922        TOTAL FREE ENERGY PREDICTED BY IDOCK:   -8.66 KCAL/MOL
REMARK 923 INTER-LIGAND FREE ENERGY PREDICTED BY IDOCK:   -8.03 KCAL/MOL
REMARK 924 INTRA-LIGAND FREE ENERGY PREDICTED BY IDOCK:   -0.63 KCAL/MOL
REMARK 927      BINDING AFFINITY PREDICTED BY RF-SCORE:    0.00 PKD
ROOT
HETATM    1  O   UNL     1     -11.919  11.372  63.018  1.00  0.00    -0.918 OA 
HETATM    2  N   UNL     1     -12.642  12.479  63.489  1.00  0.00    -0.745 N  
HETATM    3  H   UNL     1     -12.009  11.059  62.125  1.00  0.00     0.000 HD 
HETATM    4  C   UNL     1     -12.512  12.927  64.771  1.00  0.00    -0.455 C  
HETATM    5  H   UNL     1     -13.281  12.960  62.856  1.00  0.00     0.000 HD 
HETATM    6  O   UNL     1     -13.199  13.853  65.190  1.00  0.00    -0.768 OA 
ENDROOT
BRANCH   4   7
HETATM    7  C   UNL     1     -11.503  12.239  65.612  1.00  0.00    -0.416 C  
HETATM    8  C   UNL     1     -11.753  11.974  66.903  1.00  0.00    -0.342 C  
BRANCH   8   9
HETATM    9  C   UNL     1     -10.757  11.296  67.731  1.00  0.00    -0.265 A  
HETATM   10  C   UNL     1      -9.617  11.988  68.158  1.00  0.00    -0.200 A  
HETATM   11  C   UNL     1      -8.629  11.333  68.898  1.00  0.00    -0.056 A  
HETATM   12  C   UNL     1      -8.768   9.981  69.210  1.00  0.00    -0.182 A  
HETATM   13  C   UNL     1      -9.913   9.290  68.797  1.00  0.00    -0.181 A  
HETATM   14  C   UNL     1     -10.905   9.941  68.052  1.00  0.00    -0.294 A  
BRANCH  13  15
HETATM   15  S   UNL     1     -10.037   7.537  69.094  1.00  0.00    -0.196 S  
HETATM   16  O   UNL     1      -8.724   6.961  68.896  1.00  0.00    -0.130 OA 
HETATM   17  O   UNL     1     -11.182   7.055  68.349  1.00  0.00    -0.052 OA 
BRANCH  15  18
HETATM   18  N   UNL     1     -10.461   7.416  70.719  1.00  0.00    -0.211 N  
HETATM   19  H   UNL     1      -9.822   6.986  71.386  1.00  0.00     0.000 HD 
BRANCH  18  20
HETATM   20  C   UNL     1     -11.714   7.917  71.153  1.00  0.00    -0.285 A  
HETATM   21  C   UNL     1     -11.845   9.259  71.506  1.00  0.00    -0.444 A  
HETATM   22  C   UNL     1     -13.063   9.729  72.001  1.00  0.00    -0.546 A  
HETATM   23  C   UNL     1     -14.149   8.862  72.124  1.00  0.00    -0.497 A  
HETATM   24  C   UNL     1     -14.019   7.523  71.754  1.00  0.00    -0.473 A  
HETATM   25  C   UNL     1     -12.798   7.048  71.276  1.00  0.00    -0.376 A  
ENDBRANCH  18  20
ENDBRANCH  15  18
ENDBRANCH  13  15
ENDBRANCH   8   9
ENDBRANCH   4   7
TORSDOF 5
ENDMDL
MODEL       50
REMARK 921   NORMALIZED FREE ENERGY PREDICTED BY IDOCK:   -6.33 KCAL/MOL
REMARK 922        TOTAL FREE ENERGY PREDICTED BY IDOCK:   -8.65 KCAL/MOL
REMARK 923 INTER-LIGAND FREE ENERGY PREDICTED BY IDOCK:   -8.04 KCAL/MOL
REMARK 924 INTRA-LIGAND FREE ENERGY PREDICTED BY IDOCK:   -0.61 KCAL/MOL
REMARK 927      BINDING AFFINITY PREDICTED BY RF-SCORE:    0.00 PKD
ROOT
HETATM    1  O   UNL     1      -9.749  10.310  62.925  1.00  0.00    -0.460 OA 
HETATM    2  N   UNL     1      -9.724   9.373  63.970  1.00  0.00    -0.244 N  
HETATM    3  H   UNL     1      -9.844  10.043  62.018  1.00  0.00     0.000 HD 
HETATM    4  C   UNL     1      -9.588   9.757  65.273  1.00  0.00    -0.300 C  
HETATM    5  H   UNL     1      -9.809   8.381  63.751  1.00  0.00     0.000 HD 
HETATM    6  O   UNL     1      -9.499   8.926  66.171  1.00  0.00    -0.214 OA 
ENDROOT
BRANCH   4   7
HETATM    7  C   UNL     1      -9.557  11.217  65.532  1.00  0.00    -0.263 C  
HETATM    8  C   UNL     1     -10.679  11.879  65.851  1.00  0.00    -0.326 C  
BRANCH   8   9
HETATM    9  C   UNL     1     -10.648  13.319  66.106  1.00  0.00    -0.293 A  
HETATM   10  C   UNL     1     -10.785  14.219  65.042  1.00  0.00    -0.435 A  
HETATM   11  C   UNL     1     -10.695  15.596  65.265  1.00  0.00    -0.444 A  
HETATM   12  C   UNL     1     -10.459  16.083  66.551  1.00  0.00    -0.303 A  
HETATM   13  C   UNL     1     -10.335  15.186  67.618  1.00  0.00    -0.248 A  
HETATM   14  C   UNL     1     -10.421  13.805  67.399  1.00  0.00    -0.256 A  
BRANCH  13  15
HETATM   15  S   UNL     1      -9.918  15.801  69.238  1.00  0.00    -0.278 S  
HETATM   16  O   UNL     1     -10.612  17.057  69.427  1.00  0.00    -0.335 OA 
HETATM   17  O   UNL     1      -8.478  15.717  69.372  1.00  0.00    -0.246 OA 
BRANCH  15  18
HETATM   18  N   UNL     1     -10.546  14.651  70.297  1.00  0.00    -0.463 N  
HETATM   19  H   UNL     1     -10.113  13.732  70.373  1.00  0.00     0.000 HD 
BRANCH  18  20
HETATM   20  C   UNL     1     -11.681  14.972  71.082  1.00  0.00    -0.337 A  
HETATM   21  C   UNL     1     -11.521  15.397  72.400  1.00  0.00    -0.475 A  
HETATM   22  C   UNL     1     -12.645  15.642  73.190  1.00  0.00    -0.588 A  
HETATM   23  C   UNL     1     -13.924  15.478  72.656  1.00  0.00    -0.617 A  
HETATM   24  C   UNL     1     -14.081  15.069  71.332  1.00  0.00    -0.576 A  
HETATM   25  C   UNL     1     -12.958  14.807  70.547  1.00  0.00    -0.336 A  
ENDBRANCH  18  20
ENDBRANCH  15  18
ENDBRANCH  13  15
ENDBRANCH   8   9
ENDBRANCH   4   7
TORSDOF 5
ENDMDL
MODEL       51
REMARK 921   NORMALIZED FREE ENERGY PREDICTED BY IDOCK:   -6.32 KCAL/MOL
REMARK 922        TOTAL FREE ENERGY PREDICTED BY IDOCK:   -8.63 KCAL/MOL
REMARK 923 INTER-LIGAND FREE ENERGY PREDICTED BY IDOCK:   -8.01 KCAL/MOL
REMARK 924 INTRA-LIGAND FREE ENERGY PREDICTED BY IDOCK:   -0.62 KCAL/MOL
REMARK 927      BINDING AFFINITY PREDICTED BY RF-SCORE:    0.00 PKD
ROOT
HETATM    1  O   UNL     1     -11.927  15.091  74.389  1.00  0.00    -0.666 OA 
HETATM    2  N   UNL     1     -13.068  15.644  73.788  1.00  0.00    -0.673 N  
HETATM    3  H   UNL     1     -11.662  15.330  75.271  1.00  0.00     0.000 HD 
HETATM    4  C   UNL     1     -13.448  15.301  72.523  1.00  0.00    -0.485 C  
HETATM    5  H   UNL     1     -13.627  16.319  74.309  1.00  0.00     0.000 HD 
HETATM    6  O   UNL     1     -14.408  15.841  71.982  1.00  0.00    -0.419 OA 
ENDROOT
BRANCH   4   7
HETATM    7  C   UNL     1     -12.645  14.250  71.853  1.00  0.00    -0.396 C  
HETATM    8  C   UNL     1     -12.925  13.869  70.598  1.00  0.00    -0.219 C  
BRANCH   8   9
HETATM    9  C   UNL     1     -12.132  12.832  69.940  1.00  0.00    -0.329 A  
HETATM   10  C   UNL     1     -12.405  11.481  70.188  1.00  0.00    -0.323 A  
HETATM   11  C   UNL     1     -11.615  10.483  69.613  1.00  0.00    -0.342 A  
HETATM   12  C   UNL     1     -10.541  10.826  68.791  1.00  0.00    -0.229 A  
HETATM   13  C   UNL     1     -10.274  12.175  68.530  1.00  0.00    -0.207 A  
HETATM   14  C   UNL     1     -11.061  13.180  69.107  1.00  0.00    -0.248 A  
BRANCH  13  15
HETATM   15  S   UNL     1      -8.834  12.617  67.577  1.00  0.00    -0.197 S  
HETATM   16  O   UNL     1      -8.274  11.400  67.030  1.00  0.00    -0.146 OA 
HETATM   17  O   UNL     1      -8.032  13.503  68.396  1.00  0.00    -0.137 OA 
BRANCH  15  18
HETATM   18  N   UNL     1      -9.436  13.569  66.325  1.00  0.00    -0.424 N  
HETATM   19  H   UNL     1      -9.091  14.519  66.190  1.00  0.00     0.000 HD 
BRANCH  18  20
HETATM   20  C   UNL     1     -10.425  13.039  65.459  1.00  0.00    -0.285 A  
HETATM   21  C   UNL     1     -10.055  12.210  64.401  1.00  0.00    -0.300 A  
HETATM   22  C   UNL     1     -11.026  11.750  63.510  1.00  0.00    -0.499 A  
HETATM   23  C   UNL     1     -12.363  12.106  63.689  1.00  0.00    -0.673 A  
HETATM   24  C   UNL     1     -12.733  12.922  64.758  1.00  0.00    -0.442 A  
HETATM   25  C   UNL     1     -11.761  13.397  65.639  1.00  0.00    -0.374 A  
ENDBRANCH  18  20
ENDBRANCH  15  18
ENDBRANCH  13  15
ENDBRANCH   8   9
ENDBRANCH   4   7
TORSDOF 5
ENDMDL
MODEL       52
REMARK 921   NORMALIZED FREE ENERGY PREDICTED BY IDOCK:   -6.31 KCAL/MOL
REMARK 922        TOTAL FREE ENERGY PREDICTED BY IDOCK:   -8.62 KCAL/MOL
REMARK 923 INTER-LIGAND FREE ENERGY PREDICTED BY IDOCK:   -8.33 KCAL/MOL
REMARK 924 INTRA-LIGAND FREE ENERGY PREDICTED BY IDOCK:   -0.29 KCAL/MOL
REMARK 927      BINDING AFFINITY PREDICTED BY RF-SCORE:    0.00 PKD
ROOT
HETATM    1  O   UNL     1     -12.622  14.318  63.545  1.00  0.00    -1.039 OA 
HETATM    2  N   UNL     1     -11.903  15.434  64.001  1.00  0.00    -0.927 N  
HETATM    3  H   UNL     1     -13.304  14.398  62.888  1.00  0.00     0.000 HD 
HETATM    4  C   UNL     1     -10.923  15.319  64.943  1.00  0.00    -0.430 C  
HETATM    5  H   UNL     1     -12.119  16.355  63.619  1.00  0.00     0.000 HD 
HETATM    6  O   UNL     1     -10.349  16.309  65.383  1.00  0.00    -0.499 OA 
ENDROOT
BRANCH   4   7
HETATM    7  C   UNL     1     -10.597  13.943  65.393  1.00  0.00    -0.344 C  
HETATM    8  C   UNL     1     -11.292  13.364  66.382  1.00  0.00    -0.338 C  
BRANCH   8   9
HETATM    9  C   UNL     1     -10.969  12.008  66.825  1.00  0.00    -0.329 A  
HETATM   10  C   UNL     1     -10.574  11.044  65.890  1.00  0.00    -0.270 A  
HETATM   11  C   UNL     1     -10.323   9.729  66.293  1.00  0.00    -0.235 A  
HETATM   12  C   UNL     1     -10.473   9.367  67.632  1.00  0.00    -0.328 A  
HETATM   13  C   UNL     1     -10.856  10.331  68.571  1.00  0.00    -0.240 A  
HETATM   14  C   UNL     1     -11.111  11.650  68.172  1.00  0.00    -0.298 A  
BRANCH  13  15
HETATM   15  S   UNL     1     -11.161   9.843  70.258  1.00  0.00    -0.328 S  
HETATM   16  O   UNL     1     -12.073  10.806  70.838  1.00  0.00    -0.331 OA 
HETATM   17  O   UNL     1      -9.874   9.575  70.867  1.00  0.00    -0.275 OA 
BRANCH  15  18
HETATM   18  N   UNL     1     -11.929   8.350  70.131  1.00  0.00    -0.293 N  
HETATM   19  H   UNL     1     -12.872   8.289  69.747  1.00  0.00     0.000 HD 
BRANCH  18  20
HETATM   20  C   UNL     1     -11.256   7.180  70.561  1.00  0.00    -0.290 A  
HETATM   21  C   UNL     1     -10.870   6.215  69.632  1.00  0.00    -0.424 A  
HETATM   22  C   UNL     1     -10.273   5.032  70.070  1.00  0.00    -0.339 A  
HETATM   23  C   UNL     1     -10.047   4.825  71.431  1.00  0.00    -0.259 A  
HETATM   24  C   UNL     1     -10.419   5.800  72.357  1.00  0.00    -0.252 A  
HETATM   25  C   UNL     1     -11.032   6.975  71.922  1.00  0.00    -0.263 A  
ENDBRANCH  18  20
ENDBRANCH  15  18
ENDBRANCH  13  15
ENDBRANCH   8   9
ENDBRANCH   4   7
TORSDOF 5
ENDMDL
MODEL       53
REMARK 921   NORMALIZED FREE ENERGY PREDICTED BY IDOCK:   -6.30 KCAL/MOL
REMARK 922        TOTAL FREE ENERGY PREDICTED BY IDOCK:   -8.62 KCAL/MOL
REMARK 923 INTER-LIGAND FREE ENERGY PREDICTED BY IDOCK:   -8.06 KCAL/MOL
REMARK 924 INTRA-LIGAND FREE ENERGY PREDICTED BY IDOCK:   -0.55 KCAL/MOL
REMARK 927      BINDING AFFINITY PREDICTED BY RF-SCORE:    0.00 PKD
ROOT
HETATM    1  O   UNL     1     -10.460   7.984  72.851  1.00  0.00    -0.329 OA 
HETATM    2  N   UNL     1     -11.845   7.753  72.867  1.00  0.00    -0.618 N  
HETATM    3  H   UNL     1      -9.862   7.470  73.382  1.00  0.00     0.000 HD 
HETATM    4  C   UNL     1     -12.703   8.491  72.106  1.00  0.00    -0.373 C  
HETATM    5  H   UNL     1     -12.219   7.015  73.463  1.00  0.00     0.000 HD 
HETATM    6  O   UNL     1     -13.916   8.326  72.179  1.00  0.00    -0.354 OA 
ENDROOT
BRANCH   4   7
HETATM    7  C   UNL     1     -12.089   9.489  71.196  1.00  0.00    -0.429 C  
HETATM    8  C   UNL     1     -12.721  10.636  70.910  1.00  0.00    -0.498 C  
BRANCH   8   9
HETATM    9  C   UNL     1     -12.115  11.618  70.013  1.00  0.00    -0.395 A  
HETATM   10  C   UNL     1     -11.476  11.193  68.842  1.00  0.00    -0.363 A  
HETATM   11  C   UNL     1     -10.839  12.116  68.008  1.00  0.00    -0.258 A  
HETATM   12  C   UNL     1     -10.830  13.471  68.343  1.00  0.00    -0.286 A  
HETATM   13  C   UNL     1     -11.479  13.901  69.505  1.00  0.00    -0.274 A  
HETATM   14  C   UNL     1     -12.116  12.979  70.346  1.00  0.00    -0.391 A  
BRANCH  13  15
HETATM   15  S   UNL     1     -11.367  15.611  69.993  1.00  0.00    -0.369 S  
HETATM   16  O   UNL     1     -11.062  15.649  71.407  1.00  0.00    -0.348 OA 
HETATM   17  O   UNL     1     -12.536  16.286  69.465  1.00  0.00     0.048 OA 
BRANCH  15  18
HETATM   18  N   UNL     1     -10.057  16.212  69.122  1.00  0.00    -0.238 N  
HETATM   19  H   UNL     1      -9.170  15.709  69.117  1.00  0.00     0.000 HD 
BRANCH  18  20
HETATM   20  C   UNL     1     -10.197  17.421  68.395  1.00  0.00    -0.362 A  
HETATM   21  C   UNL     1     -10.344  17.389  67.010  1.00  0.00    -0.318 A  
HETATM   22  C   UNL     1     -10.409  18.586  66.293  1.00  0.00    -0.459 A  
HETATM   23  C   UNL     1     -10.343  19.807  66.964  1.00  0.00    -0.593 A  
HETATM   24  C   UNL     1     -10.211  19.835  68.353  1.00  0.00    -0.568 A  
HETATM   25  C   UNL     1     -10.129  18.640  69.069  1.00  0.00    -0.289 A  
ENDBRANCH  18  20
ENDBRANCH  15  18
ENDBRANCH  13  15
ENDBRANCH   8   9
ENDBRANCH   4   7
TORSDOF 5
ENDMDL
MODEL       54
REMARK 921   NORMALIZED FREE ENERGY PREDICTED BY IDOCK:   -6.30 KCAL/MOL
REMARK 922        TOTAL FREE ENERGY PREDICTED BY IDOCK:   -8.62 KCAL/MOL
REMARK 923 INTER-LIGAND FREE ENERGY PREDICTED BY IDOCK:   -8.18 KCAL/MOL
REMARK 924 INTRA-LIGAND FREE ENERGY PREDICTED BY IDOCK:   -0.44 KCAL/MOL
REMARK 927      BINDING AFFINITY PREDICTED BY RF-SCORE:    0.00 PKD
ROOT
HETATM    1  O   UNL     1     -12.774  13.873  63.372  1.00  0.00    -0.899 OA 
HETATM    2  N   UNL     1     -12.413  15.229  63.354  1.00  0.00    -0.391 N  
HETATM    3  H   UNL     1     -13.370  13.506  62.729  1.00  0.00     0.000 HD 
HETATM    4  C   UNL     1     -11.558  15.755  64.278  1.00  0.00    -0.191 C  
HETATM    5  H   UNL     1     -12.800  15.837  62.632  1.00  0.00     0.000 HD 
HETATM    6  O   UNL     1     -11.303  16.955  64.293  1.00  0.00    -1.202 OA 
ENDROOT
BRANCH   4   7
HETATM    7  C   UNL     1     -10.962  14.802  65.246  1.00  0.00    -0.382 C  
HETATM    8  C   UNL     1      -9.822  15.099  65.885  1.00  0.00    -0.372 C  
BRANCH   8   9
HETATM    9  C   UNL     1      -9.236  14.158  66.839  1.00  0.00    -0.270 A  
HETATM   10  C   UNL     1      -7.960  14.399  67.363  1.00  0.00    -0.220 A  
HETATM   11  C   UNL     1      -7.364  13.476  68.227  1.00  0.00    -0.116 A  
HETATM   12  C   UNL     1      -8.036  12.301  68.567  1.00  0.00    -0.107 A  
HETATM   13  C   UNL     1      -9.316  12.064  68.055  1.00  0.00    -0.196 A  
HETATM   14  C   UNL     1      -9.917  12.984  67.187  1.00  0.00    -0.235 A  
BRANCH  13  15
HETATM   15  S   UNL     1     -10.124  10.512  68.395  1.00  0.00    -0.172 S  
HETATM   16  O   UNL     1      -9.303   9.455  67.844  1.00  0.00    -0.129 OA 
HETATM   17  O   UNL     1     -11.513  10.656  68.007  1.00  0.00    -0.396 OA 
BRANCH  15  18
HETATM   18  N   UNL     1     -10.127  10.399  70.076  1.00  0.00    -0.436 N  
HETATM   19  H   UNL     1      -9.309  10.686  70.611  1.00  0.00     0.000 HD 
BRANCH  18  20
HETATM   20  C   UNL     1     -11.276   9.902  70.740  1.00  0.00    -0.353 A  
HETATM   21  C   UNL     1     -12.273  10.780  71.162  1.00  0.00    -0.457 A  
HETATM   22  C   UNL     1     -13.366  10.293  71.880  1.00  0.00    -0.487 A  
HETATM   23  C   UNL     1     -13.469   8.929  72.157  1.00  0.00    -0.497 A  
HETATM   24  C   UNL     1     -12.478   8.050  71.718  1.00  0.00    -0.355 A  
HETATM   25  C   UNL     1     -11.376   8.539  71.017  1.00  0.00    -0.313 A  
ENDBRANCH  18  20
ENDBRANCH  15  18
ENDBRANCH  13  15
ENDBRANCH   8   9
ENDBRANCH   4   7
TORSDOF 5
ENDMDL
MODEL       55
REMARK 921   NORMALIZED FREE ENERGY PREDICTED BY IDOCK:   -6.30 KCAL/MOL
REMARK 922        TOTAL FREE ENERGY PREDICTED BY IDOCK:   -8.61 KCAL/MOL
REMARK 923 INTER-LIGAND FREE ENERGY PREDICTED BY IDOCK:   -7.84 KCAL/MOL
REMARK 924 INTRA-LIGAND FREE ENERGY PREDICTED BY IDOCK:   -0.77 KCAL/MOL
REMARK 927      BINDING AFFINITY PREDICTED BY RF-SCORE:    0.00 PKD
ROOT
HETATM    1  O   UNL     1      -8.494  17.665  66.118  1.00  0.00    -0.441 OA 
HETATM    2  N   UNL     1      -8.854  18.881  66.720  1.00  0.00    -0.298 N  
HETATM    3  H   UNL     1      -7.778  17.608  65.496  1.00  0.00     0.000 HD 
HETATM    4  C   UNL     1      -9.882  18.962  67.613  1.00  0.00    -0.331 C  
HETATM    5  H   UNL     1      -8.333  19.726  66.483  1.00  0.00     0.000 HD 
HETATM    6  O   UNL     1     -10.230  20.041  68.081  1.00  0.00    -0.422 OA 
ENDROOT
BRANCH   4   7
HETATM    7  C   UNL     1     -10.541  17.685  67.981  1.00  0.00    -0.379 C  
HETATM    8  C   UNL     1     -10.278  17.092  69.154  1.00  0.00    -0.284 C  
BRANCH   8   9
HETATM    9  C   UNL     1     -10.927  15.833  69.515  1.00  0.00    -0.295 A  
HETATM   10  C   UNL     1     -11.771  15.777  70.631  1.00  0.00    -0.412 A  
HETATM   11  C   UNL     1     -12.348  14.565  71.021  1.00  0.00    -0.417 A  
HETATM   12  C   UNL     1     -12.079  13.399  70.304  1.00  0.00    -0.419 A  
HETATM   13  C   UNL     1     -11.247  13.454  69.181  1.00  0.00    -0.248 A  
HETATM   14  C   UNL     1     -10.664  14.665  68.787  1.00  0.00    -0.252 A  
BRANCH  13  15
HETATM   15  S   UNL     1     -10.810  11.947  68.336  1.00  0.00    -0.243 S  
HETATM   16  O   UNL     1     -12.038  11.264  67.985  1.00  0.00    -0.638 OA 
HETATM   17  O   UNL     1      -9.792  11.288  69.129  1.00  0.00    -0.136 OA 
BRANCH  15  18
HETATM   18  N   UNL     1     -10.037  12.462  66.931  1.00  0.00    -0.218 N  
HETATM   19  H   UNL     1      -9.042  12.682  66.944  1.00  0.00     0.000 HD 
BRANCH  18  20
HETATM   20  C   UNL     1     -10.780  12.587  65.731  1.00  0.00    -0.269 A  
HETATM   21  C   UNL     1     -10.772  11.555  64.794  1.00  0.00    -0.366 A  
HETATM   22  C   UNL     1     -11.446  11.714  63.583  1.00  0.00    -0.458 A  
HETATM   23  C   UNL     1     -12.140  12.895  63.319  1.00  0.00    -0.520 A  
HETATM   24  C   UNL     1     -12.161  13.920  64.266  1.00  0.00    -0.477 A  
HETATM   25  C   UNL     1     -11.472  13.769  65.470  1.00  0.00    -0.319 A  
ENDBRANCH  18  20
ENDBRANCH  15  18
ENDBRANCH  13  15
ENDBRANCH   8   9
ENDBRANCH   4   7
TORSDOF 5
ENDMDL
MODEL       56
REMARK 921   NORMALIZED FREE ENERGY PREDICTED BY IDOCK:   -6.30 KCAL/MOL
REMARK 922        TOTAL FREE ENERGY PREDICTED BY IDOCK:   -8.61 KCAL/MOL
REMARK 923 INTER-LIGAND FREE ENERGY PREDICTED BY IDOCK:   -8.10 KCAL/MOL
REMARK 924 INTRA-LIGAND FREE ENERGY PREDICTED BY IDOCK:   -0.51 KCAL/MOL
REMARK 927      BINDING AFFINITY PREDICTED BY RF-SCORE:    0.00 PKD
ROOT
HETATM    1  O   UNL     1     -10.753  17.356  65.118  1.00  0.00    -0.684 OA 
HETATM    2  N   UNL     1     -10.318  18.367  65.988  1.00  0.00    -0.409 N  
HETATM    3  H   UNL     1     -10.676  17.441  64.174  1.00  0.00     0.000 HD 
HETATM    4  C   UNL     1     -10.429  18.244  67.343  1.00  0.00    -0.409 C  
HETATM    5  H   UNL     1      -9.908  19.216  65.599  1.00  0.00     0.000 HD 
HETATM    6  O   UNL     1     -10.107  19.161  68.090  1.00  0.00    -0.359 OA 
ENDROOT
BRANCH   4   7
HETATM    7  C   UNL     1     -10.951  16.951  67.848  1.00  0.00    -0.251 C  
HETATM    8  C   UNL     1     -11.009  16.703  69.164  1.00  0.00    -0.276 C  
BRANCH   8   9
HETATM    9  C   UNL     1     -11.523  15.427  69.661  1.00  0.00    -0.331 A  
HETATM   10  C   UNL     1     -12.323  15.397  70.810  1.00  0.00    -0.447 A  
HETATM   11  C   UNL     1     -12.768  14.178  71.329  1.00  0.00    -0.434 A  
HETATM   12  C   UNL     1     -12.412  12.981  70.709  1.00  0.00    -0.384 A  
HETATM   13  C   UNL     1     -11.624  13.009  69.553  1.00  0.00    -0.276 A  
HETATM   14  C   UNL     1     -11.172  14.227  69.030  1.00  0.00    -0.294 A  
BRANCH  13  15
HETATM   15  S   UNL     1     -11.072  11.477  68.828  1.00  0.00    -0.256 S  
HETATM   16  O   UNL     1     -10.011  11.787  67.893  1.00  0.00    -0.173 OA 
HETATM   17  O   UNL     1     -12.253  10.753  68.402  1.00  0.00    -0.470 OA 
BRANCH  15  18
HETATM   18  N   UNL     1     -10.440  10.604  70.122  1.00  0.00    -0.435 N  
HETATM   19  H   UNL     1      -9.558  10.885  70.549  1.00  0.00     0.000 HD 
BRANCH  18  20
HETATM   20  C   UNL     1     -11.144   9.475  70.613  1.00  0.00    -0.300 A  
HETATM   21  C   UNL     1     -12.124   9.635  71.590  1.00  0.00    -0.481 A  
HETATM   22  C   UNL     1     -12.762   8.513  72.121  1.00  0.00    -0.423 A  
HETATM   23  C   UNL     1     -12.430   7.238  71.662  1.00  0.00    -0.394 A  
HETATM   24  C   UNL     1     -11.460   7.082  70.671  1.00  0.00    -0.367 A  
HETATM   25  C   UNL     1     -10.809   8.202  70.153  1.00  0.00    -0.241 A  
ENDBRANCH  18  20
ENDBRANCH  15  18
ENDBRANCH  13  15
ENDBRANCH   8   9
ENDBRANCH   4   7
TORSDOF 5
ENDMDL
MODEL       57
REMARK 921   NORMALIZED FREE ENERGY PREDICTED BY IDOCK:   -6.29 KCAL/MOL
REMARK 922        TOTAL FREE ENERGY PREDICTED BY IDOCK:   -8.59 KCAL/MOL
REMARK 923 INTER-LIGAND FREE ENERGY PREDICTED BY IDOCK:   -8.79 KCAL/MOL
REMARK 924 INTRA-LIGAND FREE ENERGY PREDICTED BY IDOCK:    0.20 KCAL/MOL
REMARK 927      BINDING AFFINITY PREDICTED BY RF-SCORE:    0.00 PKD
ROOT
HETATM    1  O   UNL     1     -11.531   6.893  72.170  1.00  0.00    -0.261 OA 
HETATM    2  N   UNL     1     -12.781   7.419  72.534  1.00  0.00    -0.448 N  
HETATM    3  H   UNL     1     -11.283   6.002  72.387  1.00  0.00     0.000 HD 
HETATM    4  C   UNL     1     -13.138   8.699  72.222  1.00  0.00    -0.372 C  
HETATM    5  H   UNL     1     -13.438   6.831  73.046  1.00  0.00     0.000 HD 
HETATM    6  O   UNL     1     -14.204   9.169  72.604  1.00  0.00    -0.551 OA 
ENDROOT
BRANCH   4   7
HETATM    7  C   UNL     1     -12.174   9.472  71.402  1.00  0.00    -0.455 C  
HETATM    8  C   UNL     1     -12.602  10.414  70.548  1.00  0.00    -0.384 C  
BRANCH   8   9
HETATM    9  C   UNL     1     -11.651  11.175  69.740  1.00  0.00    -0.409 A  
HETATM   10  C   UNL     1     -10.510  10.546  69.228  1.00  0.00    -0.258 A  
HETATM   11  C   UNL     1      -9.563  11.279  68.506  1.00  0.00    -0.199 A  
HETATM   12  C   UNL     1      -9.745  12.646  68.298  1.00  0.00    -0.216 A  
HETATM   13  C   UNL     1     -10.892  13.274  68.797  1.00  0.00    -0.243 A  
HETATM   14  C   UNL     1     -11.843  12.546  69.524  1.00  0.00    -0.375 A  
BRANCH  13  15
HETATM   15  S   UNL     1     -11.068  15.040  68.632  1.00  0.00    -0.280 S  
HETATM   16  O   UNL     1     -11.237  15.339  67.226  1.00  0.00    -0.335 OA 
HETATM   17  O   UNL     1     -10.003  15.653  69.401  1.00  0.00    -0.241 OA 
BRANCH  15  18
HETATM   18  N   UNL     1     -12.493  15.398  69.455  1.00  0.00    -0.603 N  
HETATM   19  H   UNL     1     -13.333  15.657  68.939  1.00  0.00     0.000 HD 
BRANCH  18  20
HETATM   20  C   UNL     1     -12.516  15.338  70.871  1.00  0.00    -0.388 A  
HETATM   21  C   UNL     1     -13.247  14.341  71.515  1.00  0.00    -0.420 A  
HETATM   22  C   UNL     1     -13.324  14.331  72.909  1.00  0.00    -0.561 A  
HETATM   23  C   UNL     1     -12.657  15.304  73.653  1.00  0.00    -0.712 A  
HETATM   24  C   UNL     1     -11.912  16.291  73.006  1.00  0.00    -0.598 A  
HETATM   25  C   UNL     1     -11.849  16.313  71.613  1.00  0.00    -0.482 A  
ENDBRANCH  18  20
ENDBRANCH  15  18
ENDBRANCH  13  15
ENDBRANCH   8   9
ENDBRANCH   4   7
TORSDOF 5
ENDMDL
MODEL       58
REMARK 921   NORMALIZED FREE ENERGY PREDICTED BY IDOCK:   -6.27 KCAL/MOL
REMARK 922        TOTAL FREE ENERGY PREDICTED BY IDOCK:   -8.57 KCAL/MOL
REMARK 923 INTER-LIGAND FREE ENERGY PREDICTED BY IDOCK:   -7.92 KCAL/MOL
REMARK 924 INTRA-LIGAND FREE ENERGY PREDICTED BY IDOCK:   -0.66 KCAL/MOL
REMARK 927      BINDING AFFINITY PREDICTED BY RF-SCORE:    0.00 PKD
ROOT
HETATM    1  O   UNL     1     -11.635   6.506  66.856  1.00  0.00    -0.725 OA 
HETATM    2  N   UNL     1     -10.956   6.680  68.072  1.00  0.00    -0.446 N  
HETATM    3  H   UNL     1     -12.010   5.668  66.609  1.00  0.00     0.000 HD 
HETATM    4  C   UNL     1     -10.419   7.883  68.426  1.00  0.00    -0.166 C  
HETATM    5  H   UNL     1     -10.861   5.888  68.706  1.00  0.00     0.000 HD 
HETATM    6  O   UNL     1      -9.769   8.007  69.459  1.00  0.00    -0.167 OA 
ENDROOT
BRANCH   4   7
HETATM    7  C   UNL     1     -10.667   9.016  67.501  1.00  0.00    -0.239 C  
HETATM    8  C   UNL     1      -9.868   9.225  66.444  1.00  0.00    -0.347 C  
BRANCH   8   9
HETATM    9  C   UNL     1     -10.113  10.343  65.534  1.00  0.00    -0.352 A  
HETATM   10  C   UNL     1      -9.772  10.228  64.180  1.00  0.00    -0.357 A  
HETATM   11  C   UNL     1      -9.945  11.311  63.314  1.00  0.00    -0.428 A  
HETATM   12  C   UNL     1     -10.452  12.519  63.795  1.00  0.00    -0.451 A  
HETATM   13  C   UNL     1     -10.806  12.632  65.144  1.00  0.00    -0.290 A  
HETATM   14  C   UNL     1     -10.632  11.550  66.018  1.00  0.00    -0.310 A  
BRANCH  13  15
HETATM   15  S   UNL     1     -11.343  14.207  65.783  1.00  0.00    -0.324 S  
HETATM   16  O   UNL     1     -12.761  14.113  66.057  1.00  0.00    -0.469 OA 
HETATM   17  O   UNL     1     -10.820  15.230  64.899  1.00  0.00    -0.415 OA 
BRANCH  15  18
HETATM   18  N   UNL     1     -10.503  14.380  67.233  1.00  0.00    -0.268 N  
HETATM   19  H   UNL     1      -9.491  14.500  67.229  1.00  0.00     0.000 HD 
BRANCH  18  20
HETATM   20  C   UNL     1     -11.215  14.357  68.458  1.00  0.00    -0.265 A  
HETATM   21  C   UNL     1     -11.414  13.151  69.127  1.00  0.00    -0.358 A  
HETATM   22  C   UNL     1     -12.178  13.125  70.295  1.00  0.00    -0.376 A  
HETATM   23  C   UNL     1     -12.725  14.305  70.798  1.00  0.00    -0.419 A  
HETATM   24  C   UNL     1     -12.511  15.514  70.135  1.00  0.00    -0.351 A  
HETATM   25  C   UNL     1     -11.763  15.538  68.958  1.00  0.00    -0.392 A  
ENDBRANCH  18  20
ENDBRANCH  15  18
ENDBRANCH  13  15
ENDBRANCH   8   9
ENDBRANCH   4   7
TORSDOF 5
ENDMDL
MODEL       59
REMARK 921   NORMALIZED FREE ENERGY PREDICTED BY IDOCK:   -6.22 KCAL/MOL
REMARK 922        TOTAL FREE ENERGY PREDICTED BY IDOCK:   -8.51 KCAL/MOL
REMARK 923 INTER-LIGAND FREE ENERGY PREDICTED BY IDOCK:   -8.02 KCAL/MOL
REMARK 924 INTRA-LIGAND FREE ENERGY PREDICTED BY IDOCK:   -0.49 KCAL/MOL
REMARK 927      BINDING AFFINITY PREDICTED BY RF-SCORE:    0.00 PKD
ROOT
HETATM    1  O   UNL     1     -11.488   8.641  69.883  1.00  0.00    -0.456 OA 
HETATM    2  N   UNL     1     -12.382   8.204  70.874  1.00  0.00    -0.498 N  
HETATM    3  H   UNL     1     -10.967   8.028  69.376  1.00  0.00     0.000 HD 
HETATM    4  C   UNL     1     -13.130   9.083  71.602  1.00  0.00    -0.365 C  
HETATM    5  H   UNL     1     -12.474   7.204  71.054  1.00  0.00     0.000 HD 
HETATM    6  O   UNL     1     -13.857   8.694  72.510  1.00  0.00    -0.374 OA 
ENDROOT
BRANCH   4   7
HETATM    7  C   UNL     1     -13.015  10.514  71.230  1.00  0.00    -0.532 C  
HETATM    8  C   UNL     1     -13.301  11.477  72.119  1.00  0.00    -0.284 C  
BRANCH   8   9
HETATM    9  C   UNL     1     -13.188  12.888  71.751  1.00  0.00    -0.479 A  
HETATM   10  C   UNL     1     -13.891  13.857  72.478  1.00  0.00    -0.620 A  
HETATM   11  C   UNL     1     -13.839  15.201  72.097  1.00  0.00    -0.607 A  
HETATM   12  C   UNL     1     -13.091  15.585  70.984  1.00  0.00    -0.551 A  
HETATM   13  C   UNL     1     -12.377  14.621  70.264  1.00  0.00    -0.349 A  
HETATM   14  C   UNL     1     -12.428  13.272  70.639  1.00  0.00    -0.373 A  
BRANCH  13  15
HETATM   15  S   UNL     1     -11.518  15.093  68.776  1.00  0.00    -0.336 S  
HETATM   16  O   UNL     1     -11.398  16.535  68.773  1.00  0.00    -0.318 OA 
HETATM   17  O   UNL     1     -12.152  14.396  67.674  1.00  0.00    -0.363 OA 
BRANCH  15  18
HETATM   18  N   UNL     1      -9.990  14.405  68.937  1.00  0.00    -0.316 N  
HETATM   19  H   UNL     1      -9.882  13.490  69.373  1.00  0.00     0.000 HD 
BRANCH  18  20
HETATM   20  C   UNL     1      -8.854  15.107  68.461  1.00  0.00    -0.185 A  
HETATM   21  C   UNL     1      -8.770  15.469  67.118  1.00  0.00    -0.234 A  
HETATM   22  C   UNL     1      -7.618  16.096  66.641  1.00  0.00    -0.238 A  
HETATM   23  C   UNL     1      -6.563  16.375  67.510  1.00  0.00    -0.184 A  
HETATM   24  C   UNL     1      -6.657  16.026  68.858  1.00  0.00    -0.130 A  
HETATM   25  C   UNL     1      -7.801  15.383  69.332  1.00  0.00    -0.232 A  
ENDBRANCH  18  20
ENDBRANCH  15  18
ENDBRANCH  13  15
ENDBRANCH   8   9
ENDBRANCH   4   7
TORSDOF 5
ENDMDL
MODEL       60
REMARK 921   NORMALIZED FREE ENERGY PREDICTED BY IDOCK:   -6.22 KCAL/MOL
REMARK 922        TOTAL FREE ENERGY PREDICTED BY IDOCK:   -8.51 KCAL/MOL
REMARK 923 INTER-LIGAND FREE ENERGY PREDICTED BY IDOCK:   -7.86 KCAL/MOL
REMARK 924 INTRA-LIGAND FREE ENERGY PREDICTED BY IDOCK:   -0.65 KCAL/MOL
REMARK 927      BINDING AFFINITY PREDICTED BY RF-SCORE:    0.00 PKD
ROOT
HETATM    1  O   UNL     1     -14.380  15.477  70.732  1.00  0.00    -0.844 OA 
HETATM    2  N   UNL     1     -13.144  15.960  70.274  1.00  0.00    -0.682 N  
HETATM    3  H   UNL     1     -15.175  15.995  70.664  1.00  0.00     0.000 HD 
HETATM    4  C   UNL     1     -12.004  15.217  70.371  1.00  0.00    -0.320 C  
HETATM    5  H   UNL     1     -13.097  16.891  69.859  1.00  0.00     0.000 HD 
HETATM    6  O   UNL     1     -10.919  15.675  70.030  1.00  0.00    -0.270 OA 
ENDROOT
BRANCH   4   7
HETATM    7  C   UNL     1     -12.156  13.840  70.902  1.00  0.00    -0.366 C  
HETATM    8  C   UNL     1     -12.097  12.780  70.084  1.00  0.00    -0.370 C  
BRANCH   8   9
HETATM    9  C   UNL     1     -12.247  11.424  70.608  1.00  0.00    -0.484 A  
HETATM   10  C   UNL     1     -13.146  11.175  71.653  1.00  0.00    -0.529 A  
HETATM   11  C   UNL     1     -13.252   9.895  72.204  1.00  0.00    -0.511 A  
HETATM   12  C   UNL     1     -12.457   8.856  71.721  1.00  0.00    -0.425 A  
HETATM   13  C   UNL     1     -11.567   9.098  70.668  1.00  0.00    -0.235 A  
HETATM   14  C   UNL     1     -11.454  10.380  70.114  1.00  0.00    -0.396 A  
BRANCH  13  15
HETATM   15  S   UNL     1     -10.469   7.802  70.130  1.00  0.00    -0.235 S  
HETATM   16  O   UNL     1      -9.324   7.796  71.016  1.00  0.00    -0.151 OA 
HETATM   17  O   UNL     1     -10.301   7.948  68.698  1.00  0.00    -0.203 OA 
BRANCH  15  18
HETATM   18  N   UNL     1     -11.352   6.385  70.347  1.00  0.00    -0.365 N  
HETATM   19  H   UNL     1     -12.230   6.246  69.849  1.00  0.00     0.000 HD 
BRANCH  18  20
HETATM   20  C   UNL     1     -10.866   5.388  71.229  1.00  0.00    -0.131 A  
HETATM   21  C   UNL     1     -10.025   4.384  70.751  1.00  0.00    -0.247 A  
HETATM   22  C   UNL     1      -9.608   3.364  71.607  1.00  0.00    -0.229 A  
HETATM   23  C   UNL     1     -10.018   3.360  72.941  1.00  0.00    -0.214 A  
HETATM   24  C   UNL     1     -10.846   4.376  73.421  1.00  0.00    -0.347 A  
HETATM   25  C   UNL     1     -11.278   5.386  72.561  1.00  0.00    -0.305 A  
ENDBRANCH  18  20
ENDBRANCH  15  18
ENDBRANCH  13  15
ENDBRANCH   8   9
ENDBRANCH   4   7
TORSDOF 5
ENDMDL
MODEL       61
REMARK 921   NORMALIZED FREE ENERGY PREDICTED BY IDOCK:   -6.21 KCAL/MOL
REMARK 922        TOTAL FREE ENERGY PREDICTED BY IDOCK:   -8.50 KCAL/MOL
REMARK 923 INTER-LIGAND FREE ENERGY PREDICTED BY IDOCK:   -7.76 KCAL/MOL
REMARK 924 INTRA-LIGAND FREE ENERGY PREDICTED BY IDOCK:   -0.74 KCAL/MOL
REMARK 927      BINDING AFFINITY PREDICTED BY RF-SCORE:    0.00 PKD
ROOT
HETATM    1  O   UNL     1     -13.845   9.405  72.401  1.00  0.00    -0.563 OA 
HETATM    2  N   UNL     1     -12.882   8.443  72.744  1.00  0.00    -0.618 N  
HETATM    3  H   UNL     1     -14.637   9.523  72.913  1.00  0.00     0.000 HD 
HETATM    4  C   UNL     1     -11.744   8.275  72.010  1.00  0.00    -0.346 C  
HETATM    5  H   UNL     1     -13.037   7.854  73.562  1.00  0.00     0.000 HD 
HETATM    6  O   UNL     1     -10.943   7.386  72.279  1.00  0.00    -0.230 OA 
ENDROOT
BRANCH   4   7
HETATM    7  C   UNL     1     -11.537   9.220  70.886  1.00  0.00    -0.364 C  
HETATM    8  C   UNL     1     -11.033   8.796  69.718  1.00  0.00    -0.146 C  
BRANCH   8   9
HETATM    9  C   UNL     1     -10.828   9.729  68.611  1.00  0.00    -0.223 A  
HETATM   10  C   UNL     1     -10.289   9.271  67.403  1.00  0.00    -0.327 A  
HETATM   11  C   UNL     1     -10.032  10.165  66.360  1.00  0.00    -0.295 A  
HETATM   12  C   UNL     1     -10.303  11.524  66.520  1.00  0.00    -0.269 A  
HETATM   13  C   UNL     1     -10.854  11.983  67.721  1.00  0.00    -0.215 A  
HETATM   14  C   UNL     1     -11.112  11.091  68.771  1.00  0.00    -0.293 A  
BRANCH  13  15
HETATM   15  S   UNL     1     -11.092  13.732  67.968  1.00  0.00    -0.273 S  
HETATM   16  O   UNL     1     -12.491  14.024  67.743  1.00  0.00    -0.130 OA 
HETATM   17  O   UNL     1     -10.057  14.417  67.220  1.00  0.00    -0.248 OA 
BRANCH  15  18
HETATM   18  N   UNL     1     -10.724  13.980  69.593  1.00  0.00    -0.452 N  
HETATM   19  H   UNL     1      -9.754  13.972  69.907  1.00  0.00     0.000 HD 
BRANCH  18  20
HETATM   20  C   UNL     1     -11.773  14.200  70.520  1.00  0.00    -0.216 A  
HETATM   21  C   UNL     1     -12.082  15.496  70.929  1.00  0.00    -0.433 A  
HETATM   22  C   UNL     1     -13.067  15.700  71.897  1.00  0.00    -0.545 A  
HETATM   23  C   UNL     1     -13.751  14.612  72.439  1.00  0.00    -0.575 A  
HETATM   24  C   UNL     1     -13.451  13.317  72.015  1.00  0.00    -0.596 A  
HETATM   25  C   UNL     1     -12.454  13.110  71.061  1.00  0.00    -0.406 A  
ENDBRANCH  18  20
ENDBRANCH  15  18
ENDBRANCH  13  15
ENDBRANCH   8   9
ENDBRANCH   4   7
TORSDOF 5
ENDMDL
MODEL       62
REMARK 921   NORMALIZED FREE ENERGY PREDICTED BY IDOCK:   -6.19 KCAL/MOL
REMARK 922        TOTAL FREE ENERGY PREDICTED BY IDOCK:   -8.48 KCAL/MOL
REMARK 923 INTER-LIGAND FREE ENERGY PREDICTED BY IDOCK:   -7.82 KCAL/MOL
REMARK 924 INTRA-LIGAND FREE ENERGY PREDICTED BY IDOCK:   -0.66 KCAL/MOL
REMARK 927      BINDING AFFINITY PREDICTED BY RF-SCORE:    0.00 PKD
ROOT
HETATM    1  O   UNL     1     -11.015   7.984  72.231  1.00  0.00    -0.265 OA 
HETATM    2  N   UNL     1     -12.399   7.916  72.458  1.00  0.00    -0.565 N  
HETATM    3  H   UNL     1     -10.454   7.225  72.340  1.00  0.00     0.000 HD 
HETATM    4  C   UNL     1     -13.205   9.006  72.300  1.00  0.00    -0.460 C  
HETATM    5  H   UNL     1     -12.812   7.030  72.747  1.00  0.00     0.000 HD 
HETATM    6  O   UNL     1     -14.401   8.952  72.566  1.00  0.00    -0.579 OA 
ENDROOT
BRANCH   4   7
HETATM    7  C   UNL     1     -12.556  10.240  71.793  1.00  0.00    -0.488 C  
HETATM    8  C   UNL     1     -12.482  10.483  70.477  1.00  0.00    -0.433 C  
BRANCH   8   9
HETATM    9  C   UNL     1     -11.842  11.699  69.978  1.00  0.00    -0.435 A  
HETATM   10  C   UNL     1     -12.377  12.953  70.302  1.00  0.00    -0.294 A  
HETATM   11  C   UNL     1     -11.810  14.119  69.780  1.00  0.00    -0.381 A  
HETATM   12  C   UNL     1     -10.710  14.041  68.925  1.00  0.00    -0.265 A  
HETATM   13  C   UNL     1     -10.166  12.791  68.611  1.00  0.00    -0.152 A  
HETATM   14  C   UNL     1     -10.732  11.619  69.129  1.00  0.00    -0.188 A  
BRANCH  13  15
HETATM   15  S   UNL     1      -8.836  12.684  67.429  1.00  0.00    -0.198 S  
HETATM   16  O   UNL     1      -8.666  11.289  67.080  1.00  0.00    -0.144 OA 
HETATM   17  O   UNL     1      -7.731  13.461  67.952  1.00  0.00    -0.122 OA 
BRANCH  15  18
HETATM   18  N   UNL     1      -9.399  13.532  66.086  1.00  0.00    -0.477 N  
HETATM   19  H   UNL     1      -9.043  14.465  65.883  1.00  0.00     0.000 HD 
BRANCH  18  20
HETATM   20  C   UNL     1     -10.369  12.937  65.242  1.00  0.00    -0.300 A  
HETATM   21  C   UNL     1      -9.969  12.137  64.174  1.00  0.00    -0.279 A  
HETATM   22  C   UNL     1     -10.927  11.614  63.303  1.00  0.00    -0.361 A  
HETATM   23  C   UNL     1     -12.280  11.878  63.514  1.00  0.00    -0.591 A  
HETATM   24  C   UNL     1     -12.679  12.666  64.594  1.00  0.00    -0.458 A  
HETATM   25  C   UNL     1     -11.722  13.204  65.454  1.00  0.00    -0.383 A  
ENDBRANCH  18  20
ENDBRANCH  15  18
ENDBRANCH  13  15
ENDBRANCH   8   9
ENDBRANCH   4   7
TORSDOF 5
ENDMDL
MODEL       63
REMARK 921   NORMALIZED FREE ENERGY PREDICTED BY IDOCK:   -6.19 KCAL/MOL
REMARK 922        TOTAL FREE ENERGY PREDICTED BY IDOCK:   -8.46 KCAL/MOL
REMARK 923 INTER-LIGAND FREE ENERGY PREDICTED BY IDOCK:   -7.84 KCAL/MOL
REMARK 924 INTRA-LIGAND FREE ENERGY PREDICTED BY IDOCK:   -0.63 KCAL/MOL
REMARK 927      BINDING AFFINITY PREDICTED BY RF-SCORE:    0.00 PKD
ROOT
HETATM    1  O   UNL     1     -12.490  15.082  74.344  1.00  0.00    -0.513 OA 
HETATM    2  N   UNL     1     -13.262  15.722  73.362  1.00  0.00    -0.631 N  
HETATM    3  H   UNL     1     -12.148  15.554  75.096  1.00  0.00     0.000 HD 
HETATM    4  C   UNL     1     -13.753  15.045  72.284  1.00  0.00    -0.468 C  
HETATM    5  H   UNL     1     -13.461  16.717  73.456  1.00  0.00     0.000 HD 
HETATM    6  O   UNL     1     -14.369  15.627  71.397  1.00  0.00    -0.524 OA 
ENDROOT
BRANCH   4   7
HETATM    7  C   UNL     1     -13.502  13.583  72.251  1.00  0.00    -0.669 C  
HETATM    8  C   UNL     1     -12.906  13.014  71.193  1.00  0.00    -0.331 C  
BRANCH   8   9
HETATM    9  C   UNL     1     -12.661  11.573  71.162  1.00  0.00    -0.463 A  
HETATM   10  C   UNL     1     -13.327  10.731  72.062  1.00  0.00    -0.403 A  
HETATM   11  C   UNL     1     -13.053   9.361  72.082  1.00  0.00    -0.526 A  
HETATM   12  C   UNL     1     -12.107   8.822  71.210  1.00  0.00    -0.344 A  
HETATM   13  C   UNL     1     -11.450   9.658  70.301  1.00  0.00    -0.233 A  
HETATM   14  C   UNL     1     -11.718  11.033  70.278  1.00  0.00    -0.445 A  
BRANCH  13  15
HETATM   15  S   UNL     1     -10.159   8.992  69.268  1.00  0.00    -0.201 S  
HETATM   16  O   UNL     1     -10.785   8.183  68.244  1.00  0.00    -0.138 OA 
HETATM   17  O   UNL     1      -9.151   8.433  70.147  1.00  0.00    -0.146 OA 
BRANCH  15  18
HETATM   18  N   UNL     1      -9.450  10.344  68.558  1.00  0.00    -0.153 N  
HETATM   19  H   UNL     1      -8.844  10.954  69.106  1.00  0.00     0.000 HD 
BRANCH  18  20
HETATM   20  C   UNL     1      -9.701  10.627  67.192  1.00  0.00    -0.171 A  
HETATM   21  C   UNL     1     -10.747  11.476  66.836  1.00  0.00    -0.304 A  
HETATM   22  C   UNL     1     -11.035  11.693  65.488  1.00  0.00    -0.327 A  
HETATM   23  C   UNL     1     -10.267  11.075  64.501  1.00  0.00    -0.406 A  
HETATM   24  C   UNL     1      -9.210  10.238  64.860  1.00  0.00    -0.273 A  
HETATM   25  C   UNL     1      -8.932  10.006  66.207  1.00  0.00    -0.170 A  
ENDBRANCH  18  20
ENDBRANCH  15  18
ENDBRANCH  13  15
ENDBRANCH   8   9
ENDBRANCH   4   7
TORSDOF 5
ENDMDL
MODEL       64
REMARK 921   NORMALIZED FREE ENERGY PREDICTED BY IDOCK:   -6.18 KCAL/MOL
REMARK 922        TOTAL FREE ENERGY PREDICTED BY IDOCK:   -8.46 KCAL/MOL
REMARK 923 INTER-LIGAND FREE ENERGY PREDICTED BY IDOCK:   -8.06 KCAL/MOL
REMARK 924 INTRA-LIGAND FREE ENERGY PREDICTED BY IDOCK:   -0.40 KCAL/MOL
REMARK 927      BINDING AFFINITY PREDICTED BY RF-SCORE:    0.00 PKD
ROOT
HETATM    1  O   UNL     1     -14.289  15.551  71.012  1.00  0.00    -0.821 OA 
HETATM    2  N   UNL     1     -13.157  15.826  70.229  1.00  0.00    -0.705 N  
HETATM    3  H   UNL     1     -14.988  16.186  71.121  1.00  0.00     0.000 HD 
HETATM    4  C   UNL     1     -12.155  14.914  70.072  1.00  0.00    -0.338 C  
HETATM    5  H   UNL     1     -13.083  16.731  69.765  1.00  0.00     0.000 HD 
HETATM    6  O   UNL     1     -11.141  15.191  69.441  1.00  0.00    -0.247 OA 
ENDROOT
BRANCH   4   7
HETATM    7  C   UNL     1     -12.366  13.587  70.700  1.00  0.00    -0.432 C  
HETATM    8  C   UNL     1     -11.973  12.465  70.078  1.00  0.00    -0.372 C  
BRANCH   8   9
HETATM    9  C   UNL     1     -12.182  11.157  70.697  1.00  0.00    -0.492 A  
HETATM   10  C   UNL     1     -13.100  11.020  71.746  1.00  0.00    -0.554 A  
HETATM   11  C   UNL     1     -13.262   9.788  72.387  1.00  0.00    -0.363 A  
HETATM   12  C   UNL     1     -12.504   8.687  71.989  1.00  0.00    -0.433 A  
HETATM   13  C   UNL     1     -11.596   8.818  70.932  1.00  0.00    -0.277 A  
HETATM   14  C   UNL     1     -11.427  10.051  70.289  1.00  0.00    -0.372 A  
BRANCH  13  15
HETATM   15  S   UNL     1     -10.545   7.444  70.502  1.00  0.00    -0.228 S  
HETATM   16  O   UNL     1     -10.457   6.575  71.656  1.00  0.00    -0.209 OA 
HETATM   17  O   UNL     1      -9.352   7.992  69.888  1.00  0.00    -0.156 OA 
BRANCH  15  18
HETATM   18  N   UNL     1     -11.374   6.652  69.268  1.00  0.00    -0.574 N  
HETATM   19  H   UNL     1     -12.364   6.835  69.114  1.00  0.00     0.000 HD 
BRANCH  18  20
HETATM   20  C   UNL     1     -10.682   5.728  68.445  1.00  0.00    -0.209 A  
HETATM   21  C   UNL     1     -10.786   5.816  67.058  1.00  0.00    -0.328 A  
HETATM   22  C   UNL     1     -10.162   4.859  66.255  1.00  0.00    -0.312 A  
HETATM   23  C   UNL     1      -9.424   3.830  66.839  1.00  0.00    -0.224 A  
HETATM   24  C   UNL     1      -9.308   3.755  68.228  1.00  0.00    -0.225 A  
HETATM   25  C   UNL     1      -9.946   4.700  69.032  1.00  0.00    -0.186 A  
ENDBRANCH  18  20
ENDBRANCH  15  18
ENDBRANCH  13  15
ENDBRANCH   8   9
ENDBRANCH   4   7
TORSDOF 5
ENDMDL
MODEL       65
REMARK 921   NORMALIZED FREE ENERGY PREDICTED BY IDOCK:   -6.16 KCAL/MOL
REMARK 922        TOTAL FREE ENERGY PREDICTED BY IDOCK:   -8.43 KCAL/MOL
REMARK 923 INTER-LIGAND FREE ENERGY PREDICTED BY IDOCK:   -7.99 KCAL/MOL
REMARK 924 INTRA-LIGAND FREE ENERGY PREDICTED BY IDOCK:   -0.44 KCAL/MOL
REMARK 927      BINDING AFFINITY PREDICTED BY RF-SCORE:    0.00 PKD
ROOT
HETATM    1  O   UNL     1      -7.874  17.844  67.447  1.00  0.00    -0.205 OA 
HETATM    2  N   UNL     1      -8.860  18.600  66.793  1.00  0.00    -0.288 N  
HETATM    3  H   UNL     1      -7.127  18.254  67.867  1.00  0.00     0.000 HD 
HETATM    4  C   UNL     1      -9.932  18.011  66.190  1.00  0.00    -0.285 C  
HETATM    5  H   UNL     1      -8.772  19.616  66.769  1.00  0.00     0.000 HD 
HETATM    6  O   UNL     1     -10.751  18.677  65.565  1.00  0.00    -0.577 OA 
ENDROOT
BRANCH   4   7
HETATM    7  C   UNL     1     -10.048  16.540  66.337  1.00  0.00    -0.323 C  
HETATM    8  C   UNL     1     -10.878  15.836  65.553  1.00  0.00    -0.343 C  
BRANCH   8   9
HETATM    9  C   UNL     1     -10.991  14.386  65.700  1.00  0.00    -0.314 A  
HETATM   10  C   UNL     1     -11.219  13.586  64.573  1.00  0.00    -0.392 A  
HETATM   11  C   UNL     1     -11.391  12.206  64.709  1.00  0.00    -0.378 A  
HETATM   12  C   UNL     1     -11.344  11.616  65.972  1.00  0.00    -0.261 A  
HETATM   13  C   UNL     1     -11.103  12.410  67.098  1.00  0.00    -0.280 A  
HETATM   14  C   UNL     1     -10.933  13.795  66.968  1.00  0.00    -0.297 A  
BRANCH  13  15
HETATM   15  S   UNL     1     -11.160  11.675  68.721  1.00  0.00    -0.250 S  
HETATM   16  O   UNL     1     -10.037  10.769  68.836  1.00  0.00    -0.189 OA 
HETATM   17  O   UNL     1     -12.516  11.212  68.936  1.00  0.00    -0.460 OA 
BRANCH  15  18
HETATM   18  N   UNL     1     -10.943  12.970  69.776  1.00  0.00    -0.413 N  
HETATM   19  H   UNL     1     -10.026  13.404  69.875  1.00  0.00     0.000 HD 
BRANCH  18  20
HETATM   20  C   UNL     1     -12.046  13.452  70.525  1.00  0.00    -0.323 A  
HETATM   21  C   UNL     1     -12.543  14.732  70.289  1.00  0.00    -0.365 A  
HETATM   22  C   UNL     1     -13.581  15.228  71.079  1.00  0.00    -0.486 A  
HETATM   23  C   UNL     1     -14.130  14.437  72.089  1.00  0.00    -0.627 A  
HETATM   24  C   UNL     1     -13.641  13.150  72.311  1.00  0.00    -0.677 A  
HETATM   25  C   UNL     1     -12.591  12.660  71.534  1.00  0.00    -0.256 A  
ENDBRANCH  18  20
ENDBRANCH  15  18
ENDBRANCH  13  15
ENDBRANCH   8   9
ENDBRANCH   4   7
TORSDOF 5
ENDMDL
MODEL       66
REMARK 921   NORMALIZED FREE ENERGY PREDICTED BY IDOCK:   -6.14 KCAL/MOL
REMARK 922        TOTAL FREE ENERGY PREDICTED BY IDOCK:   -8.41 KCAL/MOL
REMARK 923 INTER-LIGAND FREE ENERGY PREDICTED BY IDOCK:   -7.68 KCAL/MOL
REMARK 924 INTRA-LIGAND FREE ENERGY PREDICTED BY IDOCK:   -0.73 KCAL/MOL
REMARK 927      BINDING AFFINITY PREDICTED BY RF-SCORE:    0.00 PKD
ROOT
HETATM    1  O   UNL     1     -13.280  11.642  72.096  1.00  0.00    -0.555 OA 
HETATM    2  N   UNL     1     -13.896  12.816  72.556  1.00  0.00    -0.530 N  
HETATM    3  H   UNL     1     -13.509  10.788  72.445  1.00  0.00     0.000 HD 
HETATM    4  C   UNL     1     -13.567  14.042  72.055  1.00  0.00    -0.463 C  
HETATM    5  H   UNL     1     -14.608  12.752  73.284  1.00  0.00     0.000 HD 
HETATM    6  O   UNL     1     -14.063  15.066  72.512  1.00  0.00    -0.470 OA 
ENDROOT
BRANCH   4   7
HETATM    7  C   UNL     1     -12.590  14.059  70.939  1.00  0.00    -0.431 C  
HETATM    8  C   UNL     1     -12.436  15.154  70.180  1.00  0.00    -0.361 C  
BRANCH   8   9
HETATM    9  C   UNL     1     -11.474  15.169  69.080  1.00  0.00    -0.325 A  
HETATM   10  C   UNL     1     -11.847  14.686  67.819  1.00  0.00    -0.359 A  
HETATM   11  C   UNL     1     -10.917  14.638  66.777  1.00  0.00    -0.323 A  
HETATM   12  C   UNL     1      -9.606  15.065  66.988  1.00  0.00    -0.233 A  
HETATM   13  C   UNL     1      -9.233  15.561  68.242  1.00  0.00    -0.188 A  
HETATM   14  C   UNL     1     -10.161  15.608  69.292  1.00  0.00    -0.258 A  
BRANCH  13  15
HETATM   15  S   UNL     1      -7.532  15.996  68.546  1.00  0.00    -0.166 S  
HETATM   16  O   UNL     1      -6.794  15.778  67.320  1.00  0.00    -0.185 OA 
HETATM   17  O   UNL     1      -7.136  15.348  69.780  1.00  0.00    -0.185 OA 
BRANCH  15  18
HETATM   18  N   UNL     1      -7.575  17.645  68.886  1.00  0.00    -0.253 N  
HETATM   19  H   UNL     1      -6.998  18.030  69.633  1.00  0.00     0.000 HD 
BRANCH  18  20
HETATM   20  C   UNL     1      -8.419  18.492  68.126  1.00  0.00    -0.296 A  
HETATM   21  C   UNL     1      -9.595  18.990  68.686  1.00  0.00    -0.458 A  
HETATM   22  C   UNL     1     -10.458  19.764  67.908  1.00  0.00    -0.531 A  
HETATM   23  C   UNL     1     -10.135  20.052  66.582  1.00  0.00    -0.607 A  
HETATM   24  C   UNL     1      -8.949  19.567  66.030  1.00  0.00    -0.229 A  
HETATM   25  C   UNL     1      -8.095  18.778  66.800  1.00  0.00    -0.274 A  
ENDBRANCH  18  20
ENDBRANCH  15  18
ENDBRANCH  13  15
ENDBRANCH   8   9
ENDBRANCH   4   7
TORSDOF 5
ENDMDL
MODEL       67
REMARK 921   NORMALIZED FREE ENERGY PREDICTED BY IDOCK:   -6.14 KCAL/MOL
REMARK 922        TOTAL FREE ENERGY PREDICTED BY IDOCK:   -8.41 KCAL/MOL
REMARK 923 INTER-LIGAND FREE ENERGY PREDICTED BY IDOCK:   -7.57 KCAL/MOL
REMARK 924 INTRA-LIGAND FREE ENERGY PREDICTED BY IDOCK:   -0.84 KCAL/MOL
REMARK 927      BINDING AFFINITY PREDICTED BY RF-SCORE:    0.00 PKD
ROOT
HETATM    1  O   UNL     1     -12.332  14.756  68.256  1.00  0.00    -0.594 OA 
HETATM    2  N   UNL     1     -12.401  14.217  66.961  1.00  0.00    -0.580 N  
HETATM    3  H   UNL     1     -12.595  15.651  68.439  1.00  0.00     0.000 HD 
HETATM    4  C   UNL     1     -12.023  12.933  66.700  1.00  0.00    -0.366 C  
HETATM    5  H   UNL     1     -12.742  14.800  66.198  1.00  0.00     0.000 HD 
HETATM    6  O   UNL     1     -12.023  12.494  65.554  1.00  0.00    -0.420 OA 
ENDROOT
BRANCH   4   7
HETATM    7  C   UNL     1     -11.621  12.111  67.867  1.00  0.00    -0.413 C  
HETATM    8  C   UNL     1     -10.475  11.415  67.852  1.00  0.00    -0.212 C  
BRANCH   8   9
HETATM    9  C   UNL     1     -10.080  10.604  69.004  1.00  0.00    -0.226 A  
HETATM   10  C   UNL     1      -8.724  10.351  69.247  1.00  0.00    -0.160 A  
HETATM   11  C   UNL     1      -8.339   9.527  70.308  1.00  0.00    -0.221 A  
HETATM   12  C   UNL     1      -9.304   8.944  71.128  1.00  0.00    -0.326 A  
HETATM   13  C   UNL     1     -10.659   9.206  70.896  1.00  0.00    -0.273 A  
HETATM   14  C   UNL     1     -11.051  10.028  69.832  1.00  0.00    -0.336 A  
BRANCH  13  15
HETATM   15  S   UNL     1     -11.896   8.369  71.869  1.00  0.00    -0.364 S  
HETATM   16  O   UNL     1     -13.014   9.273  72.036  1.00  0.00    -0.363 OA 
HETATM   17  O   UNL     1     -11.224   7.795  73.018  1.00  0.00    -0.405 OA 
BRANCH  15  18
HETATM   18  N   UNL     1     -12.369   7.064  70.915  1.00  0.00    -0.520 N  
HETATM   19  H   UNL     1     -13.355   6.821  70.831  1.00  0.00     0.000 HD 
BRANCH  18  20
HETATM   20  C   UNL     1     -11.386   6.307  70.231  1.00  0.00    -0.388 A  
HETATM   21  C   UNL     1     -11.272   6.402  68.845  1.00  0.00    -0.385 A  
HETATM   22  C   UNL     1     -10.351   5.599  68.169  1.00  0.00    -0.254 A  
HETATM   23  C   UNL     1      -9.535   4.720  68.882  1.00  0.00    -0.209 A  
HETATM   24  C   UNL     1      -9.640   4.640  70.271  1.00  0.00    -0.270 A  
HETATM   25  C   UNL     1     -10.573   5.428  70.945  1.00  0.00    -0.283 A  
ENDBRANCH  18  20
ENDBRANCH  15  18
ENDBRANCH  13  15
ENDBRANCH   8   9
ENDBRANCH   4   7
TORSDOF 5
ENDMDL
MODEL       68
REMARK 921   NORMALIZED FREE ENERGY PREDICTED BY IDOCK:   -6.14 KCAL/MOL
REMARK 922        TOTAL FREE ENERGY PREDICTED BY IDOCK:   -8.40 KCAL/MOL
REMARK 923 INTER-LIGAND FREE ENERGY PREDICTED BY IDOCK:   -7.73 KCAL/MOL
REMARK 924 INTRA-LIGAND FREE ENERGY PREDICTED BY IDOCK:   -0.67 KCAL/MOL
REMARK 927      BINDING AFFINITY PREDICTED BY RF-SCORE:    0.00 PKD
ROOT
HETATM    1  O   UNL     1     -11.228   5.751  66.201  1.00  0.00    -0.735 OA 
HETATM    2  N   UNL     1     -10.476   5.974  67.365  1.00  0.00    -0.213 N  
HETATM    3  H   UNL     1     -11.520   4.880  65.955  1.00  0.00     0.000 HD 
HETATM    4  C   UNL     1     -10.058   7.224  67.719  1.00  0.00    -0.180 C  
HETATM    5  H   UNL     1     -10.236   5.182  67.962  1.00  0.00     0.000 HD 
HETATM    6  O   UNL     1      -9.345   7.397  68.702  1.00  0.00    -0.140 OA 
ENDROOT
BRANCH   4   7
HETATM    7  C   UNL     1     -10.514   8.342  66.859  1.00  0.00    -0.365 C  
HETATM    8  C   UNL     1      -9.640   9.237  66.378  1.00  0.00    -0.301 C  
BRANCH   8   9
HETATM    9  C   UNL     1     -10.091  10.340  65.530  1.00  0.00    -0.351 A  
HETATM   10  C   UNL     1      -9.702  10.391  64.186  1.00  0.00    -0.387 A  
HETATM   11  C   UNL     1     -10.076  11.472  63.383  1.00  0.00    -0.454 A  
HETATM   12  C   UNL     1     -10.834  12.513  63.918  1.00  0.00    -0.472 A  
HETATM   13  C   UNL     1     -11.236  12.458  65.257  1.00  0.00    -0.318 A  
HETATM   14  C   UNL     1     -10.861  11.378  66.068  1.00  0.00    -0.306 A  
BRANCH  13  15
HETATM   15  S   UNL     1     -12.104  13.841  65.972  1.00  0.00    -0.456 S  
HETATM   16  O   UNL     1     -12.138  13.648  67.407  1.00  0.00    -0.380 OA 
HETATM   17  O   UNL     1     -13.326  14.020  65.215  1.00  0.00    -0.741 OA 
BRANCH  15  18
HETATM   18  N   UNL     1     -11.140  15.174  65.611  1.00  0.00    -0.341 N  
HETATM   19  H   UNL     1     -11.216  15.632  64.703  1.00  0.00     0.000 HD 
BRANCH  18  20
HETATM   20  C   UNL     1     -10.222  15.654  66.578  1.00  0.00    -0.283 A  
HETATM   21  C   UNL     1     -10.601  16.664  67.459  1.00  0.00    -0.311 A  
HETATM   22  C   UNL     1      -9.670  17.183  68.361  1.00  0.00    -0.284 A  
HETATM   23  C   UNL     1      -8.370  16.679  68.389  1.00  0.00    -0.208 A  
HETATM   24  C   UNL     1      -7.997  15.656  67.517  1.00  0.00    -0.184 A  
HETATM   25  C   UNL     1      -8.922  15.149  66.603  1.00  0.00    -0.319 A  
ENDBRANCH  18  20
ENDBRANCH  15  18
ENDBRANCH  13  15
ENDBRANCH   8   9
ENDBRANCH   4   7
TORSDOF 5
ENDMDL
MODEL       69
REMARK 921   NORMALIZED FREE ENERGY PREDICTED BY IDOCK:   -6.13 KCAL/MOL
REMARK 922        TOTAL FREE ENERGY PREDICTED BY IDOCK:   -8.39 KCAL/MOL
REMARK 923 INTER-LIGAND FREE ENERGY PREDICTED BY IDOCK:   -7.57 KCAL/MOL
REMARK 924 INTRA-LIGAND FREE ENERGY PREDICTED BY IDOCK:   -0.83 KCAL/MOL
REMARK 927      BINDING AFFINITY PREDICTED BY RF-SCORE:    0.00 PKD
ROOT
HETATM    1  O   UNL     1     -12.445  10.710  71.390  1.00  0.00    -0.368 OA 
HETATM    2  N   UNL     1     -13.326  11.497  72.148  1.00  0.00    -0.562 N  
HETATM    3  H   UNL     1     -12.450   9.761  71.446  1.00  0.00     0.000 HD 
HETATM    4  C   UNL     1     -13.319  12.859  72.068  1.00  0.00    -0.482 C  
HETATM    5  H   UNL     1     -13.989  11.039  72.774  1.00  0.00     0.000 HD 
HETATM    6  O   UNL     1     -14.047  13.538  72.785  1.00  0.00    -0.719 OA 
ENDROOT
BRANCH   4   7
HETATM    7  C   UNL     1     -12.394  13.458  71.076  1.00  0.00    -0.401 C  
HETATM    8  C   UNL     1     -11.960  14.719  71.218  1.00  0.00    -0.404 C  
BRANCH   8   9
HETATM    9  C   UNL     1     -11.049  15.308  70.238  1.00  0.00    -0.316 A  
HETATM   10  C   UNL     1     -10.985  16.700  70.093  1.00  0.00    -0.110 A  
HETATM   11  C   UNL     1     -10.164  17.272  69.118  1.00  0.00    -0.283 A  
HETATM   12  C   UNL     1      -9.406  16.458  68.275  1.00  0.00    -0.210 A  
HETATM   13  C   UNL     1      -9.458  15.068  68.426  1.00  0.00    -0.201 A  
HETATM   14  C   UNL     1     -10.282  14.489  69.401  1.00  0.00    -0.051 A  
BRANCH  13  15
HETATM   15  S   UNL     1      -8.583  14.026  67.276  1.00  0.00    -0.210 S  
HETATM   16  O   UNL     1      -8.880  12.649  67.611  1.00  0.00    -0.165 OA 
HETATM   17  O   UNL     1      -7.215  14.500  67.220  1.00  0.00    -0.177 OA 
BRANCH  15  18
HETATM   18  N   UNL     1      -9.258  14.394  65.777  1.00  0.00    -0.487 N  
HETATM   19  H   UNL     1      -8.793  15.050  65.152  1.00  0.00     0.000 HD 
BRANCH  18  20
HETATM   20  C   UNL     1     -10.479  13.785  65.394  1.00  0.00    -0.331 A  
HETATM   21  C   UNL     1     -10.482  12.765  64.444  1.00  0.00    -0.410 A  
HETATM   22  C   UNL     1     -11.694  12.219  64.017  1.00  0.00    -0.506 A  
HETATM   23  C   UNL     1     -12.896  12.682  64.554  1.00  0.00    -0.356 A  
HETATM   24  C   UNL     1     -12.889  13.691  65.517  1.00  0.00    -0.443 A  
HETATM   25  C   UNL     1     -11.679  14.250  65.931  1.00  0.00    -0.375 A  
ENDBRANCH  18  20
ENDBRANCH  15  18
ENDBRANCH  13  15
ENDBRANCH   8   9
ENDBRANCH   4   7
TORSDOF 5
ENDMDL
MODEL       70
REMARK 921   NORMALIZED FREE ENERGY PREDICTED BY IDOCK:   -6.13 KCAL/MOL
REMARK 922        TOTAL FREE ENERGY PREDICTED BY IDOCK:   -8.39 KCAL/MOL
REMARK 923 INTER-LIGAND FREE ENERGY PREDICTED BY IDOCK:   -7.85 KCAL/MOL
REMARK 924 INTRA-LIGAND FREE ENERGY PREDICTED BY IDOCK:   -0.54 KCAL/MOL
REMARK 927      BINDING AFFINITY PREDICTED BY RF-SCORE:    0.00 PKD
ROOT
HETATM    1  O   UNL     1     -12.273  16.225  73.538  1.00  0.00    -0.497 OA 
HETATM    2  N   UNL     1     -13.194  15.166  73.577  1.00  0.00    -0.497 N  
HETATM    3  H   UNL     1     -12.205  16.854  74.248  1.00  0.00     0.000 HD 
HETATM    4  C   UNL     1     -13.292  14.264  72.558  1.00  0.00    -0.500 C  
HETATM    5  H   UNL     1     -13.806  15.069  74.387  1.00  0.00     0.000 HD 
HETATM    6  O   UNL     1     -14.145  13.384  72.572  1.00  0.00    -0.726 OA 
ENDROOT
BRANCH   4   7
HETATM    7  C   UNL     1     -12.315  14.409  71.451  1.00  0.00    -0.433 C  
HETATM    8  C   UNL     1     -12.697  14.889  70.259  1.00  0.00    -0.317 C  
BRANCH   8   9
HETATM    9  C   UNL     1     -11.733  15.030  69.168  1.00  0.00    -0.345 A  
HETATM   10  C   UNL     1     -10.998  13.919  68.738  1.00  0.00    -0.286 A  
HETATM   11  C   UNL     1     -10.030  14.056  67.739  1.00  0.00    -0.236 A  
HETATM   12  C   UNL     1      -9.784  15.305  67.169  1.00  0.00    -0.220 A  
HETATM   13  C   UNL     1     -10.526  16.415  67.587  1.00  0.00    -0.302 A  
HETATM   14  C   UNL     1     -11.496  16.284  68.591  1.00  0.00    -0.288 A  
BRANCH  13  15
HETATM   15  S   UNL     1     -10.133  18.030  66.944  1.00  0.00    -0.366 S  
HETATM   16  O   UNL     1     -11.029  18.983  67.563  1.00  0.00    -0.443 OA 
HETATM   17  O   UNL     1     -10.052  17.910  65.502  1.00  0.00    -0.530 OA 
BRANCH  15  18
HETATM   18  N   UNL     1      -8.559  18.319  67.470  1.00  0.00    -0.248 N  
HETATM   19  H   UNL     1      -8.324  18.231  68.458  1.00  0.00     0.000 HD 
BRANCH  18  20
HETATM   20  C   UNL     1      -7.565  18.684  66.529  1.00  0.00    -0.251 A  
HETATM   21  C   UNL     1      -6.573  17.772  66.171  1.00  0.00    -0.309 A  
HETATM   22  C   UNL     1      -5.556  18.163  65.299  1.00  0.00    -0.150 A  
HETATM   23  C   UNL     1      -5.542  19.456  64.775  1.00  0.00    -0.252 A  
HETATM   24  C   UNL     1      -6.545  20.361  65.122  1.00  0.00    -0.327 A  
HETATM   25  C   UNL     1      -7.553  19.978  66.007  1.00  0.00    -0.326 A  
ENDBRANCH  18  20
ENDBRANCH  15  18
ENDBRANCH  13  15
ENDBRANCH   8   9
ENDBRANCH   4   7
TORSDOF 5
ENDMDL
MODEL       71
REMARK 921   NORMALIZED FREE ENERGY PREDICTED BY IDOCK:   -6.12 KCAL/MOL
REMARK 922        TOTAL FREE ENERGY PREDICTED BY IDOCK:   -8.38 KCAL/MOL
REMARK 923 INTER-LIGAND FREE ENERGY PREDICTED BY IDOCK:   -7.85 KCAL/MOL
REMARK 924 INTRA-LIGAND FREE ENERGY PREDICTED BY IDOCK:   -0.53 KCAL/MOL
REMARK 927      BINDING AFFINITY PREDICTED BY RF-SCORE:    0.00 PKD
ROOT
HETATM    1  O   UNL     1      -7.738  18.271  65.695  1.00  0.00    -0.529 OA 
HETATM    2  N   UNL     1      -8.636  19.034  66.457  1.00  0.00    -0.303 N  
HETATM    3  H   UNL     1      -6.861  18.580  65.499  1.00  0.00     0.000 HD 
HETATM    4  C   UNL     1      -9.895  18.589  66.738  1.00  0.00    -0.342 C  
HETATM    5  H   UNL     1      -8.340  19.944  66.810  1.00  0.00     0.000 HD 
HETATM    6  O   UNL     1     -10.693  19.293  67.348  1.00  0.00    -0.463 OA 
ENDROOT
BRANCH   4   7
HETATM    7  C   UNL     1     -10.233  17.223  66.272  1.00  0.00    -0.347 C  
HETATM    8  C   UNL     1     -10.658  16.290  67.136  1.00  0.00    -0.291 C  
BRANCH   8   9
HETATM    9  C   UNL     1     -10.990  14.942  66.675  1.00  0.00    -0.325 A  
HETATM   10  C   UNL     1     -11.784  14.770  65.535  1.00  0.00    -0.274 A  
HETATM   11  C   UNL     1     -12.159  13.489  65.121  1.00  0.00    -0.432 A  
HETATM   12  C   UNL     1     -11.750  12.371  65.848  1.00  0.00    -0.476 A  
HETATM   13  C   UNL     1     -10.945  12.539  66.980  1.00  0.00    -0.267 A  
HETATM   14  C   UNL     1     -10.569  13.821  67.401  1.00  0.00    -0.260 A  
BRANCH  13  15
HETATM   15  S   UNL     1     -10.520  11.122  67.974  1.00  0.00    -0.200 S  
HETATM   16  O   UNL     1      -9.080  10.974  67.941  1.00  0.00    -0.141 OA 
HETATM   17  O   UNL     1     -11.390  10.036  67.570  1.00  0.00    -0.212 OA 
BRANCH  15  18
HETATM   18  N   UNL     1     -11.002  11.542  69.532  1.00  0.00    -0.424 N  
HETATM   19  H   UNL     1     -10.980  12.516  69.832  1.00  0.00     0.000 HD 
BRANCH  18  20
HETATM   20  C   UNL     1     -11.440  10.531  70.424  1.00  0.00    -0.341 A  
HETATM   21  C   UNL     1     -12.756  10.525  70.880  1.00  0.00    -0.495 A  
HETATM   22  C   UNL     1     -13.161   9.569  71.814  1.00  0.00    -0.504 A  
HETATM   23  C   UNL     1     -12.254   8.614  72.275  1.00  0.00    -0.447 A  
HETATM   24  C   UNL     1     -10.941   8.613  71.803  1.00  0.00    -0.396 A  
HETATM   25  C   UNL     1     -10.531   9.578  70.883  1.00  0.00    -0.382 A  
ENDBRANCH  18  20
ENDBRANCH  15  18
ENDBRANCH  13  15
ENDBRANCH   8   9
ENDBRANCH   4   7
TORSDOF 5
ENDMDL
MODEL       72
REMARK 921   NORMALIZED FREE ENERGY PREDICTED BY IDOCK:   -6.09 KCAL/MOL
REMARK 922        TOTAL FREE ENERGY PREDICTED BY IDOCK:   -8.33 KCAL/MOL
REMARK 923 INTER-LIGAND FREE ENERGY PREDICTED BY IDOCK:   -7.77 KCAL/MOL
REMARK 924 INTRA-LIGAND FREE ENERGY PREDICTED BY IDOCK:   -0.56 KCAL/MOL
REMARK 927      BINDING AFFINITY PREDICTED BY RF-SCORE:    0.00 PKD
ROOT
HETATM    1  O   UNL     1     -11.566   6.729  67.268  1.00  0.00    -0.726 OA 
HETATM    2  N   UNL     1     -10.468   7.237  66.554  1.00  0.00    -0.503 N  
HETATM    3  H   UNL     1     -11.813   5.813  67.217  1.00  0.00     0.000 HD 
HETATM    4  C   UNL     1     -10.113   8.552  66.627  1.00  0.00    -0.294 C  
HETATM    5  H   UNL     1      -9.923   6.606  65.966  1.00  0.00     0.000 HD 
HETATM    6  O   UNL     1      -9.195   8.998  65.947  1.00  0.00    -0.198 OA 
ENDROOT
BRANCH   4   7
HETATM    7  C   UNL     1     -10.891   9.396  67.566  1.00  0.00    -0.208 C  
HETATM    8  C   UNL     1     -10.450   9.620  68.812  1.00  0.00    -0.238 C  
BRANCH   8   9
HETATM    9  C   UNL     1     -11.218  10.451  69.737  1.00  0.00    -0.353 A  
HETATM   10  C   UNL     1     -11.969   9.852  70.756  1.00  0.00    -0.410 A  
HETATM   11  C   UNL     1     -12.756  10.632  71.607  1.00  0.00    -0.531 A  
HETATM   12  C   UNL     1     -12.806  12.016  71.441  1.00  0.00    -0.391 A  
HETATM   13  C   UNL     1     -12.046  12.620  70.433  1.00  0.00    -0.300 A  
HETATM   14  C   UNL     1     -11.258  11.842  69.575  1.00  0.00    -0.265 A  
BRANCH  13  15
HETATM   15  S   UNL     1     -12.200  14.372  70.147  1.00  0.00    -0.353 S  
HETATM   16  O   UNL     1     -10.959  14.997  70.553  1.00  0.00    -0.245 OA 
HETATM   17  O   UNL     1     -13.465  14.792  70.713  1.00  0.00    -0.331 OA 
BRANCH  15  18
HETATM   18  N   UNL     1     -12.375  14.511  68.477  1.00  0.00    -0.595 N  
HETATM   19  H   UNL     1     -13.257  14.263  68.031  1.00  0.00     0.000 HD 
BRANCH  18  20
HETATM   20  C   UNL     1     -11.286  14.976  67.698  1.00  0.00    -0.334 A  
HETATM   21  C   UNL     1     -10.965  16.332  67.686  1.00  0.00    -0.245 A  
HETATM   22  C   UNL     1      -9.939  16.794  66.861  1.00  0.00    -0.274 A  
HETATM   23  C   UNL     1      -9.226  15.898  66.064  1.00  0.00    -0.372 A  
HETATM   24  C   UNL     1      -9.539  14.538  66.090  1.00  0.00    -0.325 A  
HETATM   25  C   UNL     1     -10.576  14.078  66.901  1.00  0.00    -0.280 A  
ENDBRANCH  18  20
ENDBRANCH  15  18
ENDBRANCH  13  15
ENDBRANCH   8   9
ENDBRANCH   4   7
TORSDOF 5
ENDMDL
MODEL       73
REMARK 921   NORMALIZED FREE ENERGY PREDICTED BY IDOCK:   -6.08 KCAL/MOL
REMARK 922        TOTAL FREE ENERGY PREDICTED BY IDOCK:   -8.32 KCAL/MOL
REMARK 923 INTER-LIGAND FREE ENERGY PREDICTED BY IDOCK:   -7.43 KCAL/MOL
REMARK 924 INTRA-LIGAND FREE ENERGY PREDICTED BY IDOCK:   -0.89 KCAL/MOL
REMARK 927      BINDING AFFINITY PREDICTED BY RF-SCORE:    0.00 PKD
ROOT
HETATM    1  O   UNL     1     -11.615   6.628  67.186  1.00  0.00    -0.749 OA 
HETATM    2  N   UNL     1     -10.357   6.648  66.563  1.00  0.00    -0.450 N  
HETATM    3  H   UNL     1     -12.081   5.815  67.343  1.00  0.00     0.000 HD 
HETATM    4  C   UNL     1      -9.688   7.816  66.338  1.00  0.00    -0.149 C  
HETATM    5  H   UNL     1      -9.933   5.768  66.270  1.00  0.00     0.000 HD 
HETATM    6  O   UNL     1      -8.621   7.828  65.733  1.00  0.00    -0.142 OA 
ENDROOT
BRANCH   4   7
HETATM    7  C   UNL     1     -10.317   9.051  66.865  1.00  0.00    -0.324 C  
HETATM    8  C   UNL     1      -9.836   9.650  67.964  1.00  0.00    -0.175 C  
BRANCH   8   9
HETATM    9  C   UNL     1     -10.458  10.867  68.484  1.00  0.00    -0.209 A  
HETATM   10  C   UNL     1     -11.517  10.775  69.396  1.00  0.00    -0.366 A  
HETATM   11  C   UNL     1     -12.160  11.930  69.851  1.00  0.00    -0.344 A  
HETATM   12  C   UNL     1     -11.755  13.183  69.392  1.00  0.00    -0.386 A  
HETATM   13  C   UNL     1     -10.689  13.279  68.491  1.00  0.00    -0.262 A  
HETATM   14  C   UNL     1     -10.043  12.125  68.029  1.00  0.00    -0.204 A  
BRANCH  13  15
HETATM   15  S   UNL     1     -10.249  14.869  67.816  1.00  0.00    -0.236 S  
HETATM   16  O   UNL     1      -8.874  14.794  67.368  1.00  0.00    -0.174 OA 
HETATM   17  O   UNL     1     -10.667  15.873  68.773  1.00  0.00    -0.238 OA 
BRANCH  15  18
HETATM   18  N   UNL     1     -11.262  15.054  66.483  1.00  0.00    -0.335 N  
HETATM   19  H   UNL     1     -11.781  15.921  66.350  1.00  0.00     0.000 HD 
BRANCH  18  20
HETATM   20  C   UNL     1     -11.386  13.995  65.549  1.00  0.00    -0.313 A  
HETATM   21  C   UNL     1     -10.300  13.637  64.752  1.00  0.00    -0.414 A  
HETATM   22  C   UNL     1     -10.450  12.643  63.784  1.00  0.00    -0.411 A  
HETATM   23  C   UNL     1     -11.678  12.000  63.627  1.00  0.00    -0.587 A  
HETATM   24  C   UNL     1     -12.758  12.349  64.438  1.00  0.00    -0.434 A  
HETATM   25  C   UNL     1     -12.615  13.355  65.394  1.00  0.00    -0.528 A  
ENDBRANCH  18  20
ENDBRANCH  15  18
ENDBRANCH  13  15
ENDBRANCH   8   9
ENDBRANCH   4   7
TORSDOF 5
ENDMDL
MODEL       74
REMARK 921   NORMALIZED FREE ENERGY PREDICTED BY IDOCK:   -6.07 KCAL/MOL
REMARK 922        TOTAL FREE ENERGY PREDICTED BY IDOCK:   -8.31 KCAL/MOL
REMARK 923 INTER-LIGAND FREE ENERGY PREDICTED BY IDOCK:   -7.84 KCAL/MOL
REMARK 924 INTRA-LIGAND FREE ENERGY PREDICTED BY IDOCK:   -0.48 KCAL/MOL
REMARK 927      BINDING AFFINITY PREDICTED BY RF-SCORE:    0.00 PKD
ROOT
HETATM    1  O   UNL     1     -11.795   6.665  69.307  1.00  0.00    -0.629 OA 
HETATM    2  N   UNL     1     -11.047   6.479  68.134  1.00  0.00    -0.501 N  
HETATM    3  H   UNL     1     -12.167   5.931  69.783  1.00  0.00     0.000 HD 
HETATM    4  C   UNL     1     -10.512   7.532  67.451  1.00  0.00    -0.297 C  
HETATM    5  H   UNL     1     -10.900   5.533  67.783  1.00  0.00     0.000 HD 
HETATM    6  O   UNL     1      -9.919   7.363  66.391  1.00  0.00    -0.155 OA 
ENDROOT
BRANCH   4   7
HETATM    7  C   UNL     1     -10.688   8.873  68.060  1.00  0.00    -0.168 C  
HETATM    8  C   UNL     1     -10.904   9.951  67.293  1.00  0.00    -0.268 C  
BRANCH   8   9
HETATM    9  C   UNL     1     -11.075  11.272  67.895  1.00  0.00    -0.325 A  
HETATM   10  C   UNL     1     -11.701  11.395  69.142  1.00  0.00    -0.410 A  
HETATM   11  C   UNL     1     -11.926  12.658  69.699  1.00  0.00    -0.352 A  
HETATM   12  C   UNL     1     -11.535  13.806  69.010  1.00  0.00    -0.349 A  
HETATM   13  C   UNL     1     -10.898  13.686  67.770  1.00  0.00    -0.253 A  
HETATM   14  C   UNL     1     -10.673  12.423  67.206  1.00  0.00    -0.259 A  
BRANCH  13  15
HETATM   15  S   UNL     1     -10.506  15.153  66.838  1.00  0.00    -0.287 S  
HETATM   16  O   UNL     1     -11.221  15.084  65.581  1.00  0.00    -0.339 OA 
HETATM   17  O   UNL     1      -9.065  15.309  66.867  1.00  0.00    -0.209 OA 
BRANCH  15  18
HETATM   18  N   UNL     1     -11.124  16.417  67.764  1.00  0.00    -0.256 N  
HETATM   19  H   UNL     1     -11.859  16.241  68.447  1.00  0.00     0.000 HD 
BRANCH  18  20
HETATM   20  C   UNL     1     -10.614  17.727  67.585  1.00  0.00    -0.379 A  
HETATM   21  C   UNL     1     -10.128  18.442  68.678  1.00  0.00    -0.407 A  
HETATM   22  C   UNL     1      -9.695  19.758  68.508  1.00  0.00    -0.467 A  
HETATM   23  C   UNL     1      -9.732  20.348  67.244  1.00  0.00    -0.602 A  
HETATM   24  C   UNL     1     -10.204  19.624  66.148  1.00  0.00    -0.604 A  
HETATM   25  C   UNL     1     -10.654  18.315  66.321  1.00  0.00    -0.320 A  
ENDBRANCH  18  20
ENDBRANCH  15  18
ENDBRANCH  13  15
ENDBRANCH   8   9
ENDBRANCH   4   7
TORSDOF 5
ENDMDL
MODEL       75
REMARK 921   NORMALIZED FREE ENERGY PREDICTED BY IDOCK:   -6.06 KCAL/MOL
REMARK 922        TOTAL FREE ENERGY PREDICTED BY IDOCK:   -8.31 KCAL/MOL
REMARK 923 INTER-LIGAND FREE ENERGY PREDICTED BY IDOCK:   -7.71 KCAL/MOL
REMARK 924 INTRA-LIGAND FREE ENERGY PREDICTED BY IDOCK:   -0.60 KCAL/MOL
REMARK 927      BINDING AFFINITY PREDICTED BY RF-SCORE:    0.00 PKD
ROOT
HETATM    1  O   UNL     1     -12.185  16.068  73.552  1.00  0.00    -0.462 OA 
HETATM    2  N   UNL     1     -13.265  15.171  73.536  1.00  0.00    -0.497 N  
HETATM    3  H   UNL     1     -12.072  16.701  74.252  1.00  0.00     0.000 HD 
HETATM    4  C   UNL     1     -13.426  14.263  72.531  1.00  0.00    -0.515 C  
HETATM    5  H   UNL     1     -13.945  15.200  74.295  1.00  0.00     0.000 HD 
HETATM    6  O   UNL     1     -14.410  13.530  72.493  1.00  0.00    -0.713 OA 
ENDROOT
BRANCH   4   7
HETATM    7  C   UNL     1     -12.356  14.213  71.506  1.00  0.00    -0.395 C  
HETATM    8  C   UNL     1     -12.412  14.997  70.419  1.00  0.00    -0.407 C  
BRANCH   8   9
HETATM    9  C   UNL     1     -11.356  14.947  69.409  1.00  0.00    -0.312 A  
HETATM   10  C   UNL     1     -11.055  16.089  68.656  1.00  0.00    -0.349 A  
HETATM   11  C   UNL     1     -10.091  16.035  67.646  1.00  0.00    -0.245 A  
HETATM   12  C   UNL     1      -9.426  14.839  67.374  1.00  0.00    -0.207 A  
HETATM   13  C   UNL     1      -9.715  13.700  68.133  1.00  0.00    -0.229 A  
HETATM   14  C   UNL     1     -10.683  13.747  69.146  1.00  0.00    -0.154 A  
BRANCH  13  15
HETATM   15  S   UNL     1      -8.953  12.145  67.711  1.00  0.00    -0.187 S  
HETATM   16  O   UNL     1      -8.515  11.518  68.940  1.00  0.00    -0.101 OA 
HETATM   17  O   UNL     1      -8.020  12.403  66.632  1.00  0.00    -0.019 OA 
BRANCH  15  18
HETATM   18  N   UNL     1     -10.199  11.237  67.033  1.00  0.00    -0.209 N  
HETATM   19  H   UNL     1     -10.492  10.363  67.468  1.00  0.00     0.000 HD 
BRANCH  18  20
HETATM   20  C   UNL     1     -10.837  11.698  65.854  1.00  0.00    -0.287 A  
HETATM   21  C   UNL     1     -10.377  11.286  64.605  1.00  0.00    -0.373 A  
HETATM   22  C   UNL     1     -10.962  11.801  63.447  1.00  0.00    -0.458 A  
HETATM   23  C   UNL     1     -12.016  12.710  63.542  1.00  0.00    -0.630 A  
HETATM   24  C   UNL     1     -12.486  13.107  64.794  1.00  0.00    -0.460 A  
HETATM   25  C   UNL     1     -11.890  12.608  65.952  1.00  0.00    -0.499 A  
ENDBRANCH  18  20
ENDBRANCH  15  18
ENDBRANCH  13  15
ENDBRANCH   8   9
ENDBRANCH   4   7
TORSDOF 5
ENDMDL
MODEL       76
REMARK 921   NORMALIZED FREE ENERGY PREDICTED BY IDOCK:   -6.06 KCAL/MOL
REMARK 922        TOTAL FREE ENERGY PREDICTED BY IDOCK:   -8.30 KCAL/MOL
REMARK 923 INTER-LIGAND FREE ENERGY PREDICTED BY IDOCK:   -7.75 KCAL/MOL
REMARK 924 INTRA-LIGAND FREE ENERGY PREDICTED BY IDOCK:   -0.56 KCAL/MOL
REMARK 927      BINDING AFFINITY PREDICTED BY RF-SCORE:    0.00 PKD
ROOT
HETATM    1  O   UNL     1     -10.159   7.482  66.462  1.00  0.00    -0.411 OA 
HETATM    2  N   UNL     1      -9.013   7.445  65.652  1.00  0.00    -0.373 N  
HETATM    3  H   UNL     1     -10.462   6.714  66.934  1.00  0.00     0.000 HD 
HETATM    4  C   UNL     1      -8.579   8.547  64.975  1.00  0.00    -0.135 C  
HETATM    5  H   UNL     1      -8.492   6.573  65.567  1.00  0.00     0.000 HD 
HETATM    6  O   UNL     1      -7.616   8.486  64.218  1.00  0.00    -0.108 OA 
ENDROOT
BRANCH   4   7
HETATM    7  C   UNL     1      -9.329   9.805  65.210  1.00  0.00    -0.315 C  
HETATM    8  C   UNL     1      -9.976  10.414  64.206  1.00  0.00    -0.368 C  
BRANCH   8   9
HETATM    9  C   UNL     1     -10.714  11.655  64.439  1.00  0.00    -0.387 A  
HETATM   10  C   UNL     1     -11.713  12.052  63.541  1.00  0.00    -0.566 A  
HETATM   11  C   UNL     1     -12.382  13.266  63.719  1.00  0.00    -0.440 A  
HETATM   12  C   UNL     1     -12.053  14.096  64.791  1.00  0.00    -0.454 A  
HETATM   13  C   UNL     1     -11.065  13.695  65.698  1.00  0.00    -0.294 A  
HETATM   14  C   UNL     1     -10.389  12.481  65.522  1.00  0.00    -0.303 A  
BRANCH  13  15
HETATM   15  S   UNL     1     -10.564  14.806  66.998  1.00  0.00    -0.295 S  
HETATM   16  O   UNL     1      -9.589  14.117  67.818  1.00  0.00    -0.209 OA 
HETATM   17  O   UNL     1     -11.770  15.359  67.581  1.00  0.00    -0.275 OA 
BRANCH  15  18
HETATM   18  N   UNL     1      -9.815  16.083  66.195  1.00  0.00    -0.301 N  
HETATM   19  H   UNL     1      -9.341  15.923  65.307  1.00  0.00     0.000 HD 
BRANCH  18  20
HETATM   20  C   UNL     1      -9.850  17.381  66.763  1.00  0.00    -0.296 A  
HETATM   21  C   UNL     1     -10.531  18.409  66.114  1.00  0.00    -0.422 A  
HETATM   22  C   UNL     1     -10.500  19.701  66.641  1.00  0.00    -0.610 A  
HETATM   23  C   UNL     1      -9.803  19.957  67.822  1.00  0.00    -0.530 A  
HETATM   24  C   UNL     1      -9.136  18.923  68.479  1.00  0.00    -0.392 A  
HETATM   25  C   UNL     1      -9.151  17.635  67.943  1.00  0.00    -0.260 A  
ENDBRANCH  18  20
ENDBRANCH  15  18
ENDBRANCH  13  15
ENDBRANCH   8   9
ENDBRANCH   4   7
TORSDOF 5
ENDMDL
MODEL       77
REMARK 921   NORMALIZED FREE ENERGY PREDICTED BY IDOCK:   -6.06 KCAL/MOL
REMARK 922        TOTAL FREE ENERGY PREDICTED BY IDOCK:   -8.30 KCAL/MOL
REMARK 923 INTER-LIGAND FREE ENERGY PREDICTED BY IDOCK:   -7.72 KCAL/MOL
REMARK 924 INTRA-LIGAND FREE ENERGY PREDICTED BY IDOCK:   -0.58 KCAL/MOL
REMARK 927      BINDING AFFINITY PREDICTED BY RF-SCORE:    0.00 PKD
ROOT
HETATM    1  O   UNL     1     -12.391  14.158  63.189  1.00  0.00    -1.125 OA 
HETATM    2  N   UNL     1     -11.843  12.879  62.997  1.00  0.00    -0.807 N  
HETATM    3  H   UNL     1     -13.063  14.504  62.613  1.00  0.00     0.000 HD 
HETATM    4  C   UNL     1     -10.878  12.383  63.824  1.00  0.00    -0.454 C  
HETATM    5  H   UNL     1     -12.175  12.307  62.221  1.00  0.00     0.000 HD 
HETATM    6  O   UNL     1     -10.359  11.293  63.608  1.00  0.00    -0.341 OA 
ENDROOT
BRANCH   4   7
HETATM    7  C   UNL     1     -10.502  13.227  64.984  1.00  0.00    -0.367 C  
HETATM    8  C   UNL     1      -9.543  12.835  65.835  1.00  0.00    -0.143 C  
BRANCH   8   9
HETATM    9  C   UNL     1      -9.174  13.668  66.979  1.00  0.00    -0.254 A  
HETATM   10  C   UNL     1      -7.874  13.608  67.495  1.00  0.00    -0.185 A  
HETATM   11  C   UNL     1      -7.528  14.353  68.626  1.00  0.00    -0.126 A  
HETATM   12  C   UNL     1      -8.480  15.157  69.253  1.00  0.00    -0.209 A  
HETATM   13  C   UNL     1      -9.776  15.229  68.732  1.00  0.00    -0.212 A  
HETATM   14  C   UNL     1     -10.130  14.482  67.600  1.00  0.00    -0.228 A  
BRANCH  13  15
HETATM   15  S   UNL     1     -11.022  16.162  69.599  1.00  0.00    -0.359 S  
HETATM   16  O   UNL     1     -11.098  15.650  70.951  1.00  0.00    -0.329 OA 
HETATM   17  O   UNL     1     -12.197  16.203  68.752  1.00  0.00    -0.056 OA 
BRANCH  15  18
HETATM   18  N   UNL     1     -10.423  17.736  69.630  1.00  0.00    -0.180 N  
HETATM   19  H   UNL     1     -10.416  18.266  70.501  1.00  0.00     0.000 HD 
BRANCH  18  20
HETATM   20  C   UNL     1      -9.928  18.317  68.436  1.00  0.00    -0.382 A  
HETATM   21  C   UNL     1      -8.625  18.811  68.388  1.00  0.00    -0.373 A  
HETATM   22  C   UNL     1      -8.168  19.447  67.233  1.00  0.00    -0.311 A  
HETATM   23  C   UNL     1      -9.007  19.573  66.126  1.00  0.00    -0.342 A  
HETATM   24  C   UNL     1     -10.305  19.063  66.171  1.00  0.00    -0.537 A  
HETATM   25  C   UNL     1     -10.769  18.442  67.331  1.00  0.00    -0.397 A  
ENDBRANCH  18  20
ENDBRANCH  15  18
ENDBRANCH  13  15
ENDBRANCH   8   9
ENDBRANCH   4   7
TORSDOF 5
ENDMDL
MODEL       78
REMARK 921   NORMALIZED FREE ENERGY PREDICTED BY IDOCK:   -6.05 KCAL/MOL
REMARK 922        TOTAL FREE ENERGY PREDICTED BY IDOCK:   -8.29 KCAL/MOL
REMARK 923 INTER-LIGAND FREE ENERGY PREDICTED BY IDOCK:   -7.53 KCAL/MOL
REMARK 924 INTRA-LIGAND FREE ENERGY PREDICTED BY IDOCK:   -0.77 KCAL/MOL
REMARK 927      BINDING AFFINITY PREDICTED BY RF-SCORE:    0.00 PKD
ROOT
HETATM    1  O   UNL     1     -12.619  13.918  66.975  1.00  0.00    -0.461 OA 
HETATM    2  N   UNL     1     -12.959  14.244  65.653  1.00  0.00    -0.547 N  
HETATM    3  H   UNL     1     -13.005  14.370  67.716  1.00  0.00     0.000 HD 
HETATM    4  C   UNL     1     -12.405  13.594  64.589  1.00  0.00    -0.371 C  
HETATM    5  H   UNL     1     -13.638  14.986  65.483  1.00  0.00     0.000 HD 
HETATM    6  O   UNL     1     -12.659  13.934  63.438  1.00  0.00    -0.853 OA 
ENDROOT
BRANCH   4   7
HETATM    7  C   UNL     1     -11.493  12.468  64.905  1.00  0.00    -0.367 C  
HETATM    8  C   UNL     1     -10.933  11.745  63.924  1.00  0.00    -0.476 C  
BRANCH   8   9
HETATM    9  C   UNL     1     -10.035  10.634  64.237  1.00  0.00    -0.413 A  
HETATM   10  C   UNL     1      -9.189  10.120  63.246  1.00  0.00    -0.320 A  
HETATM   11  C   UNL     1      -8.371   9.019  63.516  1.00  0.00    -0.182 A  
HETATM   12  C   UNL     1      -8.399   8.419  64.774  1.00  0.00    -0.151 A  
HETATM   13  C   UNL     1      -9.233   8.938  65.770  1.00  0.00    -0.221 A  
HETATM   14  C   UNL     1     -10.057  10.040  65.505  1.00  0.00    -0.325 A  
BRANCH  13  15
HETATM   15  S   UNL     1      -9.354   8.102  67.339  1.00  0.00    -0.146 S  
HETATM   16  O   UNL     1      -8.248   7.172  67.432  1.00  0.00    -0.114 OA 
HETATM   17  O   UNL     1     -10.723   7.647  67.480  1.00  0.00    -0.253 OA 
BRANCH  15  18
HETATM   18  N   UNL     1      -9.156   9.322  68.483  1.00  0.00    -0.132 N  
HETATM   19  H   UNL     1      -8.273   9.828  68.547  1.00  0.00     0.000 HD 
BRANCH  18  20
HETATM   20  C   UNL     1     -10.226   9.642  69.355  1.00  0.00    -0.209 A  
HETATM   21  C   UNL     1     -11.146  10.627  69.000  1.00  0.00    -0.307 A  
HETATM   22  C   UNL     1     -12.154  10.988  69.895  1.00  0.00    -0.435 A  
HETATM   23  C   UNL     1     -12.251  10.351  71.133  1.00  0.00    -0.498 A  
HETATM   24  C   UNL     1     -11.339   9.353  71.479  1.00  0.00    -0.464 A  
HETATM   25  C   UNL     1     -10.320   9.005  70.592  1.00  0.00    -0.284 A  
ENDBRANCH  18  20
ENDBRANCH  15  18
ENDBRANCH  13  15
ENDBRANCH   8   9
ENDBRANCH   4   7
TORSDOF 5
ENDMDL
MODEL       79
REMARK 921   NORMALIZED FREE ENERGY PREDICTED BY IDOCK:   -6.05 KCAL/MOL
REMARK 922        TOTAL FREE ENERGY PREDICTED BY IDOCK:   -8.29 KCAL/MOL
REMARK 923 INTER-LIGAND FREE ENERGY PREDICTED BY IDOCK:   -7.62 KCAL/MOL
REMARK 924 INTRA-LIGAND FREE ENERGY PREDICTED BY IDOCK:   -0.67 KCAL/MOL
REMARK 927      BINDING AFFINITY PREDICTED BY RF-SCORE:    0.00 PKD
ROOT
HETATM    1  O   UNL     1     -11.434  15.097  63.989  1.00  0.00    -0.644 OA 
HETATM    2  N   UNL     1     -12.313  14.196  63.367  1.00  0.00    -1.144 N  
HETATM    3  H   UNL     1     -11.460  16.029  63.803  1.00  0.00     0.000 HD 
HETATM    4  C   UNL     1     -12.276  12.859  63.634  1.00  0.00    -0.499 C  
HETATM    5  H   UNL     1     -12.997  14.551  62.699  1.00  0.00     0.000 HD 
HETATM    6  O   UNL     1     -13.003  12.074  63.035  1.00  0.00    -0.540 OA 
ENDROOT
BRANCH   4   7
HETATM    7  C   UNL     1     -11.319  12.420  64.679  1.00  0.00    -0.364 C  
HETATM    8  C   UNL     1     -11.759  11.925  65.845  1.00  0.00    -0.208 C  
BRANCH   8   9
HETATM    9  C   UNL     1     -10.815  11.493  66.875  1.00  0.00    -0.331 A  
HETATM   10  C   UNL     1      -9.439  11.524  66.618  1.00  0.00    -0.208 A  
HETATM   11  C   UNL     1      -8.531  11.056  67.572  1.00  0.00    -0.127 A  
HETATM   12  C   UNL     1      -8.992  10.546  68.786  1.00  0.00    -0.166 A  
HETATM   13  C   UNL     1     -10.365  10.526  69.051  1.00  0.00    -0.213 A  
HETATM   14  C   UNL     1     -11.280  10.991  68.097  1.00  0.00    -0.364 A  
BRANCH  13  15
HETATM   15  S   UNL     1     -10.960   9.768  70.551  1.00  0.00    -0.343 S  
HETATM   16  O   UNL     1     -11.906  10.678  71.161  1.00  0.00    -0.328 OA 
HETATM   17  O   UNL     1      -9.802   9.296  71.283  1.00  0.00    -0.289 OA 
BRANCH  15  18
HETATM   18  N   UNL     1     -11.770   8.386  70.030  1.00  0.00    -0.402 N  
HETATM   19  H   UNL     1     -12.785   8.328  70.101  1.00  0.00     0.000 HD 
BRANCH  18  20
HETATM   20  C   UNL     1     -11.028   7.304  69.493  1.00  0.00    -0.164 A  
HETATM   21  C   UNL     1     -10.583   7.350  68.173  1.00  0.00    -0.216 A  
HETATM   22  C   UNL     1      -9.917   6.251  67.628  1.00  0.00    -0.151 A  
HETATM   23  C   UNL     1      -9.683   5.118  68.408  1.00  0.00    -0.200 A  
HETATM   24  C   UNL     1     -10.116   5.081  69.734  1.00  0.00    -0.337 A  
HETATM   25  C   UNL     1     -10.798   6.172  70.274  1.00  0.00    -0.385 A  
ENDBRANCH  18  20
ENDBRANCH  15  18
ENDBRANCH  13  15
ENDBRANCH   8   9
ENDBRANCH   4   7
TORSDOF 5
ENDMDL
MODEL       80
REMARK 921   NORMALIZED FREE ENERGY PREDICTED BY IDOCK:   -6.05 KCAL/MOL
REMARK 922        TOTAL FREE ENERGY PREDICTED BY IDOCK:   -8.29 KCAL/MOL
REMARK 923 INTER-LIGAND FREE ENERGY PREDICTED BY IDOCK:   -7.55 KCAL/MOL
REMARK 924 INTRA-LIGAND FREE ENERGY PREDICTED BY IDOCK:   -0.74 KCAL/MOL
REMARK 927      BINDING AFFINITY PREDICTED BY RF-SCORE:    0.00 PKD
ROOT
HETATM    1  O   UNL     1     -12.719  10.488  71.247  1.00  0.00    -0.356 OA 
HETATM    2  N   UNL     1     -11.612   9.685  71.567  1.00  0.00    -0.387 N  
HETATM    3  H   UNL     1     -13.436  10.616  71.857  1.00  0.00     0.000 HD 
HETATM    4  C   UNL     1     -10.583   9.501  70.691  1.00  0.00    -0.308 C  
HETATM    5  H   UNL     1     -11.577   9.229  72.478  1.00  0.00     0.000 HD 
HETATM    6  O   UNL     1      -9.654   8.745  70.955  1.00  0.00    -0.185 OA 
ENDROOT
BRANCH   4   7
HETATM    7  C   UNL     1     -10.653  10.263  69.420  1.00  0.00    -0.262 C  
HETATM    8  C   UNL     1     -10.627   9.628  68.239  1.00  0.00    -0.268 C  
BRANCH   8   9
HETATM    9  C   UNL     1     -10.695  10.380  66.987  1.00  0.00    -0.298 A  
HETATM   10  C   UNL     1     -10.071   9.880  65.837  1.00  0.00    -0.316 A  
HETATM   11  C   UNL     1     -10.077  10.620  64.651  1.00  0.00    -0.417 A  
HETATM   12  C   UNL     1     -10.700  11.867  64.607  1.00  0.00    -0.356 A  
HETATM   13  C   UNL     1     -11.336  12.363  65.750  1.00  0.00    -0.352 A  
HETATM   14  C   UNL     1     -11.331  11.628  66.943  1.00  0.00    -0.364 A  
BRANCH  13  15
HETATM   15  S   UNL     1     -12.029  14.005  65.728  1.00  0.00    -0.425 S  
HETATM   16  O   UNL     1     -13.361  13.915  65.166  1.00  0.00    -0.698 OA 
HETATM   17  O   UNL     1     -11.034  14.884  65.148  1.00  0.00    -0.350 OA 
BRANCH  15  18
HETATM   18  N   UNL     1     -12.136  14.438  67.352  1.00  0.00    -0.588 N  
HETATM   19  H   UNL     1     -12.961  14.190  67.896  1.00  0.00     0.000 HD 
BRANCH  18  20
HETATM   20  C   UNL     1     -11.070  15.150  67.955  1.00  0.00    -0.308 A  
HETATM   21  C   UNL     1     -11.140  16.537  68.081  1.00  0.00    -0.303 A  
HETATM   22  C   UNL     1     -10.055  17.239  68.610  1.00  0.00    -0.341 A  
HETATM   23  C   UNL     1      -8.914  16.554  69.026  1.00  0.00    -0.225 A  
HETATM   24  C   UNL     1      -8.854  15.164  68.914  1.00  0.00    -0.205 A  
HETATM   25  C   UNL     1      -9.929  14.463  68.369  1.00  0.00    -0.241 A  
ENDBRANCH  18  20
ENDBRANCH  15  18
ENDBRANCH  13  15
ENDBRANCH   8   9
ENDBRANCH   4   7
TORSDOF 5
ENDMDL
MODEL       81
REMARK 921   NORMALIZED FREE ENERGY PREDICTED BY IDOCK:   -6.03 KCAL/MOL
REMARK 922        TOTAL FREE ENERGY PREDICTED BY IDOCK:   -8.27 KCAL/MOL
REMARK 923 INTER-LIGAND FREE ENERGY PREDICTED BY IDOCK:   -7.82 KCAL/MOL
REMARK 924 INTRA-LIGAND FREE ENERGY PREDICTED BY IDOCK:   -0.45 KCAL/MOL
REMARK 927      BINDING AFFINITY PREDICTED BY RF-SCORE:    0.00 PKD
ROOT
HETATM    1  O   UNL     1     -12.004  11.625  63.086  1.00  0.00    -0.874 OA 
HETATM    2  N   UNL     1     -12.365  12.976  62.966  1.00  0.00    -0.780 N  
HETATM    3  H   UNL     1     -12.114  11.013  62.366  1.00  0.00     0.000 HD 
HETATM    4  C   UNL     1     -12.207  13.854  63.999  1.00  0.00    -0.369 C  
HETATM    5  H   UNL     1     -12.755  13.310  62.085  1.00  0.00     0.000 HD 
HETATM    6  O   UNL     1     -12.588  15.016  63.905  1.00  0.00    -0.813 OA 
ENDROOT
BRANCH   4   7
HETATM    7  C   UNL     1     -11.553  13.326  65.221  1.00  0.00    -0.335 C  
HETATM    8  C   UNL     1     -10.221  13.382  65.364  1.00  0.00    -0.311 C  
BRANCH   8   9
HETATM    9  C   UNL     1      -9.578  12.860  66.569  1.00  0.00    -0.259 A  
HETATM   10  C   UNL     1      -8.590  13.614  67.215  1.00  0.00    -0.220 A  
HETATM   11  C   UNL     1      -7.925  13.099  68.331  1.00  0.00    -0.130 A  
HETATM   12  C   UNL     1      -8.237  11.824  68.805  1.00  0.00    -0.027 A  
HETATM   13  C   UNL     1      -9.232  11.074  68.170  1.00  0.00    -0.165 A  
HETATM   14  C   UNL     1      -9.900  11.584  67.049  1.00  0.00    -0.212 A  
BRANCH  13  15
HETATM   15  S   UNL     1      -9.548   9.403  68.702  1.00  0.00    -0.149 S  
HETATM   16  O   UNL     1      -8.422   8.589  68.294  1.00  0.00    -0.132 OA 
HETATM   17  O   UNL     1     -10.897   9.068  68.291  1.00  0.00    -0.142 OA 
BRANCH  15  18
HETATM   18  N   UNL     1      -9.590   9.498  70.383  1.00  0.00    -0.261 N  
HETATM   19  H   UNL     1      -8.723   9.547  70.916  1.00  0.00     0.000 HD 
BRANCH  18  20
HETATM   20  C   UNL     1     -10.840   9.509  71.050  1.00  0.00    -0.353 A  
HETATM   21  C   UNL     1     -11.223   8.422  71.834  1.00  0.00    -0.379 A  
HETATM   22  C   UNL     1     -12.486   8.408  72.428  1.00  0.00    -0.390 A  
HETATM   23  C   UNL     1     -13.353   9.486  72.252  1.00  0.00    -0.526 A  
HETATM   24  C   UNL     1     -12.961  10.580  71.480  1.00  0.00    -0.565 A  
HETATM   25  C   UNL     1     -11.707  10.587  70.871  1.00  0.00    -0.431 A  
ENDBRANCH  18  20
ENDBRANCH  15  18
ENDBRANCH  13  15
ENDBRANCH   8   9
ENDBRANCH   4   7
TORSDOF 5
ENDMDL
MODEL       82
REMARK 921   NORMALIZED FREE ENERGY PREDICTED BY IDOCK:   -6.01 KCAL/MOL
REMARK 922        TOTAL FREE ENERGY PREDICTED BY IDOCK:   -8.24 KCAL/MOL
REMARK 923 INTER-LIGAND FREE ENERGY PREDICTED BY IDOCK:   -7.63 KCAL/MOL
REMARK 924 INTRA-LIGAND FREE ENERGY PREDICTED BY IDOCK:   -0.61 KCAL/MOL
REMARK 927      BINDING AFFINITY PREDICTED BY RF-SCORE:    0.00 PKD
ROOT
HETATM    1  O   UNL     1     -12.178  13.990  67.863  1.00  0.00    -0.502 OA 
HETATM    2  N   UNL     1     -12.659  14.287  66.577  1.00  0.00    -0.500 N  
HETATM    3  H   UNL     1     -12.364  14.552  68.606  1.00  0.00     0.000 HD 
HETATM    4  C   UNL     1     -12.392  13.480  65.509  1.00  0.00    -0.481 C  
HETATM    5  H   UNL     1     -13.221  15.126  66.438  1.00  0.00     0.000 HD 
HETATM    6  O   UNL     1     -12.760  13.784  64.380  1.00  0.00    -0.649 OA 
ENDROOT
BRANCH   4   7
HETATM    7  C   UNL     1     -11.646  12.230  65.795  1.00  0.00    -0.443 C  
HETATM    8  C   UNL     1     -10.744  11.757  64.923  1.00  0.00    -0.347 C  
BRANCH   8   9
HETATM    9  C   UNL     1     -10.009  10.525  65.205  1.00  0.00    -0.364 A  
HETATM   10  C   UNL     1      -8.972  10.120  64.356  1.00  0.00    -0.264 A  
HETATM   11  C   UNL     1      -8.304   8.913  64.581  1.00  0.00    -0.179 A  
HETATM   12  C   UNL     1      -8.672   8.098  65.651  1.00  0.00    -0.176 A  
HETATM   13  C   UNL     1      -9.699   8.506  66.510  1.00  0.00    -0.260 A  
HETATM   14  C   UNL     1     -10.374   9.714  66.287  1.00  0.00    -0.230 A  
BRANCH  13  15
HETATM   15  S   UNL     1     -10.248   7.413  67.806  1.00  0.00    -0.212 S  
HETATM   16  O   UNL     1      -9.073   6.839  68.428  1.00  0.00    -0.127 OA 
HETATM   17  O   UNL     1     -11.283   6.567  67.246  1.00  0.00    -0.376 OA 
BRANCH  15  18
HETATM   18  N   UNL     1     -11.025   8.423  68.906  1.00  0.00    -0.428 N  
HETATM   19  H   UNL     1     -11.459   9.290  68.590  1.00  0.00     0.000 HD 
BRANCH  18  20
HETATM   20  C   UNL     1     -11.071   8.060  70.276  1.00  0.00    -0.224 A  
HETATM   21  C   UNL     1     -10.337   8.782  71.214  1.00  0.00    -0.331 A  
HETATM   22  C   UNL     1     -10.328   8.375  72.549  1.00  0.00    -0.371 A  
HETATM   23  C   UNL     1     -11.067   7.259  72.944  1.00  0.00    -0.369 A  
HETATM   24  C   UNL     1     -11.814   6.547  72.005  1.00  0.00    -0.374 A  
HETATM   25  C   UNL     1     -11.809   6.943  70.667  1.00  0.00    -0.418 A  
ENDBRANCH  18  20
ENDBRANCH  15  18
ENDBRANCH  13  15
ENDBRANCH   8   9
ENDBRANCH   4   7
TORSDOF 5
ENDMDL
MODEL       83
REMARK 921   NORMALIZED FREE ENERGY PREDICTED BY IDOCK:   -5.99 KCAL/MOL
REMARK 922        TOTAL FREE ENERGY PREDICTED BY IDOCK:   -8.22 KCAL/MOL
REMARK 923 INTER-LIGAND FREE ENERGY PREDICTED BY IDOCK:   -7.47 KCAL/MOL
REMARK 924 INTRA-LIGAND FREE ENERGY PREDICTED BY IDOCK:   -0.75 KCAL/MOL
REMARK 927      BINDING AFFINITY PREDICTED BY RF-SCORE:    0.00 PKD
ROOT
HETATM    1  O   UNL     1     -14.147  14.784  71.035  1.00  0.00    -0.575 OA 
HETATM    2  N   UNL     1     -13.141  14.978  70.075  1.00  0.00    -0.579 N  
HETATM    3  H   UNL     1     -14.844  15.417  71.163  1.00  0.00     0.000 HD 
HETATM    4  C   UNL     1     -12.140  14.069  69.892  1.00  0.00    -0.345 C  
HETATM    5  H   UNL     1     -13.160  15.819  69.499  1.00  0.00     0.000 HD 
HETATM    6  O   UNL     1     -11.230  14.281  69.097  1.00  0.00    -0.249 OA 
ENDROOT
BRANCH   4   7
HETATM    7  C   UNL     1     -12.220  12.827  70.699  1.00  0.00    -0.374 C  
HETATM    8  C   UNL     1     -12.012  11.629  70.133  1.00  0.00    -0.441 C  
BRANCH   8   9
HETATM    9  C   UNL     1     -12.092  10.405  70.929  1.00  0.00    -0.477 A  
HETATM   10  C   UNL     1     -13.333   9.956  71.397  1.00  0.00    -0.447 A  
HETATM   11  C   UNL     1     -13.414   8.822  72.210  1.00  0.00    -0.463 A  
HETATM   12  C   UNL     1     -12.255   8.134  72.569  1.00  0.00    -0.335 A  
HETATM   13  C   UNL     1     -11.015   8.572  72.092  1.00  0.00    -0.357 A  
HETATM   14  C   UNL     1     -10.927   9.710  71.279  1.00  0.00    -0.399 A  
BRANCH  13  15
HETATM   15  S   UNL     1      -9.525   7.763  72.644  1.00  0.00    -0.218 S  
HETATM   16  O   UNL     1      -9.823   7.091  73.891  1.00  0.00    -0.258 OA 
HETATM   17  O   UNL     1      -8.452   8.733  72.558  1.00  0.00    -0.403 OA 
BRANCH  15  18
HETATM   18  N   UNL     1      -9.205   6.616  71.453  1.00  0.00    -0.151 N  
HETATM   19  H   UNL     1      -8.728   5.747  71.692  1.00  0.00     0.000 HD 
BRANCH  18  20
HETATM   20  C   UNL     1      -9.603   6.868  70.116  1.00  0.00    -0.161 A  
HETATM   21  C   UNL     1     -10.827   6.391  69.651  1.00  0.00    -0.380 A  
HETATM   22  C   UNL     1     -11.181   6.580  68.314  1.00  0.00    -0.259 A  
HETATM   23  C   UNL     1     -10.319   7.259  67.452  1.00  0.00    -0.330 A  
HETATM   24  C   UNL     1      -9.101   7.750  67.925  1.00  0.00    -0.132 A  
HETATM   25  C   UNL     1      -8.739   7.546  69.257  1.00  0.00    -0.136 A  
ENDBRANCH  18  20
ENDBRANCH  15  18
ENDBRANCH  13  15
ENDBRANCH   8   9
ENDBRANCH   4   7
TORSDOF 5
ENDMDL
MODEL       84
REMARK 921   NORMALIZED FREE ENERGY PREDICTED BY IDOCK:   -5.98 KCAL/MOL
REMARK 922        TOTAL FREE ENERGY PREDICTED BY IDOCK:   -8.20 KCAL/MOL
REMARK 923 INTER-LIGAND FREE ENERGY PREDICTED BY IDOCK:   -7.61 KCAL/MOL
REMARK 924 INTRA-LIGAND FREE ENERGY PREDICTED BY IDOCK:   -0.59 KCAL/MOL
REMARK 927      BINDING AFFINITY PREDICTED BY RF-SCORE:    0.00 PKD
ROOT
HETATM    1  O   UNL     1      -9.445  16.944  68.598  1.00  0.00    -0.252 OA 
HETATM    2  N   UNL     1      -9.893  17.714  67.513  1.00  0.00    -0.290 N  
HETATM    3  H   UNL     1      -9.129  17.346  69.399  1.00  0.00     0.000 HD 
HETATM    4  C   UNL     1     -10.347  17.136  66.363  1.00  0.00    -0.307 C  
HETATM    5  H   UNL     1      -9.879  18.731  67.586  1.00  0.00     0.000 HD 
HETATM    6  O   UNL     1     -10.673  17.818  65.398  1.00  0.00    -0.626 OA 
ENDROOT
BRANCH   4   7
HETATM    7  C   UNL     1     -10.425  15.654  66.355  1.00  0.00    -0.309 C  
HETATM    8  C   UNL     1     -10.156  14.961  65.239  1.00  0.00    -0.380 C  
BRANCH   8   9
HETATM    9  C   UNL     1     -10.233  13.501  65.231  1.00  0.00    -0.323 A  
HETATM   10  C   UNL     1     -10.516  12.823  64.039  1.00  0.00    -0.433 A  
HETATM   11  C   UNL     1     -10.654  11.433  64.032  1.00  0.00    -0.444 A  
HETATM   12  C   UNL     1     -10.519  10.710  65.218  1.00  0.00    -0.264 A  
HETATM   13  C   UNL     1     -10.224  11.383  66.408  1.00  0.00    -0.230 A  
HETATM   14  C   UNL     1     -10.087  12.777  66.421  1.00  0.00    -0.266 A  
BRANCH  13  15
HETATM   15  S   UNL     1     -10.167  10.475  67.941  1.00  0.00    -0.193 S  
HETATM   16  O   UNL     1      -9.339  11.219  68.866  1.00  0.00    -0.163 OA 
HETATM   17  O   UNL     1      -9.864   9.096  67.613  1.00  0.00    -0.156 OA 
BRANCH  15  18
HETATM   18  N   UNL     1     -11.759  10.477  68.489  1.00  0.00    -0.502 N  
HETATM   19  H   UNL     1     -12.464   9.906  68.024  1.00  0.00     0.000 HD 
BRANCH  18  20
HETATM   20  C   UNL     1     -12.112  11.279  69.603  1.00  0.00    -0.322 A  
HETATM   21  C   UNL     1     -12.630  10.687  70.754  1.00  0.00    -0.479 A  
HETATM   22  C   UNL     1     -13.043  11.489  71.819  1.00  0.00    -0.503 A  
HETATM   23  C   UNL     1     -12.922  12.876  71.738  1.00  0.00    -0.416 A  
HETATM   24  C   UNL     1     -12.388  13.465  70.591  1.00  0.00    -0.423 A  
HETATM   25  C   UNL     1     -11.991  12.666  69.519  1.00  0.00    -0.332 A  
ENDBRANCH  18  20
ENDBRANCH  15  18
ENDBRANCH  13  15
ENDBRANCH   8   9
ENDBRANCH   4   7
TORSDOF 5
ENDMDL
MODEL       85
REMARK 921   NORMALIZED FREE ENERGY PREDICTED BY IDOCK:   -5.97 KCAL/MOL
REMARK 922        TOTAL FREE ENERGY PREDICTED BY IDOCK:   -8.18 KCAL/MOL
REMARK 923 INTER-LIGAND FREE ENERGY PREDICTED BY IDOCK:   -7.65 KCAL/MOL
REMARK 924 INTRA-LIGAND FREE ENERGY PREDICTED BY IDOCK:   -0.53 KCAL/MOL
REMARK 927      BINDING AFFINITY PREDICTED BY RF-SCORE:    0.00 PKD
ROOT
HETATM    1  O   UNL     1     -11.640   9.346  69.239  1.00  0.00    -0.419 OA 
HETATM    2  N   UNL     1     -12.445   9.556  70.369  1.00  0.00    -0.475 N  
HETATM    3  H   UNL     1     -11.543   8.485  68.848  1.00  0.00     0.000 HD 
HETATM    4  C   UNL     1     -12.584  10.792  70.931  1.00  0.00    -0.401 C  
HETATM    5  H   UNL     1     -12.939   8.764  70.782  1.00  0.00     0.000 HD 
HETATM    6  O   UNL     1     -13.235  10.951  71.958  1.00  0.00    -0.492 OA 
ENDROOT
BRANCH   4   7
HETATM    7  C   UNL     1     -11.912  11.914  70.232  1.00  0.00    -0.416 C  
HETATM    8  C   UNL     1     -12.449  13.143  70.235  1.00  0.00    -0.233 C  
BRANCH   8   9
HETATM    9  C   UNL     1     -11.786  14.248  69.545  1.00  0.00    -0.366 A  
HETATM   10  C   UNL     1     -11.360  15.369  70.269  1.00  0.00    -0.332 A  
HETATM   11  C   UNL     1     -10.782  16.457  69.612  1.00  0.00    -0.337 A  
HETATM   12  C   UNL     1     -10.631  16.439  68.225  1.00  0.00    -0.318 A  
HETATM   13  C   UNL     1     -11.043  15.315  67.500  1.00  0.00    -0.324 A  
HETATM   14  C   UNL     1     -11.627  14.222  68.154  1.00  0.00    -0.365 A  
BRANCH  13  15
HETATM   15  S   UNL     1     -10.958  15.339  65.720  1.00  0.00    -0.317 S  
HETATM   16  O   UNL     1     -10.615  16.684  65.311  1.00  0.00    -0.596 OA 
HETATM   17  O   UNL     1     -12.156  14.691  65.224  1.00  0.00    -0.347 OA 
BRANCH  15  18
HETATM   18  N   UNL     1      -9.687  14.299  65.346  1.00  0.00    -0.557 N  
HETATM   19  H   UNL     1      -8.837  14.662  64.916  1.00  0.00     0.000 HD 
BRANCH  18  20
HETATM   20  C   UNL     1      -9.807  12.917  65.635  1.00  0.00    -0.175 A  
HETATM   21  C   UNL     1     -10.573  12.096  64.809  1.00  0.00    -0.335 A  
HETATM   22  C   UNL     1     -10.748  10.751  65.140  1.00  0.00    -0.159 A  
HETATM   23  C   UNL     1     -10.143  10.228  66.283  1.00  0.00    -0.300 A  
HETATM   24  C   UNL     1      -9.363  11.049  67.099  1.00  0.00    -0.177 A  
HETATM   25  C   UNL     1      -9.203  12.397  66.779  1.00  0.00    -0.212 A  
ENDBRANCH  18  20
ENDBRANCH  15  18
ENDBRANCH  13  15
ENDBRANCH   8   9
ENDBRANCH   4   7
TORSDOF 5
ENDMDL
MODEL       86
REMARK 921   NORMALIZED FREE ENERGY PREDICTED BY IDOCK:   -5.96 KCAL/MOL
REMARK 922        TOTAL FREE ENERGY PREDICTED BY IDOCK:   -8.17 KCAL/MOL
REMARK 923 INTER-LIGAND FREE ENERGY PREDICTED BY IDOCK:   -7.62 KCAL/MOL
REMARK 924 INTRA-LIGAND FREE ENERGY PREDICTED BY IDOCK:   -0.55 KCAL/MOL
REMARK 927      BINDING AFFINITY PREDICTED BY RF-SCORE:    0.00 PKD
ROOT
HETATM    1  O   UNL     1     -13.182  13.211  65.088  1.00  0.00    -0.683 OA 
HETATM    2  N   UNL     1     -12.106  14.091  65.283  1.00  0.00    -0.388 N  
HETATM    3  H   UNL     1     -13.722  13.249  64.306  1.00  0.00     0.000 HD 
HETATM    4  C   UNL     1     -11.331  14.036  66.405  1.00  0.00    -0.333 C  
HETATM    5  H   UNL     1     -11.898  14.788  64.568  1.00  0.00     0.000 HD 
HETATM    6  O   UNL     1     -10.436  14.853  66.595  1.00  0.00    -0.281 OA 
ENDROOT
BRANCH   4   7
HETATM    7  C   UNL     1     -11.630  12.944  67.362  1.00  0.00    -0.414 C  
HETATM    8  C   UNL     1     -11.581  13.161  68.685  1.00  0.00    -0.356 C  
BRANCH   8   9
HETATM    9  C   UNL     1     -11.876  12.083  69.628  1.00  0.00    -0.401 A  
HETATM   10  C   UNL     1     -12.773  12.303  70.681  1.00  0.00    -0.139 A  
HETATM   11  C   UNL     1     -13.014  11.300  71.624  1.00  0.00    -0.537 A  
HETATM   12  C   UNL     1     -12.356  10.074  71.527  1.00  0.00    -0.513 A  
HETATM   13  C   UNL     1     -11.470   9.847  70.469  1.00  0.00    -0.318 A  
HETATM   14  C   UNL     1     -11.221  10.850  69.522  1.00  0.00    -0.340 A  
BRANCH  13  15
HETATM   15  S   UNL     1     -10.541   8.327  70.411  1.00  0.00    -0.227 S  
HETATM   16  O   UNL     1     -10.462   7.805  71.759  1.00  0.00    -0.208 OA 
HETATM   17  O   UNL     1      -9.342   8.584  69.640  1.00  0.00    -0.156 OA 
BRANCH  15  18
HETATM   18  N   UNL     1     -11.482   7.297  69.467  1.00  0.00    -0.492 N  
HETATM   19  H   UNL     1     -12.499   7.362  69.493  1.00  0.00     0.000 HD 
BRANCH  18  20
HETATM   20  C   UNL     1     -10.849   6.339  68.636  1.00  0.00    -0.333 A  
HETATM   21  C   UNL     1     -10.966   6.431  67.250  1.00  0.00    -0.474 A  
HETATM   22  C   UNL     1     -10.401   5.445  66.440  1.00  0.00    -0.298 A  
HETATM   23  C   UNL     1      -9.707   4.380  67.016  1.00  0.00    -0.232 A  
HETATM   24  C   UNL     1      -9.578   4.299  68.403  1.00  0.00    -0.197 A  
HETATM   25  C   UNL     1     -10.157   5.275  69.215  1.00  0.00    -0.300 A  
ENDBRANCH  18  20
ENDBRANCH  15  18
ENDBRANCH  13  15
ENDBRANCH   8   9
ENDBRANCH   4   7
TORSDOF 5
ENDMDL
MODEL       87
REMARK 921   NORMALIZED FREE ENERGY PREDICTED BY IDOCK:   -5.95 KCAL/MOL
REMARK 922        TOTAL FREE ENERGY PREDICTED BY IDOCK:   -8.16 KCAL/MOL
REMARK 923 INTER-LIGAND FREE ENERGY PREDICTED BY IDOCK:   -7.41 KCAL/MOL
REMARK 924 INTRA-LIGAND FREE ENERGY PREDICTED BY IDOCK:   -0.75 KCAL/MOL
REMARK 927      BINDING AFFINITY PREDICTED BY RF-SCORE:    0.00 PKD
ROOT
HETATM    1  O   UNL     1      -9.982  13.144  63.884  1.00  0.00    -0.760 OA 
HETATM    2  N   UNL     1      -9.811  11.754  63.776  1.00  0.00    -0.443 N  
HETATM    3  H   UNL     1      -9.964  13.709  63.120  1.00  0.00     0.000 HD 
HETATM    4  C   UNL     1      -9.837  10.942  64.873  1.00  0.00    -0.284 C  
HETATM    5  H   UNL     1      -9.664  11.341  62.855  1.00  0.00     0.000 HD 
HETATM    6  O   UNL     1      -9.620   9.739  64.774  1.00  0.00    -0.293 OA 
ENDROOT
BRANCH   4   7
HETATM    7  C   UNL     1     -10.142  11.593  66.170  1.00  0.00    -0.259 C  
HETATM    8  C   UNL     1     -11.142  11.144  66.943  1.00  0.00    -0.313 C  
BRANCH   8   9
HETATM    9  C   UNL     1     -11.442  11.787  68.221  1.00  0.00    -0.370 A  
HETATM   10  C   UNL     1     -12.057  11.054  69.244  1.00  0.00    -0.363 A  
HETATM   11  C   UNL     1     -12.406  11.674  70.447  1.00  0.00    -0.373 A  
HETATM   12  C   UNL     1     -12.149  13.033  70.634  1.00  0.00    -0.333 A  
HETATM   13  C   UNL     1     -11.523  13.764  69.620  1.00  0.00    -0.237 A  
HETATM   14  C   UNL     1     -11.174  13.149  68.410  1.00  0.00    -0.305 A  
BRANCH  13  15
HETATM   15  S   UNL     1     -11.301  15.522  69.812  1.00  0.00    -0.352 S  
HETATM   16  O   UNL     1      -9.927  15.755  70.205  1.00  0.00    -0.214 OA 
HETATM   17  O   UNL     1     -12.400  16.008  70.622  1.00  0.00    -0.341 OA 
BRANCH  15  18
HETATM   18  N   UNL     1     -11.556  16.149  68.270  1.00  0.00    -0.269 N  
HETATM   19  H   UNL     1     -12.418  15.943  67.768  1.00  0.00     0.000 HD 
BRANCH  18  20
HETATM   20  C   UNL     1     -10.560  16.965  67.675  1.00  0.00    -0.325 A  
HETATM   21  C   UNL     1      -9.609  16.399  66.828  1.00  0.00    -0.263 A  
HETATM   22  C   UNL     1      -8.589  17.195  66.304  1.00  0.00    -0.276 A  
HETATM   23  C   UNL     1      -8.533  18.554  66.614  1.00  0.00    -0.288 A  
HETATM   24  C   UNL     1      -9.497  19.120  67.449  1.00  0.00    -0.362 A  
HETATM   25  C   UNL     1     -10.506  18.323  67.988  1.00  0.00    -0.387 A  
ENDBRANCH  18  20
ENDBRANCH  15  18
ENDBRANCH  13  15
ENDBRANCH   8   9
ENDBRANCH   4   7
TORSDOF 5
ENDMDL
MODEL       88
REMARK 921   NORMALIZED FREE ENERGY PREDICTED BY IDOCK:   -5.94 KCAL/MOL
REMARK 922        TOTAL FREE ENERGY PREDICTED BY IDOCK:   -8.15 KCAL/MOL
REMARK 923 INTER-LIGAND FREE ENERGY PREDICTED BY IDOCK:   -7.65 KCAL/MOL
REMARK 924 INTRA-LIGAND FREE ENERGY PREDICTED BY IDOCK:   -0.50 KCAL/MOL
REMARK 927      BINDING AFFINITY PREDICTED BY RF-SCORE:    0.00 PKD
ROOT
HETATM    1  O   UNL     1     -10.504   8.067  66.498  1.00  0.00    -0.455 OA 
HETATM    2  N   UNL     1     -10.722   8.349  67.856  1.00  0.00    -0.461 N  
HETATM    3  H   UNL     1     -10.349   7.181  66.190  1.00  0.00     0.000 HD 
HETATM    4  C   UNL     1     -10.944   9.621  68.297  1.00  0.00    -0.121 C  
HETATM    5  H   UNL     1     -10.714   7.583  68.530  1.00  0.00     0.000 HD 
HETATM    6  O   UNL     1     -11.066   9.863  69.493  1.00  0.00    -0.233 OA 
ENDROOT
BRANCH   4   7
HETATM    7  C   UNL     1     -11.031  10.675  67.258  1.00  0.00    -0.348 C  
HETATM    8  C   UNL     1     -11.405  11.922  67.577  1.00  0.00    -0.381 C  
BRANCH   8   9
HETATM    9  C   UNL     1     -11.492  12.961  66.551  1.00  0.00    -0.390 A  
HETATM   10  C   UNL     1     -12.113  12.683  65.327  1.00  0.00    -0.519 A  
HETATM   11  C   UNL     1     -12.146  13.648  64.317  1.00  0.00    -0.480 A  
HETATM   12  C   UNL     1     -11.552  14.894  64.519  1.00  0.00    -0.356 A  
HETATM   13  C   UNL     1     -10.943  15.179  65.745  1.00  0.00    -0.349 A  
HETATM   14  C   UNL     1     -10.904  14.215  66.761  1.00  0.00    -0.296 A  
BRANCH  13  15
HETATM   15  S   UNL     1     -10.083  16.726  65.961  1.00  0.00    -0.309 S  
HETATM   16  O   UNL     1     -10.874  17.763  65.333  1.00  0.00    -0.550 OA 
HETATM   17  O   UNL     1      -8.703  16.507  65.580  1.00  0.00    -0.401 OA 
BRANCH  15  18
HETATM   18  N   UNL     1     -10.067  16.968  67.628  1.00  0.00    -0.288 N  
HETATM   19  H   UNL     1     -10.909  16.803  68.179  1.00  0.00     0.000 HD 
BRANCH  18  20
HETATM   20  C   UNL     1      -8.874  17.402  68.258  1.00  0.00    -0.264 A  
HETATM   21  C   UNL     1      -8.611  18.764  68.390  1.00  0.00    -0.373 A  
HETATM   22  C   UNL     1      -7.401  19.185  68.945  1.00  0.00    -0.379 A  
HETATM   23  C   UNL     1      -6.469  18.244  69.383  1.00  0.00    -0.239 A  
HETATM   24  C   UNL     1      -6.743  16.881  69.266  1.00  0.00    -0.238 A  
HETATM   25  C   UNL     1      -7.943  16.459  68.694  1.00  0.00    -0.220 A  
ENDBRANCH  18  20
ENDBRANCH  15  18
ENDBRANCH  13  15
ENDBRANCH   8   9
ENDBRANCH   4   7
TORSDOF 5
ENDMDL
MODEL       89
REMARK 921   NORMALIZED FREE ENERGY PREDICTED BY IDOCK:   -5.93 KCAL/MOL
REMARK 922        TOTAL FREE ENERGY PREDICTED BY IDOCK:   -8.14 KCAL/MOL
REMARK 923 INTER-LIGAND FREE ENERGY PREDICTED BY IDOCK:   -7.41 KCAL/MOL
REMARK 924 INTRA-LIGAND FREE ENERGY PREDICTED BY IDOCK:   -0.73 KCAL/MOL
REMARK 927      BINDING AFFINITY PREDICTED BY RF-SCORE:    0.00 PKD
ROOT
HETATM    1  O   UNL     1     -10.296  15.880  66.000  1.00  0.00    -0.310 OA 
HETATM    2  N   UNL     1     -10.103  17.110  66.648  1.00  0.00    -0.295 N  
HETATM    3  H   UNL     1      -9.925  15.704  65.142  1.00  0.00     0.000 HD 
HETATM    4  C   UNL     1     -10.635  17.361  67.879  1.00  0.00    -0.383 C  
HETATM    5  H   UNL     1      -9.551  17.833  66.188  1.00  0.00     0.000 HD 
HETATM    6  O   UNL     1     -10.516  18.462  68.407  1.00  0.00    -0.347 OA 
ENDROOT
BRANCH   4   7
HETATM    7  C   UNL     1     -11.352  16.238  68.532  1.00  0.00    -0.330 C  
HETATM    8  C   UNL     1     -11.326  16.092  69.865  1.00  0.00    -0.340 C  
BRANCH   8   9
HETATM    9  C   UNL     1     -12.032  14.984  70.506  1.00  0.00    -0.358 A  
HETATM   10  C   UNL     1     -12.903  15.236  71.574  1.00  0.00    -0.469 A  
HETATM   11  C   UNL     1     -13.535  14.180  72.235  1.00  0.00    -0.578 A  
HETATM   12  C   UNL     1     -13.296  12.863  71.840  1.00  0.00    -0.530 A  
HETATM   13  C   UNL     1     -12.438  12.609  70.765  1.00  0.00    -0.270 A  
HETATM   14  C   UNL     1     -11.799  13.664  70.100  1.00  0.00    -0.351 A  
BRANCH  13  15
HETATM   15  S   UNL     1     -12.042  10.925  70.335  1.00  0.00    -0.392 S  
HETATM   16  O   UNL     1     -13.024  10.471  69.374  1.00  0.00     0.015 OA 
HETATM   17  O   UNL     1     -11.823  10.205  71.573  1.00  0.00    -0.362 OA 
BRANCH  15  18
HETATM   18  N   UNL     1     -10.535  11.025  69.589  1.00  0.00    -0.447 N  
HETATM   19  H   UNL     1      -9.734  11.397  70.098  1.00  0.00     0.000 HD 
BRANCH  18  20
HETATM   20  C   UNL     1     -10.390  10.589  68.249  1.00  0.00    -0.168 A  
HETATM   21  C   UNL     1     -10.240   9.232  67.969  1.00  0.00    -0.255 A  
HETATM   22  C   UNL     1     -10.024   8.816  66.654  1.00  0.00    -0.355 A  
HETATM   23  C   UNL     1      -9.977   9.755  65.623  1.00  0.00    -0.352 A  
HETATM   24  C   UNL     1     -10.144  11.111  65.904  1.00  0.00    -0.296 A  
HETATM   25  C   UNL     1     -10.341  11.530  67.220  1.00  0.00    -0.236 A  
ENDBRANCH  18  20
ENDBRANCH  15  18
ENDBRANCH  13  15
ENDBRANCH   8   9
ENDBRANCH   4   7
TORSDOF 5
ENDMDL
MODEL       90
REMARK 921   NORMALIZED FREE ENERGY PREDICTED BY IDOCK:   -5.93 KCAL/MOL
REMARK 922        TOTAL FREE ENERGY PREDICTED BY IDOCK:   -8.13 KCAL/MOL
REMARK 923 INTER-LIGAND FREE ENERGY PREDICTED BY IDOCK:   -7.30 KCAL/MOL
REMARK 924 INTRA-LIGAND FREE ENERGY PREDICTED BY IDOCK:   -0.84 KCAL/MOL
REMARK 927      BINDING AFFINITY PREDICTED BY RF-SCORE:    0.00 PKD
ROOT
HETATM    1  O   UNL     1     -12.666   9.101  70.597  1.00  0.00    -0.495 OA 
HETATM    2  N   UNL     1     -11.724   8.060  70.595  1.00  0.00    -0.444 N  
HETATM    3  H   UNL     1     -13.362   9.143  71.243  1.00  0.00     0.000 HD 
HETATM    4  C   UNL     1     -10.725   8.000  69.667  1.00  0.00    -0.207 C  
HETATM    5  H   UNL     1     -11.787   7.331  71.305  1.00  0.00     0.000 HD 
HETATM    6  O   UNL     1      -9.949   7.051  69.634  1.00  0.00    -0.170 OA 
ENDROOT
BRANCH   4   7
HETATM    7  C   UNL     1     -10.635   9.137  68.718  1.00  0.00    -0.208 C  
HETATM    8  C   UNL     1     -10.469   8.921  67.405  1.00  0.00    -0.347 C  
BRANCH   8   9
HETATM    9  C   UNL     1     -10.380  10.042  66.471  1.00  0.00    -0.268 A  
HETATM   10  C   UNL     1      -9.789   9.859  65.214  1.00  0.00    -0.373 A  
HETATM   11  C   UNL     1      -9.642  10.937  64.338  1.00  0.00    -0.312 A  
HETATM   12  C   UNL     1     -10.078  12.208  64.713  1.00  0.00    -0.276 A  
HETATM   13  C   UNL     1     -10.681  12.392  65.962  1.00  0.00    -0.261 A  
HETATM   14  C   UNL     1     -10.828  11.315  66.846  1.00  0.00    -0.333 A  
BRANCH  13  15
HETATM   15  S   UNL     1     -11.131  14.035  66.488  1.00  0.00    -0.321 S  
HETATM   16  O   UNL     1     -12.576  14.109  66.519  1.00  0.00    -0.394 OA 
HETATM   17  O   UNL     1     -10.354  14.967  65.697  1.00  0.00    -0.303 OA 
BRANCH  15  18
HETATM   18  N   UNL     1     -10.531  14.152  68.057  1.00  0.00    -0.236 N  
HETATM   19  H   UNL     1      -9.527  14.208  68.220  1.00  0.00     0.000 HD 
BRANCH  18  20
HETATM   20  C   UNL     1     -11.434  14.172  69.149  1.00  0.00    -0.296 A  
HETATM   21  C   UNL     1     -11.897  15.387  69.650  1.00  0.00    -0.368 A  
HETATM   22  C   UNL     1     -12.728  15.403  70.772  1.00  0.00    -0.516 A  
HETATM   23  C   UNL     1     -13.108  14.204  71.377  1.00  0.00    -0.428 A  
HETATM   24  C   UNL     1     -12.656  12.988  70.863  1.00  0.00    -0.364 A  
HETATM   25  C   UNL     1     -11.811  12.972  69.753  1.00  0.00    -0.381 A  
ENDBRANCH  18  20
ENDBRANCH  15  18
ENDBRANCH  13  15
ENDBRANCH   8   9
ENDBRANCH   4   7
TORSDOF 5
ENDMDL
MODEL       91
REMARK 921   NORMALIZED FREE ENERGY PREDICTED BY IDOCK:   -5.91 KCAL/MOL
REMARK 922        TOTAL FREE ENERGY PREDICTED BY IDOCK:   -8.11 KCAL/MOL
REMARK 923 INTER-LIGAND FREE ENERGY PREDICTED BY IDOCK:   -7.40 KCAL/MOL
REMARK 924 INTRA-LIGAND FREE ENERGY PREDICTED BY IDOCK:   -0.70 KCAL/MOL
REMARK 927      BINDING AFFINITY PREDICTED BY RF-SCORE:    0.00 PKD
ROOT
HETATM    1  O   UNL     1     -13.514  10.894  72.384  1.00  0.00    -0.587 OA 
HETATM    2  N   UNL     1     -13.429  12.276  72.155  1.00  0.00    -0.504 N  
HETATM    3  H   UNL     1     -14.045  10.535  73.085  1.00  0.00     0.000 HD 
HETATM    4  C   UNL     1     -12.666  12.791  71.148  1.00  0.00    -0.263 C  
HETATM    5  H   UNL     1     -13.951  12.912  72.758  1.00  0.00     0.000 HD 
HETATM    6  O   UNL     1     -12.546  14.002  71.000  1.00  0.00    -0.325 OA 
ENDROOT
BRANCH   4   7
HETATM    7  C   UNL     1     -12.003  11.810  70.254  1.00  0.00    -0.429 C  
HETATM    8  C   UNL     1     -11.865  12.061  68.944  1.00  0.00    -0.356 C  
BRANCH   8   9
HETATM    9  C   UNL     1     -11.212  11.093  68.064  1.00  0.00    -0.359 A  
HETATM   10  C   UNL     1     -10.814  11.477  66.778  1.00  0.00    -0.330 A  
HETATM   11  C   UNL     1     -10.246  10.544  65.906  1.00  0.00    -0.311 A  
HETATM   12  C   UNL     1     -10.078   9.219  66.311  1.00  0.00    -0.322 A  
HETATM   13  C   UNL     1     -10.462   8.836  67.600  1.00  0.00    -0.244 A  
HETATM   14  C   UNL     1     -11.036   9.766  68.477  1.00  0.00    -0.195 A  
BRANCH  13  15
HETATM   15  S   UNL     1     -10.356   7.122  68.076  1.00  0.00    -0.205 S  
HETATM   16  O   UNL     1      -9.074   6.919  68.717  1.00  0.00    -0.134 OA 
HETATM   17  O   UNL     1     -10.747   6.331  66.926  1.00  0.00    -0.286 OA 
BRANCH  15  18
HETATM   18  N   UNL     1     -11.586   6.924  69.210  1.00  0.00    -0.581 N  
HETATM   19  H   UNL     1     -12.553   6.815  68.905  1.00  0.00     0.000 HD 
BRANCH  18  20
HETATM   20  C   UNL     1     -11.266   6.909  70.590  1.00  0.00    -0.301 A  
HETATM   21  C   UNL     1     -10.889   5.718  71.207  1.00  0.00    -0.313 A  
HETATM   22  C   UNL     1     -10.646   5.696  72.581  1.00  0.00    -0.266 A  
HETATM   23  C   UNL     1     -10.764   6.867  73.330  1.00  0.00    -0.352 A  
HETATM   24  C   UNL     1     -11.126   8.062  72.707  1.00  0.00    -0.448 A  
HETATM   25  C   UNL     1     -11.387   8.081  71.337  1.00  0.00    -0.292 A  
ENDBRANCH  18  20
ENDBRANCH  15  18
ENDBRANCH  13  15
ENDBRANCH   8   9
ENDBRANCH   4   7
TORSDOF 5
ENDMDL
MODEL       92
REMARK 921   NORMALIZED FREE ENERGY PREDICTED BY IDOCK:   -5.90 KCAL/MOL
REMARK 922        TOTAL FREE ENERGY PREDICTED BY IDOCK:   -8.10 KCAL/MOL
REMARK 923 INTER-LIGAND FREE ENERGY PREDICTED BY IDOCK:   -7.53 KCAL/MOL
REMARK 924 INTRA-LIGAND FREE ENERGY PREDICTED BY IDOCK:   -0.57 KCAL/MOL
REMARK 927      BINDING AFFINITY PREDICTED BY RF-SCORE:    0.00 PKD
ROOT
HETATM    1  O   UNL     1      -6.901  18.461  69.168  1.00  0.00    -0.273 OA 
HETATM    2  N   UNL     1      -7.168  19.400  68.159  1.00  0.00    -0.277 N  
HETATM    3  H   UNL     1      -6.208  18.596  69.805  1.00  0.00     0.000 HD 
HETATM    4  C   UNL     1      -8.163  19.207  67.246  1.00  0.00    -0.276 C  
HETATM    5  H   UNL     1      -6.605  20.249  68.108  1.00  0.00     0.000 HD 
HETATM    6  O   UNL     1      -8.343  20.001  66.329  1.00  0.00    -0.329 OA 
ENDROOT
BRANCH   4   7
HETATM    7  C   UNL     1      -9.002  17.997  67.428  1.00  0.00    -0.246 C  
HETATM    8  C   UNL     1      -9.806  17.566  66.445  1.00  0.00    -0.316 C  
BRANCH   8   9
HETATM    9  C   UNL     1     -10.633  16.374  66.627  1.00  0.00    -0.239 A  
HETATM   10  C   UNL     1     -11.013  15.978  67.915  1.00  0.00    -0.327 A  
HETATM   11  C   UNL     1     -11.751  14.806  68.105  1.00  0.00    -0.353 A  
HETATM   12  C   UNL     1     -12.108  14.018  67.011  1.00  0.00    -0.455 A  
HETATM   13  C   UNL     1     -11.742  14.419  65.722  1.00  0.00    -0.362 A  
HETATM   14  C   UNL     1     -10.999  15.591  65.525  1.00  0.00    -0.331 A  
BRANCH  13  15
HETATM   15  S   UNL     1     -12.096  13.355  64.336  1.00  0.00    -0.416 S  
HETATM   16  O   UNL     1     -12.525  14.190  63.235  1.00  0.00    -0.758 OA 
HETATM   17  O   UNL     1     -12.933  12.278  64.825  1.00  0.00    -0.713 OA 
BRANCH  15  18
HETATM   18  N   UNL     1     -10.614  12.650  63.959  1.00  0.00    -0.408 N  
HETATM   19  H   UNL     1     -10.137  12.889  63.090  1.00  0.00     0.000 HD 
BRANCH  18  20
HETATM   20  C   UNL     1     -10.034  11.721  64.859  1.00  0.00    -0.247 A  
HETATM   21  C   UNL     1     -10.159  10.352  64.626  1.00  0.00    -0.378 A  
HETATM   22  C   UNL     1      -9.649   9.443  65.553  1.00  0.00    -0.328 A  
HETATM   23  C   UNL     1      -9.001   9.903  66.700  1.00  0.00    -0.157 A  
HETATM   24  C   UNL     1      -8.863  11.273  66.922  1.00  0.00    -0.165 A  
HETATM   25  C   UNL     1      -9.388  12.184  66.005  1.00  0.00    -0.174 A  
ENDBRANCH  18  20
ENDBRANCH  15  18
ENDBRANCH  13  15
ENDBRANCH   8   9
ENDBRANCH   4   7
TORSDOF 5
ENDMDL
MODEL       93
REMARK 921   NORMALIZED FREE ENERGY PREDICTED BY IDOCK:   -5.90 KCAL/MOL
REMARK 922        TOTAL FREE ENERGY PREDICTED BY IDOCK:   -8.10 KCAL/MOL
REMARK 923 INTER-LIGAND FREE ENERGY PREDICTED BY IDOCK:   -8.23 KCAL/MOL
REMARK 924 INTRA-LIGAND FREE ENERGY PREDICTED BY IDOCK:    0.13 KCAL/MOL
REMARK 927      BINDING AFFINITY PREDICTED BY RF-SCORE:    0.00 PKD
ROOT
HETATM    1  O   UNL     1     -12.285  14.866  74.380  1.00  0.00    -0.707 OA 
HETATM    2  N   UNL     1     -13.284  15.493  73.620  1.00  0.00    -0.634 N  
HETATM    3  H   UNL     1     -12.098  15.130  75.274  1.00  0.00     0.000 HD 
HETATM    4  C   UNL     1     -13.553  15.114  72.337  1.00  0.00    -0.470 C  
HETATM    5  H   UNL     1     -13.823  16.252  74.037  1.00  0.00     0.000 HD 
HETATM    6  O   UNL     1     -14.381  15.714  71.661  1.00  0.00    -0.478 OA 
ENDROOT
BRANCH   4   7
HETATM    7  C   UNL     1     -12.796  13.948  71.820  1.00  0.00    -0.421 C  
HETATM    8  C   UNL     1     -13.404  12.770  71.621  1.00  0.00    -0.345 C  
BRANCH   8   9
HETATM    9  C   UNL     1     -12.656  11.621  71.112  1.00  0.00    -0.439 A  
HETATM   10  C   UNL     1     -12.712  10.397  71.789  1.00  0.00    -0.525 A  
HETATM   11  C   UNL     1     -11.952   9.310  71.347  1.00  0.00    -0.424 A  
HETATM   12  C   UNL     1     -11.126   9.441  70.231  1.00  0.00    -0.299 A  
HETATM   13  C   UNL     1     -11.079  10.659  69.544  1.00  0.00    -0.274 A  
HETATM   14  C   UNL     1     -11.836  11.753  69.984  1.00  0.00    -0.422 A  
BRANCH  13  15
HETATM   15  S   UNL     1      -9.938  10.861  68.190  1.00  0.00    -0.180 S  
HETATM   16  O   UNL     1      -9.283   9.589  67.970  1.00  0.00    -0.130 OA 
HETATM   17  O   UNL     1      -9.169  12.060  68.451  1.00  0.00    -0.189 OA 
BRANCH  15  18
HETATM   18  N   UNL     1     -10.916  11.222  66.867  1.00  0.00    -0.289 N  
HETATM   19  H   UNL     1     -11.851  11.604  67.008  1.00  0.00     0.000 HD 
BRANCH  18  20
HETATM   20  C   UNL     1     -10.430  10.990  65.556  1.00  0.00    -0.238 A  
HETATM   21  C   UNL     1      -9.645   9.870  65.291  1.00  0.00    -0.361 A  
HETATM   22  C   UNL     1      -9.109   9.686  64.015  1.00  0.00    -0.246 A  
HETATM   23  C   UNL     1      -9.373  10.613  63.006  1.00  0.00    -0.342 A  
HETATM   24  C   UNL     1     -10.173  11.725  63.270  1.00  0.00    -0.452 A  
HETATM   25  C   UNL     1     -10.694  11.919  64.550  1.00  0.00    -0.361 A  
ENDBRANCH  18  20
ENDBRANCH  15  18
ENDBRANCH  13  15
ENDBRANCH   8   9
ENDBRANCH   4   7
TORSDOF 5
ENDMDL
MODEL       94
REMARK 921   NORMALIZED FREE ENERGY PREDICTED BY IDOCK:   -5.90 KCAL/MOL
REMARK 922        TOTAL FREE ENERGY PREDICTED BY IDOCK:   -8.10 KCAL/MOL
REMARK 923 INTER-LIGAND FREE ENERGY PREDICTED BY IDOCK:   -7.25 KCAL/MOL
REMARK 924 INTRA-LIGAND FREE ENERGY PREDICTED BY IDOCK:   -0.85 KCAL/MOL
REMARK 927      BINDING AFFINITY PREDICTED BY RF-SCORE:    0.00 PKD
ROOT
HETATM    1  O   UNL     1     -11.702  15.190  63.958  1.00  0.00    -0.760 OA 
HETATM    2  N   UNL     1     -12.390  14.148  63.316  1.00  0.00    -1.133 N  
HETATM    3  H   UNL     1     -11.700  16.075  63.611  1.00  0.00     0.000 HD 
HETATM    4  C   UNL     1     -12.393  12.878  63.814  1.00  0.00    -0.417 C  
HETATM    5  H   UNL     1     -12.900  14.345  62.456  1.00  0.00     0.000 HD 
HETATM    6  O   UNL     1     -12.940  11.962  63.209  1.00  0.00    -0.707 OA 
ENDROOT
BRANCH   4   7
HETATM    7  C   UNL     1     -11.706  12.676  65.113  1.00  0.00    -0.407 C  
HETATM    8  C   UNL     1     -10.979  11.572  65.339  1.00  0.00    -0.288 C  
BRANCH   8   9
HETATM    9  C   UNL     1     -10.303  11.374  66.621  1.00  0.00    -0.272 A  
HETATM   10  C   UNL     1     -10.902  10.586  67.611  1.00  0.00    -0.355 A  
HETATM   11  C   UNL     1     -10.295  10.440  68.862  1.00  0.00    -0.227 A  
HETATM   12  C   UNL     1      -9.089  11.087  69.134  1.00  0.00    -0.006 A  
HETATM   13  C   UNL     1      -8.481  11.864  68.142  1.00  0.00    -0.163 A  
HETATM   14  C   UNL     1      -9.087  12.016  66.888  1.00  0.00    -0.196 A  
BRANCH  13  15
HETATM   15  S   UNL     1      -7.003  12.782  68.527  1.00  0.00    -0.100 S  
HETATM   16  O   UNL     1      -6.267  12.972  67.295  1.00  0.00    -0.279 OA 
HETATM   17  O   UNL     1      -6.387  12.145  69.673  1.00  0.00    -0.121 OA 
BRANCH  15  18
HETATM   18  N   UNL     1      -7.566  14.272  69.077  1.00  0.00    -0.219 N  
HETATM   19  H   UNL     1      -7.325  14.598  70.012  1.00  0.00     0.000 HD 
BRANCH  18  20
HETATM   20  C   UNL     1      -8.377  15.067  68.229  1.00  0.00    -0.145 A  
HETATM   21  C   UNL     1      -9.749  15.153  68.456  1.00  0.00    -0.214 A  
HETATM   22  C   UNL     1     -10.553  15.879  67.575  1.00  0.00    -0.315 A  
HETATM   23  C   UNL     1      -9.980  16.530  66.482  1.00  0.00    -0.297 A  
HETATM   24  C   UNL     1      -8.603  16.455  66.267  1.00  0.00    -0.375 A  
HETATM   25  C   UNL     1      -7.802  15.715  67.136  1.00  0.00    -0.253 A  
ENDBRANCH  18  20
ENDBRANCH  15  18
ENDBRANCH  13  15
ENDBRANCH   8   9
ENDBRANCH   4   7
TORSDOF 5
ENDMDL
MODEL       95
REMARK 921   NORMALIZED FREE ENERGY PREDICTED BY IDOCK:   -5.87 KCAL/MOL
REMARK 922        TOTAL FREE ENERGY PREDICTED BY IDOCK:   -8.05 KCAL/MOL
REMARK 923 INTER-LIGAND FREE ENERGY PREDICTED BY IDOCK:   -7.54 KCAL/MOL
REMARK 924 INTRA-LIGAND FREE ENERGY PREDICTED BY IDOCK:   -0.51 KCAL/MOL
REMARK 927      BINDING AFFINITY PREDICTED BY RF-SCORE:    0.00 PKD
ROOT
HETATM    1  O   UNL     1      -9.240   7.205  72.606  1.00  0.00    -0.136 OA 
HETATM    2  N   UNL     1     -10.404   6.446  72.411  1.00  0.00    -0.187 N  
HETATM    3  H   UNL     1      -8.405   6.796  72.803  1.00  0.00     0.000 HD 
HETATM    4  C   UNL     1     -11.604   7.033  72.129  1.00  0.00    -0.282 C  
HETATM    5  H   UNL     1     -10.353   5.430  72.481  1.00  0.00     0.000 HD 
HETATM    6  O   UNL     1     -12.627   6.364  72.026  1.00  0.00    -0.310 OA 
ENDROOT
BRANCH   4   7
HETATM    7  C   UNL     1     -11.593   8.505  71.953  1.00  0.00    -0.410 C  
HETATM    8  C   UNL     1     -12.564   9.119  71.261  1.00  0.00    -0.351 C  
BRANCH   8   9
HETATM    9  C   UNL     1     -12.552  10.571  71.088  1.00  0.00    -0.520 A  
HETATM   10  C   UNL     1     -13.191  11.391  72.026  1.00  0.00    -0.432 A  
HETATM   11  C   UNL     1     -13.239  12.775  71.838  1.00  0.00    -0.511 A  
HETATM   12  C   UNL     1     -12.658  13.349  70.707  1.00  0.00    -0.369 A  
HETATM   13  C   UNL     1     -12.008  12.534  69.775  1.00  0.00    -0.289 A  
HETATM   14  C   UNL     1     -11.959  11.145  69.956  1.00  0.00    -0.447 A  
BRANCH  13  15
HETATM   15  S   UNL     1     -11.368  13.252  68.274  1.00  0.00    -0.323 S  
HETATM   16  O   UNL     1     -12.009  12.589  67.158  1.00  0.00    -0.484 OA 
HETATM   17  O   UNL     1      -9.924  13.281  68.393  1.00  0.00    -0.235 OA 
BRANCH  15  18
HETATM   18  N   UNL     1     -11.867  14.859  68.332  1.00  0.00    -0.473 N  
HETATM   19  H   UNL     1     -12.735  15.111  68.802  1.00  0.00     0.000 HD 
BRANCH  18  20
HETATM   20  C   UNL     1     -11.070  15.859  67.721  1.00  0.00    -0.288 A  
HETATM   21  C   UNL     1     -10.565  16.911  68.483  1.00  0.00    -0.367 A  
HETATM   22  C   UNL     1      -9.842  17.931  67.862  1.00  0.00    -0.309 A  
HETATM   23  C   UNL     1      -9.613  17.888  66.487  1.00  0.00    -0.318 A  
HETATM   24  C   UNL     1     -10.106  16.825  65.729  1.00  0.00    -0.276 A  
HETATM   25  C   UNL     1     -10.844  15.815  66.345  1.00  0.00    -0.226 A  
ENDBRANCH  18  20
ENDBRANCH  15  18
ENDBRANCH  13  15
ENDBRANCH   8   9
ENDBRANCH   4   7
TORSDOF 5
ENDMDL
MODEL       96
REMARK 921   NORMALIZED FREE ENERGY PREDICTED BY IDOCK:   -5.86 KCAL/MOL
REMARK 922        TOTAL FREE ENERGY PREDICTED BY IDOCK:   -8.04 KCAL/MOL
REMARK 923 INTER-LIGAND FREE ENERGY PREDICTED BY IDOCK:   -8.30 KCAL/MOL
REMARK 924 INTRA-LIGAND FREE ENERGY PREDICTED BY IDOCK:    0.25 KCAL/MOL
REMARK 927      BINDING AFFINITY PREDICTED BY RF-SCORE:    0.00 PKD
ROOT
HETATM    1  O   UNL     1      -6.825  10.656  64.901  1.00  0.00    -0.337 OA 
HETATM    2  N   UNL     1      -7.637  10.384  63.789  1.00  0.00    -0.314 N  
HETATM    3  H   UNL     1      -5.892  10.473  64.895  1.00  0.00     0.000 HD 
HETATM    4  C   UNL     1      -8.976  10.647  63.799  1.00  0.00    -0.197 C  
HETATM    5  H   UNL     1      -7.216   9.980  62.953  1.00  0.00     0.000 HD 
HETATM    6  O   UNL     1      -9.687  10.344  62.847  1.00  0.00    -0.316 OA 
ENDROOT
BRANCH   4   7
HETATM    7  C   UNL     1      -9.510  11.316  65.010  1.00  0.00    -0.237 C  
HETATM    8  C   UNL     1     -10.089  10.603  65.987  1.00  0.00    -0.308 C  
BRANCH   8   9
HETATM    9  C   UNL     1     -10.615  11.264  67.181  1.00  0.00    -0.274 A  
HETATM   10  C   UNL     1     -11.304  10.518  68.145  1.00  0.00    -0.324 A  
HETATM   11  C   UNL     1     -11.865  11.148  69.259  1.00  0.00    -0.422 A  
HETATM   12  C   UNL     1     -11.749  12.530  69.413  1.00  0.00    -0.383 A  
HETATM   13  C   UNL     1     -11.050  13.276  68.458  1.00  0.00    -0.265 A  
HETATM   14  C   UNL     1     -10.488  12.650  67.338  1.00  0.00    -0.233 A  
BRANCH  13  15
HETATM   15  S   UNL     1     -11.002  15.053  68.594  1.00  0.00    -0.271 S  
HETATM   16  O   UNL     1     -10.910  15.596  67.255  1.00  0.00    -0.305 OA 
HETATM   17  O   UNL     1     -10.013  15.381  69.601  1.00  0.00    -0.258 OA 
BRANCH  15  18
HETATM   18  N   UNL     1     -12.492  15.463  69.263  1.00  0.00    -0.603 N  
HETATM   19  H   UNL     1     -13.271  15.726  68.660  1.00  0.00     0.000 HD 
BRANCH  18  20
HETATM   20  C   UNL     1     -12.655  15.441  70.670  1.00  0.00    -0.439 A  
HETATM   21  C   UNL     1     -11.826  16.214  71.481  1.00  0.00    -0.528 A  
HETATM   22  C   UNL     1     -11.943  16.131  72.870  1.00  0.00    -0.623 A  
HETATM   23  C   UNL     1     -12.899  15.291  73.442  1.00  0.00    -0.667 A  
HETATM   24  C   UNL     1     -13.738  14.530  72.627  1.00  0.00    -0.543 A  
HETATM   25  C   UNL     1     -13.610  14.598  71.240  1.00  0.00    -0.449 A  
ENDBRANCH  18  20
ENDBRANCH  15  18
ENDBRANCH  13  15
ENDBRANCH   8   9
ENDBRANCH   4   7
TORSDOF 5
ENDMDL
MODEL       97
REMARK 921   NORMALIZED FREE ENERGY PREDICTED BY IDOCK:   -5.85 KCAL/MOL
REMARK 922        TOTAL FREE ENERGY PREDICTED BY IDOCK:   -8.03 KCAL/MOL
REMARK 923 INTER-LIGAND FREE ENERGY PREDICTED BY IDOCK:   -7.53 KCAL/MOL
REMARK 924 INTRA-LIGAND FREE ENERGY PREDICTED BY IDOCK:   -0.50 KCAL/MOL
REMARK 927      BINDING AFFINITY PREDICTED BY RF-SCORE:    0.00 PKD
ROOT
HETATM    1  O   UNL     1     -12.525  14.182  63.239  1.00  0.00    -1.146 OA 
HETATM    2  N   UNL     1     -12.012  12.878  63.147  1.00  0.00    -0.822 N  
HETATM    3  H   UNL     1     -13.318  14.439  62.783  1.00  0.00     0.000 HD 
HETATM    4  C   UNL     1     -10.874  12.508  63.802  1.00  0.00    -0.446 C  
HETATM    5  H   UNL     1     -12.503  12.190  62.577  1.00  0.00     0.000 HD 
HETATM    6  O   UNL     1     -10.398  11.386  63.661  1.00  0.00    -0.334 OA 
ENDROOT
BRANCH   4   7
HETATM    7  C   UNL     1     -10.257  13.529  64.685  1.00  0.00    -0.341 C  
HETATM    8  C   UNL     1     -10.031  13.267  65.980  1.00  0.00    -0.297 C  
BRANCH   8   9
HETATM    9  C   UNL     1      -9.424  14.275  66.849  1.00  0.00    -0.272 A  
HETATM   10  C   UNL     1      -8.743  13.879  68.007  1.00  0.00    -0.183 A  
HETATM   11  C   UNL     1      -8.213  14.836  68.877  1.00  0.00    -0.165 A  
HETATM   12  C   UNL     1      -8.366  16.195  68.601  1.00  0.00    -0.211 A  
HETATM   13  C   UNL     1      -9.035  16.593  67.438  1.00  0.00    -0.196 A  
HETATM   14  C   UNL     1      -9.571  15.638  66.563  1.00  0.00    -0.293 A  
BRANCH  13  15
HETATM   15  S   UNL     1      -9.332  18.325  67.144  1.00  0.00    -0.269 S  
HETATM   16  O   UNL     1     -10.302  18.779  68.119  1.00  0.00    -0.374 OA 
HETATM   17  O   UNL     1      -9.571  18.487  65.724  1.00  0.00    -0.448 OA 
BRANCH  15  18
HETATM   18  N   UNL     1      -7.849  19.064  67.448  1.00  0.00    -0.241 N  
HETATM   19  H   UNL     1      -7.561  19.263  68.405  1.00  0.00     0.000 HD 
BRANCH  18  20
HETATM   20  C   UNL     1      -7.005  19.405  66.362  1.00  0.00    -0.218 A  
HETATM   21  C   UNL     1      -6.448  18.403  65.569  1.00  0.00    -0.303 A  
HETATM   22  C   UNL     1      -5.560  18.742  64.547  1.00  0.00    -0.261 A  
HETATM   23  C   UNL     1      -5.245  20.081  64.310  1.00  0.00    -0.207 A  
HETATM   24  C   UNL     1      -5.817  21.083  65.095  1.00  0.00    -0.267 A  
HETATM   25  C   UNL     1      -6.691  20.744  66.128  1.00  0.00    -0.232 A  
ENDBRANCH  18  20
ENDBRANCH  15  18
ENDBRANCH  13  15
ENDBRANCH   8   9
ENDBRANCH   4   7
TORSDOF 5
ENDMDL
MODEL       98
REMARK 921   NORMALIZED FREE ENERGY PREDICTED BY IDOCK:   -5.84 KCAL/MOL
REMARK 922        TOTAL FREE ENERGY PREDICTED BY IDOCK:   -8.02 KCAL/MOL
REMARK 923 INTER-LIGAND FREE ENERGY PREDICTED BY IDOCK:   -7.50 KCAL/MOL
REMARK 924 INTRA-LIGAND FREE ENERGY PREDICTED BY IDOCK:   -0.52 KCAL/MOL
REMARK 927      BINDING AFFINITY PREDICTED BY RF-SCORE:    0.00 PKD
ROOT
HETATM    1  O   UNL     1     -12.121  15.000  74.521  1.00  0.00    -0.733 OA 
HETATM    2  N   UNL     1     -13.118  15.581  73.722  1.00  0.00    -0.645 N  
HETATM    3  H   UNL     1     -11.875  15.372  75.361  1.00  0.00     0.000 HD 
HETATM    4  C   UNL     1     -13.471  15.046  72.517  1.00  0.00    -0.444 C  
HETATM    5  H   UNL     1     -13.591  16.423  74.050  1.00  0.00     0.000 HD 
HETATM    6  O   UNL     1     -14.296  15.600  71.797  1.00  0.00    -0.448 OA 
ENDROOT
BRANCH   4   7
HETATM    7  C   UNL     1     -12.810  13.774  72.139  1.00  0.00    -0.367 C  
HETATM    8  C   UNL     1     -12.862  13.324  70.877  1.00  0.00    -0.257 C  
BRANCH   8   9
HETATM    9  C   UNL     1     -12.210  12.069  70.505  1.00  0.00    -0.414 A  
HETATM   10  C   UNL     1     -11.505  11.979  69.299  1.00  0.00    -0.361 A  
HETATM   11  C   UNL     1     -10.931  10.767  68.904  1.00  0.00    -0.289 A  
HETATM   12  C   UNL     1     -11.064   9.635  69.708  1.00  0.00    -0.247 A  
HETATM   13  C   UNL     1     -11.757   9.725  70.921  1.00  0.00    -0.347 A  
HETATM   14  C   UNL     1     -12.337  10.936  71.319  1.00  0.00    -0.448 A  
BRANCH  13  15
HETATM   15  S   UNL     1     -12.027   8.254  71.890  1.00  0.00    -0.355 S  
HETATM   16  O   UNL     1     -12.825   7.342  71.098  1.00  0.00    -0.326 OA 
HETATM   17  O   UNL     1     -12.466   8.679  73.204  1.00  0.00    -0.082 OA 
BRANCH  15  18
HETATM   18  N   UNL     1     -10.488   7.605  72.107  1.00  0.00    -0.211 N  
HETATM   19  H   UNL     1      -9.666   8.206  72.059  1.00  0.00     0.000 HD 
BRANCH  18  20
HETATM   20  C   UNL     1     -10.344   6.218  72.357  1.00  0.00    -0.191 A  
HETATM   21  C   UNL     1      -9.753   5.394  71.401  1.00  0.00    -0.213 A  
HETATM   22  C   UNL     1      -9.681   4.017  71.622  1.00  0.00    -0.242 A  
HETATM   23  C   UNL     1     -10.183   3.472  72.804  1.00  0.00    -0.242 A  
HETATM   24  C   UNL     1     -10.759   4.302  73.767  1.00  0.00    -0.339 A  
HETATM   25  C   UNL     1     -10.848   5.675  73.539  1.00  0.00    -0.295 A  
ENDBRANCH  18  20
ENDBRANCH  15  18
ENDBRANCH  13  15
ENDBRANCH   8   9
ENDBRANCH   4   7
TORSDOF 5
ENDMDL
MODEL       99
REMARK 921   NORMALIZED FREE ENERGY PREDICTED BY IDOCK:   -5.79 KCAL/MOL
REMARK 922        TOTAL FREE ENERGY PREDICTED BY IDOCK:   -7.95 KCAL/MOL
REMARK 923 INTER-LIGAND FREE ENERGY PREDICTED BY IDOCK:   -7.30 KCAL/MOL
REMARK 924 INTRA-LIGAND FREE ENERGY PREDICTED BY IDOCK:   -0.66 KCAL/MOL
REMARK 927      BINDING AFFINITY PREDICTED BY RF-SCORE:    0.00 PKD
ROOT
HETATM    1  O   UNL     1     -12.967  14.779  69.817  1.00  0.00    -0.573 OA 
HETATM    2  N   UNL     1     -12.376  15.957  69.335  1.00  0.00    -0.438 N  
HETATM    3  H   UNL     1     -13.622  14.794  70.505  1.00  0.00     0.000 HD 
HETATM    4  C   UNL     1     -11.435  15.934  68.347  1.00  0.00    -0.348 C  
HETATM    5  H   UNL     1     -12.657  16.853  69.733  1.00  0.00     0.000 HD 
HETATM    6  O   UNL     1     -10.877  16.963  67.981  1.00  0.00    -0.363 OA 
ENDROOT
BRANCH   4   7
HETATM    7  C   UNL     1     -11.135  14.610  67.750  1.00  0.00    -0.306 C  
HETATM    8  C   UNL     1     -10.789  14.503  66.459  1.00  0.00    -0.314 C  
BRANCH   8   9
HETATM    9  C   UNL     1     -10.494  13.197  65.871  1.00  0.00    -0.288 A  
HETATM   10  C   UNL     1     -10.632  13.006  64.491  1.00  0.00    -0.413 A  
HETATM   11  C   UNL     1     -10.413  11.746  63.927  1.00  0.00    -0.437 A  
HETATM   12  C   UNL     1     -10.064  10.666  64.739  1.00  0.00    -0.412 A  
HETATM   13  C   UNL     1      -9.913  10.858  66.116  1.00  0.00    -0.233 A  
HETATM   14  C   UNL     1     -10.133  12.118  66.688  1.00  0.00    -0.218 A  
BRANCH  13  15
HETATM   15  S   UNL     1      -9.581   9.457  67.167  1.00  0.00    -0.163 S  
HETATM   16  O   UNL     1      -8.396   8.796  66.663  1.00  0.00    -0.106 OA 
HETATM   17  O   UNL     1     -10.827   8.734  67.326  1.00  0.00    -0.214 OA 
BRANCH  15  18
HETATM   18  N   UNL     1      -9.246  10.132  68.674  1.00  0.00    -0.150 N  
HETATM   19  H   UNL     1      -8.341  10.565  68.852  1.00  0.00     0.000 HD 
BRANCH  18  20
HETATM   20  C   UNL     1     -10.232  10.092  69.691  1.00  0.00    -0.239 A  
HETATM   21  C   UNL     1     -10.146   9.145  70.710  1.00  0.00    -0.333 A  
HETATM   22  C   UNL     1     -11.159   9.064  71.667  1.00  0.00    -0.433 A  
HETATM   23  C   UNL     1     -12.244   9.939  71.613  1.00  0.00    -0.482 A  
HETATM   24  C   UNL     1     -12.319  10.897  70.601  1.00  0.00    -0.470 A  
HETATM   25  C   UNL     1     -11.317  10.967  69.633  1.00  0.00    -0.363 A  
ENDBRANCH  18  20
ENDBRANCH  15  18
ENDBRANCH  13  15
ENDBRANCH   8   9
ENDBRANCH   4   7
TORSDOF 5
ENDMDL
MODEL      100
REMARK 921   NORMALIZED FREE ENERGY PREDICTED BY IDOCK:   -5.78 KCAL/MOL
REMARK 922        TOTAL FREE ENERGY PREDICTED BY IDOCK:   -7.94 KCAL/MOL
REMARK 923 INTER-LIGAND FREE ENERGY PREDICTED BY IDOCK:   -7.51 KCAL/MOL
REMARK 924 INTRA-LIGAND FREE ENERGY PREDICTED BY IDOCK:   -0.42 KCAL/MOL
REMARK 927      BINDING AFFINITY PREDICTED BY RF-SCORE:    0.00 PKD
ROOT
HETATM    1  O   UNL     1     -13.412  11.994  72.263  1.00  0.00    -0.593 OA 
HETATM    2  N   UNL     1     -13.351  10.593  72.183  1.00  0.00    -0.580 N  
HETATM    3  H   UNL     1     -13.925  12.433  72.932  1.00  0.00     0.000 HD 
HETATM    4  C   UNL     1     -12.615   9.962  71.223  1.00  0.00    -0.381 C  
HETATM    5  H   UNL     1     -13.870  10.034  72.859  1.00  0.00     0.000 HD 
HETATM    6  O   UNL     1     -12.624   8.740  71.121  1.00  0.00    -0.272 OA 
ENDROOT
BRANCH   4   7
HETATM    7  C   UNL     1     -11.815  10.831  70.326  1.00  0.00    -0.438 C  
HETATM    8  C   UNL     1     -11.514  10.437  69.081  1.00  0.00    -0.261 C  
BRANCH   8   9
HETATM    9  C   UNL     1     -10.724  11.294  68.198  1.00  0.00    -0.244 A  
HETATM   10  C   UNL     1      -9.488  10.847  67.714  1.00  0.00    -0.165 A  
HETATM   11  C   UNL     1      -8.696  11.682  66.921  1.00  0.00    -0.185 A  
HETATM   12  C   UNL     1      -9.129  12.971  66.611  1.00  0.00    -0.181 A  
HETATM   13  C   UNL     1     -10.370  13.416  67.082  1.00  0.00    -0.246 A  
HETATM   14  C   UNL     1     -11.166  12.584  67.880  1.00  0.00    -0.312 A  
BRANCH  13  15
HETATM   15  S   UNL     1     -10.870  15.100  66.785  1.00  0.00    -0.322 S  
HETATM   16  O   UNL     1     -11.909  15.427  67.738  1.00  0.00    -0.248 OA 
HETATM   17  O   UNL     1     -11.096  15.237  65.360  1.00  0.00    -0.342 OA 
BRANCH  15  18
HETATM   18  N   UNL     1      -9.495  16.012  67.122  1.00  0.00    -0.214 N  
HETATM   19  H   UNL     1      -8.583  15.562  67.184  1.00  0.00     0.000 HD 
BRANCH  18  20
HETATM   20  C   UNL     1      -9.616  17.411  67.319  1.00  0.00    -0.258 A  
HETATM   21  C   UNL     1      -9.217  17.983  68.525  1.00  0.00    -0.296 A  
HETATM   22  C   UNL     1      -9.407  19.349  68.740  1.00  0.00    -0.444 A  
HETATM   23  C   UNL     1      -9.978  20.141  67.743  1.00  0.00    -0.549 A  
HETATM   24  C   UNL     1     -10.362  19.568  66.530  1.00  0.00    -0.583 A  
HETATM   25  C   UNL     1     -10.189  18.199  66.321  1.00  0.00    -0.401 A  
ENDBRANCH  18  20
ENDBRANCH  15  18
ENDBRANCH  13  15
ENDBRANCH   8   9
ENDBRANCH   4   7
TORSDOF 5
ENDMDL
MODEL      101
REMARK 921   NORMALIZED FREE ENERGY PREDICTED BY IDOCK:   -5.76 KCAL/MOL
REMARK 922        TOTAL FREE ENERGY PREDICTED BY IDOCK:   -7.92 KCAL/MOL
REMARK 923 INTER-LIGAND FREE ENERGY PREDICTED BY IDOCK:   -7.40 KCAL/MOL
REMARK 924 INTRA-LIGAND FREE ENERGY PREDICTED BY IDOCK:   -0.52 KCAL/MOL
REMARK 927      BINDING AFFINITY PREDICTED BY RF-SCORE:    0.00 PKD
ROOT
HETATM    1  O   UNL     1     -13.197  11.597  71.900  1.00  0.00    -0.485 OA 
HETATM    2  N   UNL     1     -13.715  12.736  72.535  1.00  0.00    -0.586 N  
HETATM    3  H   UNL     1     -13.506  10.723  72.112  1.00  0.00     0.000 HD 
HETATM    4  C   UNL     1     -13.273  13.990  72.229  1.00  0.00    -0.464 C  
HETATM    5  H   UNL     1     -14.441  12.624  73.243  1.00  0.00     0.000 HD 
HETATM    6  O   UNL     1     -13.684  14.972  72.838  1.00  0.00    -0.456 OA 
ENDROOT
BRANCH   4   7
HETATM    7  C   UNL     1     -12.282  14.092  71.130  1.00  0.00    -0.417 C  
HETATM    8  C   UNL     1     -12.648  14.525  69.915  1.00  0.00    -0.226 C  
BRANCH   8   9
HETATM    9  C   UNL     1     -11.670  14.623  68.833  1.00  0.00    -0.343 A  
HETATM   10  C   UNL     1     -11.850  13.881  67.659  1.00  0.00    -0.422 A  
HETATM   11  C   UNL     1     -10.891  13.920  66.644  1.00  0.00    -0.289 A  
HETATM   12  C   UNL     1      -9.741  14.694  66.797  1.00  0.00    -0.267 A  
HETATM   13  C   UNL     1      -9.564  15.448  67.962  1.00  0.00    -0.206 A  
HETATM   14  C   UNL     1     -10.522  15.410  68.985  1.00  0.00    -0.249 A  
BRANCH  13  15
HETATM   15  S   UNL     1      -8.044  16.344  68.208  1.00  0.00    -0.179 S  
HETATM   16  O   UNL     1      -7.332  16.362  66.947  1.00  0.00    -0.193 OA 
HETATM   17  O   UNL     1      -7.423  15.818  69.407  1.00  0.00    -0.210 OA 
BRANCH  15  18
HETATM   18  N   UNL     1      -8.535  17.908  68.593  1.00  0.00    -0.292 N  
HETATM   19  H   UNL     1      -9.490  18.084  68.905  1.00  0.00     0.000 HD 
BRANCH  18  20
HETATM   20  C   UNL     1      -7.612  18.978  68.481  1.00  0.00    -0.329 A  
HETATM   21  C   UNL     1      -6.621  19.148  69.446  1.00  0.00    -0.333 A  
HETATM   22  C   UNL     1      -5.761  20.245  69.369  1.00  0.00    -0.344 A  
HETATM   23  C   UNL     1      -5.883  21.156  68.320  1.00  0.00    -0.358 A  
HETATM   24  C   UNL     1      -6.865  20.973  67.346  1.00  0.00    -0.434 A  
HETATM   25  C   UNL     1      -7.737  19.888  67.432  1.00  0.00    -0.316 A  
ENDBRANCH  18  20
ENDBRANCH  15  18
ENDBRANCH  13  15
ENDBRANCH   8   9
ENDBRANCH   4   7
TORSDOF 5
ENDMDL
MODEL      102
REMARK 921   NORMALIZED FREE ENERGY PREDICTED BY IDOCK:   -5.75 KCAL/MOL
REMARK 922        TOTAL FREE ENERGY PREDICTED BY IDOCK:   -7.90 KCAL/MOL
REMARK 923 INTER-LIGAND FREE ENERGY PREDICTED BY IDOCK:   -7.33 KCAL/MOL
REMARK 924 INTRA-LIGAND FREE ENERGY PREDICTED BY IDOCK:   -0.57 KCAL/MOL
REMARK 927      BINDING AFFINITY PREDICTED BY RF-SCORE:    0.00 PKD
ROOT
HETATM    1  O   UNL     1     -12.158  15.118  74.513  1.00  0.00    -0.740 OA 
HETATM    2  N   UNL     1     -13.177  15.731  73.766  1.00  0.00    -0.736 N  
HETATM    3  H   UNL     1     -11.892  15.451  75.363  1.00  0.00     0.000 HD 
HETATM    4  C   UNL     1     -13.558  15.253  72.547  1.00  0.00    -0.510 C  
HETATM    5  H   UNL     1     -13.643  16.555  74.145  1.00  0.00     0.000 HD 
HETATM    6  O   UNL     1     -14.402  15.836  71.874  1.00  0.00    -0.412 OA 
ENDROOT
BRANCH   4   7
HETATM    7  C   UNL     1     -12.903  14.002  72.093  1.00  0.00    -0.410 C  
HETATM    8  C   UNL     1     -13.627  12.901  71.842  1.00  0.00    -0.382 C  
BRANCH   8   9
HETATM    9  C   UNL     1     -12.980  11.668  71.396  1.00  0.00    -0.426 A  
HETATM   10  C   UNL     1     -13.064  10.512  72.181  1.00  0.00    -0.413 A  
HETATM   11  C   UNL     1     -12.398   9.346  71.795  1.00  0.00    -0.471 A  
HETATM   12  C   UNL     1     -11.636   9.328  70.627  1.00  0.00    -0.305 A  
HETATM   13  C   UNL     1     -11.561  10.478  69.833  1.00  0.00    -0.307 A  
HETATM   14  C   UNL     1     -12.225  11.651  70.217  1.00  0.00    -0.401 A  
BRANCH  13  15
HETATM   15  S   UNL     1     -10.496  10.492  68.405  1.00  0.00    -0.201 S  
HETATM   16  O   UNL     1      -9.136  10.666  68.869  1.00  0.00    -0.165 OA 
HETATM   17  O   UNL     1     -11.078  11.406  67.443  1.00  0.00    -0.254 OA 
BRANCH  15  18
HETATM   18  N   UNL     1     -10.666   8.954  67.739  1.00  0.00    -0.453 N  
HETATM   19  H   UNL     1     -11.593   8.548  67.616  1.00  0.00     0.000 HD 
BRANCH  18  20
HETATM   20  C   UNL     1      -9.512   8.231  67.350  1.00  0.00    -0.151 A  
HETATM   21  C   UNL     1      -8.796   8.614  66.217  1.00  0.00    -0.187 A  
HETATM   22  C   UNL     1      -7.703   7.854  65.798  1.00  0.00    -0.090 A  
HETATM   23  C   UNL     1      -7.319   6.725  66.521  1.00  0.00    -0.074 A  
HETATM   24  C   UNL     1      -8.027   6.353  67.664  1.00  0.00    -0.114 A  
HETATM   25  C   UNL     1      -9.131   7.101  68.074  1.00  0.00    -0.132 A  
ENDBRANCH  18  20
ENDBRANCH  15  18
ENDBRANCH  13  15
ENDBRANCH   8   9
ENDBRANCH   4   7
TORSDOF 5
ENDMDL
MODEL      103
REMARK 921   NORMALIZED FREE ENERGY PREDICTED BY IDOCK:   -5.75 KCAL/MOL
REMARK 922        TOTAL FREE ENERGY PREDICTED BY IDOCK:   -7.90 KCAL/MOL
REMARK 923 INTER-LIGAND FREE ENERGY PREDICTED BY IDOCK:   -7.24 KCAL/MOL
REMARK 924 INTRA-LIGAND FREE ENERGY PREDICTED BY IDOCK:   -0.67 KCAL/MOL
REMARK 927      BINDING AFFINITY PREDICTED BY RF-SCORE:    0.00 PKD
ROOT
HETATM    1  O   UNL     1     -10.485  19.654  68.658  1.00  0.00    -0.522 OA 
HETATM    2  N   UNL     1      -9.651  20.109  67.625  1.00  0.00    -0.387 N  
HETATM    3  H   UNL     1     -10.614  20.157  69.454  1.00  0.00     0.000 HD 
HETATM    4  C   UNL     1      -9.466  19.386  66.482  1.00  0.00    -0.364 C  
HETATM    5  H   UNL     1      -9.171  21.002  67.730  1.00  0.00     0.000 HD 
HETATM    6  O   UNL     1      -8.684  19.761  65.616  1.00  0.00    -0.338 OA 
ENDROOT
BRANCH   4   7
HETATM    7  C   UNL     1     -10.261  18.140  66.353  1.00  0.00    -0.405 C  
HETATM    8  C   UNL     1      -9.660  16.967  66.102  1.00  0.00    -0.265 C  
BRANCH   8   9
HETATM    9  C   UNL     1     -10.444  15.740  65.974  1.00  0.00    -0.350 A  
HETATM   10  C   UNL     1     -11.116  15.463  64.778  1.00  0.00    -0.416 A  
HETATM   11  C   UNL     1     -11.919  14.324  64.665  1.00  0.00    -0.468 A  
HETATM   12  C   UNL     1     -12.062  13.458  65.750  1.00  0.00    -0.481 A  
HETATM   13  C   UNL     1     -11.381  13.726  66.943  1.00  0.00    -0.328 A  
HETATM   14  C   UNL     1     -10.577  14.867  67.062  1.00  0.00    -0.289 A  
BRANCH  13  15
HETATM   15  S   UNL     1     -11.655  12.685  68.364  1.00  0.00    -0.347 S  
HETATM   16  O   UNL     1     -12.279  11.463  67.904  1.00  0.00    -0.592 OA 
HETATM   17  O   UNL     1     -12.281  13.504  69.382  1.00  0.00    -0.307 OA 
BRANCH  15  18
HETATM   18  N   UNL     1     -10.109  12.342  68.937  1.00  0.00    -0.427 N  
HETATM   19  H   UNL     1      -9.629  13.002  69.548  1.00  0.00     0.000 HD 
BRANCH  18  20
HETATM   20  C   UNL     1      -9.480  11.128  68.564  1.00  0.00    -0.193 A  
HETATM   21  C   UNL     1      -8.963  10.976  67.278  1.00  0.00    -0.138 A  
HETATM   22  C   UNL     1      -8.410   9.753  66.894  1.00  0.00    -0.120 A  
HETATM   23  C   UNL     1      -8.361   8.693  67.799  1.00  0.00    -0.118 A  
HETATM   24  C   UNL     1      -8.865   8.853  69.091  1.00  0.00    -0.136 A  
HETATM   25  C   UNL     1      -9.434  10.069  69.470  1.00  0.00    -0.245 A  
ENDBRANCH  18  20
ENDBRANCH  15  18
ENDBRANCH  13  15
ENDBRANCH   8   9
ENDBRANCH   4   7
TORSDOF 5
ENDMDL
MODEL      104
REMARK 921   NORMALIZED FREE ENERGY PREDICTED BY IDOCK:   -5.75 KCAL/MOL
REMARK 922        TOTAL FREE ENERGY PREDICTED BY IDOCK:   -7.90 KCAL/MOL
REMARK 923 INTER-LIGAND FREE ENERGY PREDICTED BY IDOCK:   -7.26 KCAL/MOL
REMARK 924 INTRA-LIGAND FREE ENERGY PREDICTED BY IDOCK:   -0.65 KCAL/MOL
REMARK 927      BINDING AFFINITY PREDICTED BY RF-SCORE:    0.00 PKD
ROOT
HETATM    1  O   UNL     1     -14.128   8.487  71.243  1.00  0.00    -0.581 OA 
HETATM    2  N   UNL     1     -13.252   8.312  72.325  1.00  0.00    -0.525 N  
HETATM    3  H   UNL     1     -15.070   8.407  71.345  1.00  0.00     0.000 HD 
HETATM    4  C   UNL     1     -11.900   8.427  72.179  1.00  0.00    -0.375 C  
HETATM    5  H   UNL     1     -13.635   8.094  73.245  1.00  0.00     0.000 HD 
HETATM    6  O   UNL     1     -11.141   8.205  73.116  1.00  0.00    -0.254 OA 
ENDROOT
BRANCH   4   7
HETATM    7  C   UNL     1     -11.413   8.832  70.838  1.00  0.00    -0.330 C  
HETATM    8  C   UNL     1     -11.270  10.128  70.524  1.00  0.00    -0.411 C  
BRANCH   8   9
HETATM    9  C   UNL     1     -10.790  10.527  69.202  1.00  0.00    -0.277 A  
HETATM   10  C   UNL     1      -9.594   9.996  68.704  1.00  0.00    -0.158 A  
HETATM   11  C   UNL     1      -9.094  10.417  67.468  1.00  0.00    -0.142 A  
HETATM   12  C   UNL     1      -9.782  11.376  66.725  1.00  0.00    -0.221 A  
HETATM   13  C   UNL     1     -10.985  11.898  67.213  1.00  0.00    -0.268 A  
HETATM   14  C   UNL     1     -11.489  11.482  68.453  1.00  0.00    -0.364 A  
BRANCH  13  15
HETATM   15  S   UNL     1     -11.802  13.207  66.321  1.00  0.00    -0.412 S  
HETATM   16  O   UNL     1     -12.390  14.105  67.292  1.00  0.00    -0.350 OA 
HETATM   17  O   UNL     1     -12.614  12.585  65.294  1.00  0.00    -0.645 OA 
BRANCH  15  18
HETATM   18  N   UNL     1     -10.559  14.000  65.507  1.00  0.00    -0.303 N  
HETATM   19  H   UNL     1     -10.259  13.677  64.588  1.00  0.00     0.000 HD 
BRANCH  18  20
HETATM   20  C   UNL     1      -9.934  15.120  66.109  1.00  0.00    -0.295 A  
HETATM   21  C   UNL     1      -8.903  14.933  67.028  1.00  0.00    -0.255 A  
HETATM   22  C   UNL     1      -8.341  16.036  67.672  1.00  0.00    -0.164 A  
HETATM   23  C   UNL     1      -8.799  17.322  67.384  1.00  0.00    -0.222 A  
HETATM   24  C   UNL     1      -9.820  17.507  66.451  1.00  0.00    -0.316 A  
HETATM   25  C   UNL     1     -10.395  16.404  65.820  1.00  0.00    -0.388 A  
ENDBRANCH  18  20
ENDBRANCH  15  18
ENDBRANCH  13  15
ENDBRANCH   8   9
ENDBRANCH   4   7
TORSDOF 5
ENDMDL
MODEL      105
REMARK 921   NORMALIZED FREE ENERGY PREDICTED BY IDOCK:   -5.69 KCAL/MOL
REMARK 922        TOTAL FREE ENERGY PREDICTED BY IDOCK:   -7.82 KCAL/MOL
REMARK 923 INTER-LIGAND FREE ENERGY PREDICTED BY IDOCK:   -7.63 KCAL/MOL
REMARK 924 INTRA-LIGAND FREE ENERGY PREDICTED BY IDOCK:   -0.19 KCAL/MOL
REMARK 927      BINDING AFFINITY PREDICTED BY RF-SCORE:    0.00 PKD
ROOT
HETATM    1  O   UNL     1      -7.134  19.800  65.857  1.00  0.00    -0.265 OA 
HETATM    2  N   UNL     1      -8.450  20.286  65.920  1.00  0.00    -0.544 N  
HETATM    3  H   UNL     1      -6.408  20.357  65.598  1.00  0.00     0.000 HD 
HETATM    4  C   UNL     1      -9.491  19.487  66.292  1.00  0.00    -0.384 C  
HETATM    5  H   UNL     1      -8.631  21.261  65.683  1.00  0.00     0.000 HD 
HETATM    6  O   UNL     1     -10.645  19.904  66.278  1.00  0.00    -0.467 OA 
ENDROOT
BRANCH   4   7
HETATM    7  C   UNL     1      -9.148  18.105  66.709  1.00  0.00    -0.287 C  
HETATM    8  C   UNL     1     -10.082  17.143  66.725  1.00  0.00    -0.303 C  
BRANCH   8   9
HETATM    9  C   UNL     1      -9.742  15.782  67.137  1.00  0.00    -0.227 A  
HETATM   10  C   UNL     1      -8.467  15.269  66.870  1.00  0.00    -0.286 A  
HETATM   11  C   UNL     1      -8.152  13.949  67.204  1.00  0.00    -0.103 A  
HETATM   12  C   UNL     1      -9.111  13.129  67.800  1.00  0.00    -0.200 A  
HETATM   13  C   UNL     1     -10.382  13.643  68.081  1.00  0.00    -0.245 A  
HETATM   14  C   UNL     1     -10.704  14.965  67.745  1.00  0.00    -0.271 A  
BRANCH  13  15
HETATM   15  S   UNL     1     -11.642  12.565  68.735  1.00  0.00    -0.340 S  
HETATM   16  O   UNL     1     -12.155  11.770  67.639  1.00  0.00    -0.598 OA 
HETATM   17  O   UNL     1     -12.527  13.379  69.543  1.00  0.00    -0.175 OA 
BRANCH  15  18
HETATM   18  N   UNL     1     -10.820  11.566  69.814  1.00  0.00    -0.453 N  
HETATM   19  H   UNL     1      -9.818  11.680  69.957  1.00  0.00     0.000 HD 
BRANCH  18  20
HETATM   20  C   UNL     1     -11.535  10.567  70.521  1.00  0.00    -0.345 A  
HETATM   21  C   UNL     1     -12.674  10.907  71.249  1.00  0.00    -0.542 A  
HETATM   22  C   UNL     1     -13.330   9.933  72.002  1.00  0.00    -0.532 A  
HETATM   23  C   UNL     1     -12.857   8.620  72.012  1.00  0.00    -0.425 A  
HETATM   24  C   UNL     1     -11.727   8.280  71.269  1.00  0.00    -0.318 A  
HETATM   25  C   UNL     1     -11.059   9.256  70.530  1.00  0.00    -0.317 A  
ENDBRANCH  18  20
ENDBRANCH  15  18
ENDBRANCH  13  15
ENDBRANCH   8   9
ENDBRANCH   4   7
TORSDOF 5
ENDMDL
MODEL      106
REMARK 921   NORMALIZED FREE ENERGY PREDICTED BY IDOCK:   -5.67 KCAL/MOL
REMARK 922        TOTAL FREE ENERGY PREDICTED BY IDOCK:   -7.79 KCAL/MOL
REMARK 923 INTER-LIGAND FREE ENERGY PREDICTED BY IDOCK:   -7.28 KCAL/MOL
REMARK 924 INTRA-LIGAND FREE ENERGY PREDICTED BY IDOCK:   -0.52 KCAL/MOL
REMARK 927      BINDING AFFINITY PREDICTED BY RF-SCORE:    0.00 PKD
ROOT
HETATM    1  O   UNL     1     -12.175  16.964  74.433  1.00  0.00    -0.597 OA 
HETATM    2  N   UNL     1     -13.051  15.962  73.986  1.00  0.00    -0.877 N  
HETATM    3  H   UNL     1     -12.224  17.311  75.316  1.00  0.00     0.000 HD 
HETATM    4  C   UNL     1     -12.980  15.463  72.717  1.00  0.00    -0.448 C  
HETATM    5  H   UNL     1     -13.757  15.597  74.624  1.00  0.00     0.000 HD 
HETATM    6  O   UNL     1     -13.793  14.636  72.317  1.00  0.00    -0.405 OA 
ENDROOT
BRANCH   4   7
HETATM    7  C   UNL     1     -11.876  15.970  71.868  1.00  0.00    -0.619 C  
HETATM    8  C   UNL     1     -11.614  15.410  70.678  1.00  0.00    -0.363 C  
BRANCH   8   9
HETATM    9  C   UNL     1     -10.524  15.911  69.842  1.00  0.00    -0.311 A  
HETATM   10  C   UNL     1     -10.492  17.262  69.473  1.00  0.00    -0.054 A  
HETATM   11  C   UNL     1      -9.490  17.738  68.623  1.00  0.00    -0.283 A  
HETATM   12  C   UNL     1      -8.518  16.868  68.129  1.00  0.00    -0.217 A  
HETATM   13  C   UNL     1      -8.540  15.521  68.507  1.00  0.00    -0.176 A  
HETATM   14  C   UNL     1      -9.544  15.037  69.356  1.00  0.00    -0.145 A  
BRANCH  13  15
HETATM   15  S   UNL     1      -7.370  14.386  67.785  1.00  0.00    -0.187 S  
HETATM   16  O   UNL     1      -6.777  13.619  68.859  1.00  0.00    -0.098 OA 
HETATM   17  O   UNL     1      -6.544  15.145  66.867  1.00  0.00    -0.122 OA 
BRANCH  15  18
HETATM   18  N   UNL     1      -8.309  13.370  66.824  1.00  0.00    -0.420 N  
HETATM   19  H   UNL     1      -7.960  12.450  66.556  1.00  0.00     0.000 HD 
BRANCH  18  20
HETATM   20  C   UNL     1      -9.587  13.803  66.392  1.00  0.00    -0.272 A  
HETATM   21  C   UNL     1      -9.712  14.973  65.645  1.00  0.00    -0.344 A  
HETATM   22  C   UNL     1     -10.980  15.433  65.285  1.00  0.00    -0.397 A  
HETATM   23  C   UNL     1     -12.116  14.713  65.657  1.00  0.00    -0.212 A  
HETATM   24  C   UNL     1     -11.987  13.533  66.391  1.00  0.00    -0.459 A  
HETATM   25  C   UNL     1     -10.721  13.083  66.767  1.00  0.00    -0.273 A  
ENDBRANCH  18  20
ENDBRANCH  15  18
ENDBRANCH  13  15
ENDBRANCH   8   9
ENDBRANCH   4   7
TORSDOF 5
ENDMDL
MODEL      107
REMARK 921   NORMALIZED FREE ENERGY PREDICTED BY IDOCK:   -5.66 KCAL/MOL
REMARK 922        TOTAL FREE ENERGY PREDICTED BY IDOCK:   -7.79 KCAL/MOL
REMARK 923 INTER-LIGAND FREE ENERGY PREDICTED BY IDOCK:   -7.23 KCAL/MOL
REMARK 924 INTRA-LIGAND FREE ENERGY PREDICTED BY IDOCK:   -0.56 KCAL/MOL
REMARK 927      BINDING AFFINITY PREDICTED BY RF-SCORE:    0.00 PKD
ROOT
HETATM    1  O   UNL     1      -9.330   9.427  62.898  1.00  0.00    -0.528 OA 
HETATM    2  N   UNL     1     -10.048  10.612  62.672  1.00  0.00    -0.763 N  
HETATM    3  H   UNL     1      -9.117   8.830  62.190  1.00  0.00     0.000 HD 
HETATM    4  C   UNL     1     -10.353  11.470  63.689  1.00  0.00    -0.417 C  
HETATM    5  H   UNL     1     -10.348  10.838  61.724  1.00  0.00     0.000 HD 
HETATM    6  O   UNL     1     -11.038  12.467  63.491  1.00  0.00    -0.444 OA 
ENDROOT
BRANCH   4   7
HETATM    7  C   UNL     1      -9.812  11.128  65.027  1.00  0.00    -0.315 C  
HETATM    8  C   UNL     1     -10.628  10.739  66.017  1.00  0.00    -0.224 C  
BRANCH   8   9
HETATM    9  C   UNL     1     -10.093  10.404  67.336  1.00  0.00    -0.237 A  
HETATM   10  C   UNL     1      -8.710  10.271  67.515  1.00  0.00    -0.125 A  
HETATM   11  C   UNL     1      -8.192   9.889  68.756  1.00  0.00    -0.114 A  
HETATM   12  C   UNL     1      -9.051   9.631  69.824  1.00  0.00    -0.232 A  
HETATM   13  C   UNL     1     -10.432   9.776  69.652  1.00  0.00    -0.242 A  
HETATM   14  C   UNL     1     -10.957  10.155  68.409  1.00  0.00    -0.293 A  
BRANCH  13  15
HETATM   15  S   UNL     1     -11.535   9.334  70.980  1.00  0.00    -0.346 S  
HETATM   16  O   UNL     1     -12.630  10.280  70.979  1.00  0.00    -0.329 OA 
HETATM   17  O   UNL     1     -10.724   9.134  72.164  1.00  0.00    -0.288 OA 
BRANCH  15  18
HETATM   18  N   UNL     1     -12.112   7.810  70.556  1.00  0.00    -0.492 N  
HETATM   19  H   UNL     1     -12.950   7.719  69.983  1.00  0.00     0.000 HD 
BRANCH  18  20
HETATM   20  C   UNL     1     -11.424   6.654  71.003  1.00  0.00    -0.330 A  
HETATM   21  C   UNL     1     -10.543   5.993  70.149  1.00  0.00    -0.341 A  
HETATM   22  C   UNL     1      -9.924   4.815  70.570  1.00  0.00    -0.306 A  
HETATM   23  C   UNL     1     -10.175   4.311  71.847  1.00  0.00    -0.200 A  
HETATM   24  C   UNL     1     -11.045   4.984  72.705  1.00  0.00    -0.310 A  
HETATM   25  C   UNL     1     -11.678   6.152  72.279  1.00  0.00    -0.352 A  
ENDBRANCH  18  20
ENDBRANCH  15  18
ENDBRANCH  13  15
ENDBRANCH   8   9
ENDBRANCH   4   7
TORSDOF 5
ENDMDL
MODEL      108
REMARK 921   NORMALIZED FREE ENERGY PREDICTED BY IDOCK:   -5.66 KCAL/MOL
REMARK 922        TOTAL FREE ENERGY PREDICTED BY IDOCK:   -7.79 KCAL/MOL
REMARK 923 INTER-LIGAND FREE ENERGY PREDICTED BY IDOCK:   -7.25 KCAL/MOL
REMARK 924 INTRA-LIGAND FREE ENERGY PREDICTED BY IDOCK:   -0.54 KCAL/MOL
REMARK 927      BINDING AFFINITY PREDICTED BY RF-SCORE:    0.00 PKD
ROOT
HETATM    1  O   UNL     1     -11.498   4.442  64.989  1.00  0.00    -1.090 OA 
HETATM    2  N   UNL     1     -10.405   3.808  65.601  1.00  0.00    -0.408 N  
HETATM    3  H   UNL     1     -12.301   3.973  64.793  1.00  0.00     0.000 HD 
HETATM    4  C   UNL     1      -9.251   4.481  65.881  1.00  0.00    -0.143 C  
HETATM    5  H   UNL     1     -10.475   2.820  65.842  1.00  0.00     0.000 HD 
HETATM    6  O   UNL     1      -8.280   3.902  66.354  1.00  0.00    -0.103 OA 
ENDROOT
BRANCH   4   7
HETATM    7  C   UNL     1      -9.246   5.935  65.586  1.00  0.00    -0.004 C  
HETATM    8  C   UNL     1      -9.482   6.831  66.555  1.00  0.00    -0.193 C  
BRANCH   8   9
HETATM    9  C   UNL     1      -9.477   8.264  66.263  1.00  0.00    -0.271 A  
HETATM   10  C   UNL     1      -8.747   8.751  65.172  1.00  0.00    -0.202 A  
HETATM   11  C   UNL     1      -8.685  10.125  64.920  1.00  0.00    -0.198 A  
HETATM   12  C   UNL     1      -9.345  11.021  65.761  1.00  0.00    -0.236 A  
HETATM   13  C   UNL     1     -10.086  10.536  66.844  1.00  0.00    -0.216 A  
HETATM   14  C   UNL     1     -10.149   9.161  67.103  1.00  0.00    -0.301 A  
BRANCH  13  15
HETATM   15  S   UNL     1     -10.832  11.686  67.984  1.00  0.00    -0.231 S  
HETATM   16  O   UNL     1     -12.268  11.574  67.848  1.00  0.00    -0.586 OA 
HETATM   17  O   UNL     1     -10.163  12.960  67.809  1.00  0.00    -0.215 OA 
BRANCH  15  18
HETATM   18  N   UNL     1     -10.368  11.129  69.504  1.00  0.00    -0.441 N  
HETATM   19  H   UNL     1      -9.390  11.163  69.788  1.00  0.00     0.000 HD 
BRANCH  18  20
HETATM   20  C   UNL     1     -11.350  10.612  70.387  1.00  0.00    -0.304 A  
HETATM   21  C   UNL     1     -11.414   9.242  70.633  1.00  0.00    -0.327 A  
HETATM   22  C   UNL     1     -12.429   8.732  71.446  1.00  0.00    -0.348 A  
HETATM   23  C   UNL     1     -13.363   9.593  72.022  1.00  0.00    -0.547 A  
HETATM   24  C   UNL     1     -13.285  10.967  71.786  1.00  0.00    -0.513 A  
HETATM   25  C   UNL     1     -12.283  11.476  70.960  1.00  0.00    -0.368 A  
ENDBRANCH  18  20
ENDBRANCH  15  18
ENDBRANCH  13  15
ENDBRANCH   8   9
ENDBRANCH   4   7
TORSDOF 5
ENDMDL
MODEL      109
REMARK 921   NORMALIZED FREE ENERGY PREDICTED BY IDOCK:   -5.66 KCAL/MOL
REMARK 922        TOTAL FREE ENERGY PREDICTED BY IDOCK:   -7.78 KCAL/MOL
REMARK 923 INTER-LIGAND FREE ENERGY PREDICTED BY IDOCK:   -7.08 KCAL/MOL
REMARK 924 INTRA-LIGAND FREE ENERGY PREDICTED BY IDOCK:   -0.70 KCAL/MOL
REMARK 927      BINDING AFFINITY PREDICTED BY RF-SCORE:    0.00 PKD
ROOT
HETATM    1  O   UNL     1     -12.688  14.179  69.578  1.00  0.00    -0.458 OA 
HETATM    2  N   UNL     1     -12.394  14.667  68.295  1.00  0.00    -0.593 N  
HETATM    3  H   UNL     1     -13.076  14.733  70.245  1.00  0.00     0.000 HD 
HETATM    4  C   UNL     1     -11.837  13.872  67.336  1.00  0.00    -0.402 C  
HETATM    5  H   UNL     1     -12.601  15.641  68.073  1.00  0.00     0.000 HD 
HETATM    6  O   UNL     1     -11.522  14.326  66.241  1.00  0.00    -0.337 OA 
ENDROOT
BRANCH   4   7
HETATM    7  C   UNL     1     -11.641  12.446  67.692  1.00  0.00    -0.421 C  
HETATM    8  C   UNL     1     -10.408  11.944  67.858  1.00  0.00    -0.212 C  
BRANCH   8   9
HETATM    9  C   UNL     1     -10.217  10.537  68.209  1.00  0.00    -0.185 A  
HETATM   10  C   UNL     1     -10.672   9.534  67.344  1.00  0.00    -0.297 A  
HETATM   11  C   UNL     1     -10.550   8.188  67.698  1.00  0.00    -0.258 A  
HETATM   12  C   UNL     1      -9.980   7.834  68.921  1.00  0.00    -0.185 A  
HETATM   13  C   UNL     1      -9.512   8.833  69.780  1.00  0.00    -0.167 A  
HETATM   14  C   UNL     1      -9.634  10.185  69.433  1.00  0.00    -0.249 A  
BRANCH  13  15
HETATM   15  S   UNL     1      -8.890   8.388  71.391  1.00  0.00    -0.200 S  
HETATM   16  O   UNL     1      -7.734   9.215  71.663  1.00  0.00    -0.338 OA 
HETATM   17  O   UNL     1      -8.798   6.942  71.431  1.00  0.00    -0.133 OA 
BRANCH  15  18
HETATM   18  N   UNL     1     -10.134   8.799  72.449  1.00  0.00    -0.245 N  
HETATM   19  H   UNL     1      -9.927   9.285  73.321  1.00  0.00     0.000 HD 
BRANCH  18  20
HETATM   20  C   UNL     1     -11.471   8.464  72.118  1.00  0.00    -0.372 A  
HETATM   21  C   UNL     1     -12.446   9.459  72.060  1.00  0.00    -0.440 A  
HETATM   22  C   UNL     1     -13.774   9.112  71.805  1.00  0.00    -0.465 A  
HETATM   23  C   UNL     1     -14.120   7.778  71.593  1.00  0.00    -0.533 A  
HETATM   24  C   UNL     1     -13.139   6.786  71.635  1.00  0.00    -0.258 A  
HETATM   25  C   UNL     1     -11.815   7.129  71.907  1.00  0.00    -0.336 A  
ENDBRANCH  18  20
ENDBRANCH  15  18
ENDBRANCH  13  15
ENDBRANCH   8   9
ENDBRANCH   4   7
TORSDOF 5
ENDMDL
MODEL      110
REMARK 921   NORMALIZED FREE ENERGY PREDICTED BY IDOCK:   -5.65 KCAL/MOL
REMARK 922        TOTAL FREE ENERGY PREDICTED BY IDOCK:   -7.78 KCAL/MOL
REMARK 923 INTER-LIGAND FREE ENERGY PREDICTED BY IDOCK:   -7.22 KCAL/MOL
REMARK 924 INTRA-LIGAND FREE ENERGY PREDICTED BY IDOCK:   -0.56 KCAL/MOL
REMARK 927      BINDING AFFINITY PREDICTED BY RF-SCORE:    0.00 PKD
ROOT
HETATM    1  O   UNL     1     -11.401   7.177  67.541  1.00  0.00    -0.551 OA 
HETATM    2  N   UNL     1     -11.040   7.096  68.895  1.00  0.00    -0.458 N  
HETATM    3  H   UNL     1     -11.697   6.414  67.057  1.00  0.00     0.000 HD 
HETATM    4  C   UNL     1     -10.615   8.191  69.590  1.00  0.00    -0.223 C  
HETATM    5  H   UNL     1     -11.096   6.196  69.372  1.00  0.00     0.000 HD 
HETATM    6  O   UNL     1     -10.238   8.095  70.753  1.00  0.00    -0.192 OA 
ENDROOT
BRANCH   4   7
HETATM    7  C   UNL     1     -10.639   9.484  68.864  1.00  0.00    -0.239 C  
HETATM    8  C   UNL     1     -11.536  10.430  69.180  1.00  0.00    -0.261 C  
BRANCH   8   9
HETATM    9  C   UNL     1     -11.560  11.704  68.463  1.00  0.00    -0.379 A  
HETATM   10  C   UNL     1     -11.631  11.717  67.065  1.00  0.00    -0.321 A  
HETATM   11  C   UNL     1     -11.592  12.927  66.366  1.00  0.00    -0.425 A  
HETATM   12  C   UNL     1     -11.472  14.132  67.059  1.00  0.00    -0.370 A  
HETATM   13  C   UNL     1     -11.414  14.123  68.457  1.00  0.00    -0.300 A  
HETATM   14  C   UNL     1     -11.450  12.913  69.162  1.00  0.00    -0.360 A  
BRANCH  13  15
HETATM   15  S   UNL     1     -11.144  15.650  69.336  1.00  0.00    -0.333 S  
HETATM   16  O   UNL     1      -9.761  15.677  69.762  1.00  0.00    -0.284 OA 
HETATM   17  O   UNL     1     -12.222  15.791  70.294  1.00  0.00    -0.386 OA 
BRANCH  15  18
HETATM   18  N   UNL     1     -11.397  16.849  68.180  1.00  0.00    -0.102 N  
HETATM   19  H   UNL     1     -12.336  17.039  67.834  1.00  0.00     0.000 HD 
BRANCH  18  20
HETATM   20  C   UNL     1     -10.292  17.592  67.693  1.00  0.00    -0.368 A  
HETATM   21  C   UNL     1      -9.412  17.016  66.780  1.00  0.00    -0.270 A  
HETATM   22  C   UNL     1      -8.286  17.726  66.360  1.00  0.00    -0.290 A  
HETATM   23  C   UNL     1      -8.054  19.015  66.841  1.00  0.00    -0.277 A  
HETATM   24  C   UNL     1      -8.946  19.596  67.743  1.00  0.00    -0.385 A  
HETATM   25  C   UNL     1     -10.062  18.880  68.177  1.00  0.00    -0.447 A  
ENDBRANCH  18  20
ENDBRANCH  15  18
ENDBRANCH  13  15
ENDBRANCH   8   9
ENDBRANCH   4   7
TORSDOF 5
ENDMDL
MODEL      111
REMARK 921   NORMALIZED FREE ENERGY PREDICTED BY IDOCK:   -5.64 KCAL/MOL
REMARK 922        TOTAL FREE ENERGY PREDICTED BY IDOCK:   -7.75 KCAL/MOL
REMARK 923 INTER-LIGAND FREE ENERGY PREDICTED BY IDOCK:   -7.03 KCAL/MOL
REMARK 924 INTRA-LIGAND FREE ENERGY PREDICTED BY IDOCK:   -0.72 KCAL/MOL
REMARK 927      BINDING AFFINITY PREDICTED BY RF-SCORE:    0.00 PKD
ROOT
HETATM    1  O   UNL     1     -10.888  11.633  63.031  1.00  0.00    -0.651 OA 
HETATM    2  N   UNL     1     -11.709  12.748  63.260  1.00  0.00    -0.787 N  
HETATM    3  H   UNL     1     -10.571  11.417  62.161  1.00  0.00     0.000 HD 
HETATM    4  C   UNL     1     -12.164  13.058  64.509  1.00  0.00    -0.416 C  
HETATM    5  H   UNL     1     -11.973  13.341  62.474  1.00  0.00     0.000 HD 
HETATM    6  O   UNL     1     -12.936  13.994  64.687  1.00  0.00    -0.639 OA 
ENDROOT
BRANCH   4   7
HETATM    7  C   UNL     1     -11.673  12.208  65.621  1.00  0.00    -0.385 C  
HETATM    8  C   UNL     1     -11.783  12.615  66.894  1.00  0.00    -0.453 C  
BRANCH   8   9
HETATM    9  C   UNL     1     -11.298  11.776  67.989  1.00  0.00    -0.355 A  
HETATM   10  C   UNL     1     -12.157  11.437  69.042  1.00  0.00    -0.316 A  
HETATM   11  C   UNL     1     -11.687  10.689  70.124  1.00  0.00    -0.417 A  
HETATM   12  C   UNL     1     -10.354  10.280  70.167  1.00  0.00    -0.210 A  
HETATM   13  C   UNL     1      -9.497  10.606  69.110  1.00  0.00    -0.170 A  
HETATM   14  C   UNL     1      -9.962  11.359  68.023  1.00  0.00    -0.192 A  
BRANCH  13  15
HETATM   15  S   UNL     1      -7.768  10.185  69.218  1.00  0.00    -0.140 S  
HETATM   16  O   UNL     1      -7.414  10.126  70.620  1.00  0.00    -0.277 OA 
HETATM   17  O   UNL     1      -7.055  11.056  68.306  1.00  0.00    -0.068 OA 
BRANCH  15  18
HETATM   18  N   UNL     1      -7.669   8.641  68.551  1.00  0.00    -0.098 N  
HETATM   19  H   UNL     1      -6.770   8.271  68.244  1.00  0.00     0.000 HD 
BRANCH  18  20
HETATM   20  C   UNL     1      -8.845   7.862  68.419  1.00  0.00    -0.130 A  
HETATM   21  C   UNL     1      -9.587   7.911  67.241  1.00  0.00    -0.205 A  
HETATM   22  C   UNL     1     -10.782   7.197  67.145  1.00  0.00    -0.422 A  
HETATM   23  C   UNL     1     -11.223   6.424  68.219  1.00  0.00    -0.276 A  
HETATM   24  C   UNL     1     -10.470   6.363  69.392  1.00  0.00    -0.277 A  
HETATM   25  C   UNL     1      -9.284   7.091  69.496  1.00  0.00    -0.149 A  
ENDBRANCH  18  20
ENDBRANCH  15  18
ENDBRANCH  13  15
ENDBRANCH   8   9
ENDBRANCH   4   7
TORSDOF 5
ENDMDL
MODEL      112
REMARK 921   NORMALIZED FREE ENERGY PREDICTED BY IDOCK:   -5.62 KCAL/MOL
REMARK 922        TOTAL FREE ENERGY PREDICTED BY IDOCK:   -7.73 KCAL/MOL
REMARK 923 INTER-LIGAND FREE ENERGY PREDICTED BY IDOCK:   -7.15 KCAL/MOL
REMARK 924 INTRA-LIGAND FREE ENERGY PREDICTED BY IDOCK:   -0.58 KCAL/MOL
REMARK 927      BINDING AFFINITY PREDICTED BY RF-SCORE:    0.00 PKD
ROOT
HETATM    1  O   UNL     1     -11.788  17.262  73.638  1.00  0.00    -0.088 OA 
HETATM    2  N   UNL     1     -12.713  16.222  73.823  1.00  0.00    -0.611 N  
HETATM    3  H   UNL     1     -11.613  17.901  74.319  1.00  0.00     0.000 HD 
HETATM    4  C   UNL     1     -12.963  15.304  72.845  1.00  0.00    -0.463 C  
HETATM    5  H   UNL     1     -13.210  16.150  74.710  1.00  0.00     0.000 HD 
HETATM    6  O   UNL     1     -13.821  14.440  72.992  1.00  0.00    -0.553 OA 
ENDROOT
BRANCH   4   7
HETATM    7  C   UNL     1     -12.144  15.410  71.613  1.00  0.00    -0.449 C  
HETATM    8  C   UNL     1     -12.671  15.125  70.413  1.00  0.00    -0.378 C  
BRANCH   8   9
HETATM    9  C   UNL     1     -11.862  15.229  69.200  1.00  0.00    -0.345 A  
HETATM   10  C   UNL     1     -11.493  14.071  68.505  1.00  0.00    -0.336 A  
HETATM   11  C   UNL     1     -10.668  14.155  67.379  1.00  0.00    -0.284 A  
HETATM   12  C   UNL     1     -10.201  15.395  66.944  1.00  0.00    -0.273 A  
HETATM   13  C   UNL     1     -10.579  16.555  67.629  1.00  0.00    -0.321 A  
HETATM   14  C   UNL     1     -11.403  16.477  68.759  1.00  0.00    -0.221 A  
BRANCH  13  15
HETATM   15  S   UNL     1      -9.889  18.126  67.144  1.00  0.00    -0.332 S  
HETATM   16  O   UNL     1     -10.988  19.009  66.815  1.00  0.00    -0.325 OA 
HETATM   17  O   UNL     1      -8.837  17.856  66.186  1.00  0.00    -0.452 OA 
BRANCH  15  18
HETATM   18  N   UNL     1      -9.115  18.689  68.530  1.00  0.00    -0.324 N  
HETATM   19  H   UNL     1      -9.607  19.302  69.180  1.00  0.00     0.000 HD 
BRANCH  18  20
HETATM   20  C   UNL     1      -7.775  18.304  68.786  1.00  0.00    -0.269 A  
HETATM   21  C   UNL     1      -6.773  19.270  68.855  1.00  0.00    -0.347 A  
HETATM   22  C   UNL     1      -5.445  18.878  69.034  1.00  0.00    -0.203 A  
HETATM   23  C   UNL     1      -5.127  17.526  69.163  1.00  0.00    -0.172 A  
HETATM   24  C   UNL     1      -6.135  16.563  69.111  1.00  0.00    -0.162 A  
HETATM   25  C   UNL     1      -7.460  16.952  68.913  1.00  0.00    -0.238 A  
ENDBRANCH  18  20
ENDBRANCH  15  18
ENDBRANCH  13  15
ENDBRANCH   8   9
ENDBRANCH   4   7
TORSDOF 5
ENDMDL
MODEL      113
REMARK 921   NORMALIZED FREE ENERGY PREDICTED BY IDOCK:   -5.59 KCAL/MOL
REMARK 922        TOTAL FREE ENERGY PREDICTED BY IDOCK:   -7.70 KCAL/MOL
REMARK 923 INTER-LIGAND FREE ENERGY PREDICTED BY IDOCK:   -7.20 KCAL/MOL
REMARK 924 INTRA-LIGAND FREE ENERGY PREDICTED BY IDOCK:   -0.50 KCAL/MOL
REMARK 927      BINDING AFFINITY PREDICTED BY RF-SCORE:    0.00 PKD
ROOT
HETATM    1  O   UNL     1     -11.403   7.825  73.225  1.00  0.00    -0.562 OA 
HETATM    2  N   UNL     1     -12.736   7.902  72.794  1.00  0.00    -0.456 N  
HETATM    3  H   UNL     1     -11.151   7.301  73.977  1.00  0.00     0.000 HD 
HETATM    4  C   UNL     1     -13.098   8.653  71.713  1.00  0.00    -0.361 C  
HETATM    5  H   UNL     1     -13.453   7.384  73.301  1.00  0.00     0.000 HD 
HETATM    6  O   UNL     1     -14.275   8.767  71.387  1.00  0.00    -0.368 OA 
ENDROOT
BRANCH   4   7
HETATM    7  C   UNL     1     -11.997   9.310  70.967  1.00  0.00    -0.369 C  
HETATM    8  C   UNL     1     -12.201  10.470  70.327  1.00  0.00    -0.393 C  
BRANCH   8   9
HETATM    9  C   UNL     1     -11.116  11.116  69.591  1.00  0.00    -0.297 A  
HETATM   10  C   UNL     1      -9.874  10.479  69.476  1.00  0.00    -0.170 A  
HETATM   11  C   UNL     1      -8.811  11.115  68.829  1.00  0.00    -0.128 A  
HETATM   12  C   UNL     1      -8.978  12.394  68.298  1.00  0.00    -0.178 A  
HETATM   13  C   UNL     1     -10.221  13.028  68.399  1.00  0.00    -0.245 A  
HETATM   14  C   UNL     1     -11.290  12.397  69.050  1.00  0.00    -0.336 A  
BRANCH  13  15
HETATM   15  S   UNL     1     -10.402  14.705  67.826  1.00  0.00    -0.238 S  
HETATM   16  O   UNL     1      -9.508  15.537  68.603  1.00  0.00    -0.190 OA 
HETATM   17  O   UNL     1     -11.822  14.989  67.768  1.00  0.00    -0.336 OA 
BRANCH  15  18
HETATM   18  N   UNL     1      -9.876  14.662  66.226  1.00  0.00    -0.285 N  
HETATM   19  H   UNL     1      -9.053  15.191  65.942  1.00  0.00     0.000 HD 
BRANCH  18  20
HETATM   20  C   UNL     1     -10.587  13.883  65.279  1.00  0.00    -0.361 A  
HETATM   21  C   UNL     1     -10.039  12.695  64.801  1.00  0.00    -0.241 A  
HETATM   22  C   UNL     1     -10.710  11.970  63.814  1.00  0.00    -0.478 A  
HETATM   23  C   UNL     1     -11.934  12.426  63.324  1.00  0.00    -0.509 A  
HETATM   24  C   UNL     1     -12.488  13.608  63.817  1.00  0.00    -0.262 A  
HETATM   25  C   UNL     1     -11.810  14.342  64.789  1.00  0.00    -0.436 A  
ENDBRANCH  18  20
ENDBRANCH  15  18
ENDBRANCH  13  15
ENDBRANCH   8   9
ENDBRANCH   4   7
TORSDOF 5
ENDMDL
MODEL      114
REMARK 921   NORMALIZED FREE ENERGY PREDICTED BY IDOCK:   -5.58 KCAL/MOL
REMARK 922        TOTAL FREE ENERGY PREDICTED BY IDOCK:   -7.68 KCAL/MOL
REMARK 923 INTER-LIGAND FREE ENERGY PREDICTED BY IDOCK:   -7.19 KCAL/MOL
REMARK 924 INTRA-LIGAND FREE ENERGY PREDICTED BY IDOCK:   -0.49 KCAL/MOL
REMARK 927      BINDING AFFINITY PREDICTED BY RF-SCORE:    0.00 PKD
ROOT
HETATM    1  O   UNL     1     -10.414   8.120  73.121  1.00  0.00    -0.285 OA 
HETATM    2  N   UNL     1     -11.676   7.565  72.856  1.00  0.00    -0.598 N  
HETATM    3  H   UNL     1      -9.729   7.619  73.550  1.00  0.00     0.000 HD 
HETATM    4  C   UNL     1     -12.659   8.283  72.240  1.00  0.00    -0.311 C  
HETATM    5  H   UNL     1     -11.863   6.601  73.130  1.00  0.00     0.000 HD 
HETATM    6  O   UNL     1     -13.779   7.811  72.074  1.00  0.00    -0.281 OA 
ENDROOT
BRANCH   4   7
HETATM    7  C   UNL     1     -12.296   9.648  71.787  1.00  0.00    -0.474 C  
HETATM    8  C   UNL     1     -12.709  10.108  70.598  1.00  0.00    -0.334 C  
BRANCH   8   9
HETATM    9  C   UNL     1     -12.350  11.453  70.152  1.00  0.00    -0.344 A  
HETATM   10  C   UNL     1     -12.351  12.515  71.066  1.00  0.00    -0.307 A  
HETATM   11  C   UNL     1     -12.069  13.815  70.638  1.00  0.00    -0.405 A  
HETATM   12  C   UNL     1     -11.792  14.066  69.294  1.00  0.00    -0.389 A  
HETATM   13  C   UNL     1     -11.777  13.006  68.382  1.00  0.00    -0.351 A  
HETATM   14  C   UNL     1     -12.062  11.701  68.804  1.00  0.00    -0.221 A  
BRANCH  13  15
HETATM   15  S   UNL     1     -11.540  13.342  66.648  1.00  0.00    -0.385 S  
HETATM   16  O   UNL     1     -11.640  14.773  66.456  1.00  0.00    -0.355 OA 
HETATM   17  O   UNL     1     -12.392  12.430  65.912  1.00  0.00    -0.638 OA 
BRANCH  15  18
HETATM   18  N   UNL     1      -9.960  12.846  66.336  1.00  0.00    -0.261 N  
HETATM   19  H   UNL     1      -9.280  13.506  65.960  1.00  0.00     0.000 HD 
BRANCH  18  20
HETATM   20  C   UNL     1      -9.585  11.506  66.602  1.00  0.00    -0.197 A  
HETATM   21  C   UNL     1      -8.647  11.227  67.594  1.00  0.00    -0.124 A  
HETATM   22  C   UNL     1      -8.227   9.912  67.801  1.00  0.00    -0.114 A  
HETATM   23  C   UNL     1      -8.759   8.879  67.028  1.00  0.00    -0.130 A  
HETATM   24  C   UNL     1      -9.710   9.159  66.047  1.00  0.00    -0.358 A  
HETATM   25  C   UNL     1     -10.117  10.475  65.827  1.00  0.00    -0.329 A  
ENDBRANCH  18  20
ENDBRANCH  15  18
ENDBRANCH  13  15
ENDBRANCH   8   9
ENDBRANCH   4   7
TORSDOF 5
ENDMDL
MODEL      115
REMARK 921   NORMALIZED FREE ENERGY PREDICTED BY IDOCK:   -5.57 KCAL/MOL
REMARK 922        TOTAL FREE ENERGY PREDICTED BY IDOCK:   -7.66 KCAL/MOL
REMARK 923 INTER-LIGAND FREE ENERGY PREDICTED BY IDOCK:   -7.16 KCAL/MOL
REMARK 924 INTRA-LIGAND FREE ENERGY PREDICTED BY IDOCK:   -0.50 KCAL/MOL
REMARK 927      BINDING AFFINITY PREDICTED BY RF-SCORE:    0.00 PKD
ROOT
HETATM    1  O   UNL     1     -11.531   9.156  69.421  1.00  0.00    -0.430 OA 
HETATM    2  N   UNL     1     -10.803   8.325  68.555  1.00  0.00    -0.427 N  
HETATM    3  H   UNL     1     -11.848   8.846  70.262  1.00  0.00     0.000 HD 
HETATM    4  C   UNL     1     -10.348   8.771  67.348  1.00  0.00    -0.280 C  
HETATM    5  H   UNL     1     -10.609   7.364  68.835  1.00  0.00     0.000 HD 
HETATM    6  O   UNL     1      -9.772   8.017  66.572  1.00  0.00    -0.221 OA 
ENDROOT
BRANCH   4   7
HETATM    7  C   UNL     1     -10.587  10.202  67.040  1.00  0.00    -0.290 C  
HETATM    8  C   UNL     1     -10.882  10.593  65.792  1.00  0.00    -0.010 C  
BRANCH   8   9
HETATM    9  C   UNL     1     -11.117  12.004  65.488  1.00  0.00    -0.361 A  
HETATM   10  C   UNL     1     -11.947  12.360  64.418  1.00  0.00    -0.482 A  
HETATM   11  C   UNL     1     -12.129  13.704  64.081  1.00  0.00    -0.484 A  
HETATM   12  C   UNL     1     -11.477  14.702  64.805  1.00  0.00    -0.410 A  
HETATM   13  C   UNL     1     -10.657  14.351  65.883  1.00  0.00    -0.307 A  
HETATM   14  C   UNL     1     -10.468  13.005  66.224  1.00  0.00    -0.285 A  
BRANCH  13  15
HETATM   15  S   UNL     1      -9.732  15.615  66.733  1.00  0.00    -0.253 S  
HETATM   16  O   UNL     1      -8.328  15.276  66.638  1.00  0.00    -0.256 OA 
HETATM   17  O   UNL     1     -10.365  15.819  68.020  1.00  0.00    -0.242 OA 
BRANCH  15  18
HETATM   18  N   UNL     1     -10.029  17.018  65.848  1.00  0.00    -0.258 N  
HETATM   19  H   UNL     1     -10.483  16.964  64.937  1.00  0.00     0.000 HD 
BRANCH  18  20
HETATM   20  C   UNL     1      -9.642  18.273  66.381  1.00  0.00    -0.305 A  
HETATM   21  C   UNL     1     -10.606  19.141  66.891  1.00  0.00    -0.540 A  
HETATM   22  C   UNL     1     -10.228  20.405  67.347  1.00  0.00    -0.427 A  
HETATM   23  C   UNL     1      -8.887  20.790  67.308  1.00  0.00    -0.259 A  
HETATM   24  C   UNL     1      -7.923  19.912  66.812  1.00  0.00    -0.340 A  
HETATM   25  C   UNL     1      -8.302  18.656  66.340  1.00  0.00    -0.292 A  
ENDBRANCH  18  20
ENDBRANCH  15  18
ENDBRANCH  13  15
ENDBRANCH   8   9
ENDBRANCH   4   7
TORSDOF 5
ENDMDL
MODEL      116
REMARK 921   NORMALIZED FREE ENERGY PREDICTED BY IDOCK:   -5.56 KCAL/MOL
REMARK 922        TOTAL FREE ENERGY PREDICTED BY IDOCK:   -7.66 KCAL/MOL
REMARK 923 INTER-LIGAND FREE ENERGY PREDICTED BY IDOCK:   -7.05 KCAL/MOL
REMARK 924 INTRA-LIGAND FREE ENERGY PREDICTED BY IDOCK:   -0.60 KCAL/MOL
REMARK 927      BINDING AFFINITY PREDICTED BY RF-SCORE:    0.00 PKD
ROOT
HETATM    1  O   UNL     1     -12.769  10.718  71.496  1.00  0.00    -0.395 OA 
HETATM    2  N   UNL     1     -13.518  11.748  72.087  1.00  0.00    -0.523 N  
HETATM    3  H   UNL     1     -12.972   9.802  71.649  1.00  0.00     0.000 HD 
HETATM    4  C   UNL     1     -13.228  13.063  71.866  1.00  0.00    -0.430 C  
HETATM    5  H   UNL     1     -14.299  11.507  72.697  1.00  0.00     0.000 HD 
HETATM    6  O   UNL     1     -13.846  13.952  72.441  1.00  0.00    -0.509 OA 
ENDROOT
BRANCH   4   7
HETATM    7  C   UNL     1     -12.138  13.346  70.901  1.00  0.00    -0.269 C  
HETATM    8  C   UNL     1     -12.398  13.474  69.592  1.00  0.00    -0.220 C  
BRANCH   8   9
HETATM    9  C   UNL     1     -11.323  13.752  68.641  1.00  0.00    -0.321 A  
HETATM   10  C   UNL     1     -10.323  12.797  68.419  1.00  0.00    -0.248 A  
HETATM   11  C   UNL     1      -9.257  13.076  67.560  1.00  0.00    -0.195 A  
HETATM   12  C   UNL     1      -9.178  14.315  66.923  1.00  0.00    -0.268 A  
HETATM   13  C   UNL     1     -10.182  15.267  67.133  1.00  0.00    -0.252 A  
HETATM   14  C   UNL     1     -11.251  14.993  67.996  1.00  0.00    -0.324 A  
BRANCH  13  15
HETATM   15  S   UNL     1     -10.020  16.889  66.413  1.00  0.00    -0.322 S  
HETATM   16  O   UNL     1     -10.629  17.838  67.320  1.00  0.00    -0.362 OA 
HETATM   17  O   UNL     1     -10.453  16.793  65.033  1.00  0.00    -0.675 OA 
BRANCH  15  18
HETATM   18  N   UNL     1      -8.358  17.159  66.355  1.00  0.00    -0.269 N  
HETATM   19  H   UNL     1      -7.827  16.911  65.521  1.00  0.00     0.000 HD 
BRANCH  18  20
HETATM   20  C   UNL     1      -7.705  17.732  67.474  1.00  0.00    -0.206 A  
HETATM   21  C   UNL     1      -7.582  19.116  67.577  1.00  0.00    -0.260 A  
HETATM   22  C   UNL     1      -6.874  19.671  68.645  1.00  0.00    -0.349 A  
HETATM   23  C   UNL     1      -6.308  18.843  69.613  1.00  0.00    -0.261 A  
HETATM   24  C   UNL     1      -6.447  17.458  69.517  1.00  0.00    -0.208 A  
HETATM   25  C   UNL     1      -7.138  16.901  68.441  1.00  0.00    -0.187 A  
ENDBRANCH  18  20
ENDBRANCH  15  18
ENDBRANCH  13  15
ENDBRANCH   8   9
ENDBRANCH   4   7
TORSDOF 5
ENDMDL
MODEL      117
REMARK 921   NORMALIZED FREE ENERGY PREDICTED BY IDOCK:   -5.55 KCAL/MOL
REMARK 922        TOTAL FREE ENERGY PREDICTED BY IDOCK:   -7.64 KCAL/MOL
REMARK 923 INTER-LIGAND FREE ENERGY PREDICTED BY IDOCK:   -7.01 KCAL/MOL
REMARK 924 INTRA-LIGAND FREE ENERGY PREDICTED BY IDOCK:   -0.63 KCAL/MOL
REMARK 927      BINDING AFFINITY PREDICTED BY RF-SCORE:    0.00 PKD
ROOT
HETATM    1  O   UNL     1     -11.421   4.848  65.666  1.00  0.00    -0.869 OA 
HETATM    2  N   UNL     1     -10.128   4.572  66.138  1.00  0.00    -0.246 N  
HETATM    3  H   UNL     1     -11.938   4.191  65.212  1.00  0.00     0.000 HD 
HETATM    4  C   UNL     1      -9.387   5.515  66.788  1.00  0.00    -0.132 C  
HETATM    5  H   UNL     1      -9.733   3.643  65.991  1.00  0.00     0.000 HD 
HETATM    6  O   UNL     1      -8.234   5.284  67.137  1.00  0.00    -0.107 OA 
ENDROOT
BRANCH   4   7
HETATM    7  C   UNL     1     -10.052   6.815  67.048  1.00  0.00    -0.264 C  
HETATM    8  C   UNL     1      -9.348   7.957  67.044  1.00  0.00    -0.200 C  
BRANCH   8   9
HETATM    9  C   UNL     1     -10.005   9.238  67.301  1.00  0.00    -0.264 A  
HETATM   10  C   UNL     1     -10.423   9.561  68.598  1.00  0.00    -0.237 A  
HETATM   11  C   UNL     1     -11.107  10.755  68.843  1.00  0.00    -0.307 A  
HETATM   12  C   UNL     1     -11.384  11.631  67.794  1.00  0.00    -0.356 A  
HETATM   13  C   UNL     1     -10.956  11.318  66.499  1.00  0.00    -0.245 A  
HETATM   14  C   UNL     1     -10.273  10.120  66.247  1.00  0.00    -0.288 A  
BRANCH  13  15
HETATM   15  S   UNL     1     -11.411  12.378  65.141  1.00  0.00    -0.334 S  
HETATM   16  O   UNL     1     -12.575  13.138  65.544  1.00  0.00    -0.472 OA 
HETATM   17  O   UNL     1     -11.432  11.561  63.945  1.00  0.00    -0.379 OA 
BRANCH  15  18
HETATM   18  N   UNL     1     -10.099  13.419  64.963  1.00  0.00    -0.530 N  
HETATM   19  H   UNL     1      -9.373  13.218  64.277  1.00  0.00     0.000 HD 
BRANCH  18  20
HETATM   20  C   UNL     1     -10.012  14.577  65.776  1.00  0.00    -0.334 A  
HETATM   21  C   UNL     1     -10.495  15.797  65.307  1.00  0.00    -0.427 A  
HETATM   22  C   UNL     1     -10.340  16.948  66.082  1.00  0.00    -0.327 A  
HETATM   23  C   UNL     1      -9.720  16.872  67.330  1.00  0.00    -0.251 A  
HETATM   24  C   UNL     1      -9.252  15.645  67.804  1.00  0.00    -0.193 A  
HETATM   25  C   UNL     1      -9.390  14.498  67.022  1.00  0.00    -0.249 A  
ENDBRANCH  18  20
ENDBRANCH  15  18
ENDBRANCH  13  15
ENDBRANCH   8   9
ENDBRANCH   4   7
TORSDOF 5
ENDMDL
MODEL      118
REMARK 921   NORMALIZED FREE ENERGY PREDICTED BY IDOCK:   -5.55 KCAL/MOL
REMARK 922        TOTAL FREE ENERGY PREDICTED BY IDOCK:   -7.64 KCAL/MOL
REMARK 923 INTER-LIGAND FREE ENERGY PREDICTED BY IDOCK:   -6.70 KCAL/MOL
REMARK 924 INTRA-LIGAND FREE ENERGY PREDICTED BY IDOCK:   -0.94 KCAL/MOL
REMARK 927      BINDING AFFINITY PREDICTED BY RF-SCORE:    0.00 PKD
ROOT
HETATM    1  O   UNL     1     -10.511  10.993  62.737  1.00  0.00    -0.756 OA 
HETATM    2  N   UNL     1     -11.649  11.771  63.004  1.00  0.00    -0.786 N  
HETATM    3  H   UNL     1     -10.300  10.705  61.856  1.00  0.00     0.000 HD 
HETATM    4  C   UNL     1     -11.952  12.186  64.268  1.00  0.00    -0.380 C  
HETATM    5  H   UNL     1     -12.264  12.034  62.234  1.00  0.00     0.000 HD 
HETATM    6  O   UNL     1     -12.984  12.808  64.500  1.00  0.00    -0.730 OA 
ENDROOT
BRANCH   4   7
HETATM    7  C   UNL     1     -10.972  11.846  65.328  1.00  0.00    -0.354 C  
HETATM    8  C   UNL     1     -11.374  11.292  66.481  1.00  0.00    -0.122 C  
BRANCH   8   9
HETATM    9  C   UNL     1     -10.407  10.958  67.526  1.00  0.00    -0.237 A  
HETATM   10  C   UNL     1      -9.074  11.367  67.399  1.00  0.00    -0.160 A  
HETATM   11  C   UNL     1      -8.128  11.001  68.360  1.00  0.00    -0.134 A  
HETATM   12  C   UNL     1      -8.505  10.216  69.451  1.00  0.00    -0.179 A  
HETATM   13  C   UNL     1      -9.839   9.817  69.587  1.00  0.00    -0.221 A  
HETATM   14  C   UNL     1     -10.791  10.179  68.625  1.00  0.00    -0.272 A  
BRANCH  13  15
HETATM   15  S   UNL     1     -10.297   8.720  70.914  1.00  0.00    -0.243 S  
HETATM   16  O   UNL     1     -11.743   8.669  70.968  1.00  0.00    -0.281 OA 
HETATM   17  O   UNL     1      -9.522   9.103  72.077  1.00  0.00    -0.323 OA 
BRANCH  15  18
HETATM   18  N   UNL     1      -9.703   7.217  70.441  1.00  0.00    -0.176 N  
HETATM   19  H   UNL     1      -9.349   6.562  71.137  1.00  0.00     0.000 HD 
BRANCH  18  20
HETATM   20  C   UNL     1      -9.698   6.870  69.066  1.00  0.00    -0.150 A  
HETATM   21  C   UNL     1     -10.890   6.530  68.429  1.00  0.00    -0.357 A  
HETATM   22  C   UNL     1     -10.869   6.119  67.095  1.00  0.00    -0.442 A  
HETATM   23  C   UNL     1      -9.661   6.066  66.399  1.00  0.00    -0.158 A  
HETATM   24  C   UNL     1      -8.472   6.423  67.035  1.00  0.00    -0.112 A  
HETATM   25  C   UNL     1      -8.489   6.817  68.373  1.00  0.00    -0.122 A  
ENDBRANCH  18  20
ENDBRANCH  15  18
ENDBRANCH  13  15
ENDBRANCH   8   9
ENDBRANCH   4   7
TORSDOF 5
ENDMDL
MODEL      119
REMARK 921   NORMALIZED FREE ENERGY PREDICTED BY IDOCK:   -5.52 KCAL/MOL
REMARK 922        TOTAL FREE ENERGY PREDICTED BY IDOCK:   -7.61 KCAL/MOL
REMARK 923 INTER-LIGAND FREE ENERGY PREDICTED BY IDOCK:   -6.91 KCAL/MOL
REMARK 924 INTRA-LIGAND FREE ENERGY PREDICTED BY IDOCK:   -0.70 KCAL/MOL
REMARK 927      BINDING AFFINITY PREDICTED BY RF-SCORE:    0.00 PKD
ROOT
HETATM    1  O   UNL     1      -8.680  15.071  69.608  1.00  0.00    -0.430 OA 
HETATM    2  N   UNL     1      -9.760  15.864  69.186  1.00  0.00    -0.234 N  
HETATM    3  H   UNL     1      -7.817  15.442  69.755  1.00  0.00     0.000 HD 
HETATM    4  C   UNL     1     -10.998  15.332  68.974  1.00  0.00    -0.254 C  
HETATM    5  H   UNL     1      -9.614  16.862  69.034  1.00  0.00     0.000 HD 
HETATM    6  O   UNL     1     -11.916  16.021  68.541  1.00  0.00    -0.273 OA 
ENDROOT
BRANCH   4   7
HETATM    7  C   UNL     1     -11.165  13.894  69.297  1.00  0.00    -0.296 C  
HETATM    8  C   UNL     1     -12.011  13.502  70.260  1.00  0.00    -0.386 C  
BRANCH   8   9
HETATM    9  C   UNL     1     -12.174  12.084  70.578  1.00  0.00    -0.414 A  
HETATM   10  C   UNL     1     -13.052  11.693  71.596  1.00  0.00    -0.456 A  
HETATM   11  C   UNL     1     -13.169  10.347  71.950  1.00  0.00    -0.535 A  
HETATM   12  C   UNL     1     -12.404   9.381  71.295  1.00  0.00    -0.422 A  
HETATM   13  C   UNL     1     -11.535   9.767  70.269  1.00  0.00    -0.255 A  
HETATM   14  C   UNL     1     -11.411  11.117  69.912  1.00  0.00    -0.386 A  
BRANCH  13  15
HETATM   15  S   UNL     1     -10.472   8.552  69.513  1.00  0.00    -0.210 S  
HETATM   16  O   UNL     1     -10.690   7.292  70.191  1.00  0.00    -0.232 OA 
HETATM   17  O   UNL     1      -9.147   9.133  69.428  1.00  0.00    -0.141 OA 
BRANCH  15  18
HETATM   18  N   UNL     1     -11.027   8.437  67.927  1.00  0.00    -0.476 N  
HETATM   19  H   UNL     1     -11.836   7.858  67.707  1.00  0.00     0.000 HD 
BRANCH  18  20
HETATM   20  C   UNL     1     -10.360   9.153  66.901  1.00  0.00    -0.251 A  
HETATM   21  C   UNL     1      -9.382   8.524  66.134  1.00  0.00    -0.279 A  
HETATM   22  C   UNL     1      -8.678   9.254  65.175  1.00  0.00    -0.216 A  
HETATM   23  C   UNL     1      -8.966  10.604  64.974  1.00  0.00    -0.218 A  
HETATM   24  C   UNL     1      -9.959  11.227  65.732  1.00  0.00    -0.281 A  
HETATM   25  C   UNL     1     -10.650  10.503  66.703  1.00  0.00    -0.263 A  
ENDBRANCH  18  20
ENDBRANCH  15  18
ENDBRANCH  13  15
ENDBRANCH   8   9
ENDBRANCH   4   7
TORSDOF 5
ENDMDL
MODEL      120
REMARK 921   NORMALIZED FREE ENERGY PREDICTED BY IDOCK:   -5.50 KCAL/MOL
REMARK 922        TOTAL FREE ENERGY PREDICTED BY IDOCK:   -7.58 KCAL/MOL
REMARK 923 INTER-LIGAND FREE ENERGY PREDICTED BY IDOCK:   -6.79 KCAL/MOL
REMARK 924 INTRA-LIGAND FREE ENERGY PREDICTED BY IDOCK:   -0.79 KCAL/MOL
REMARK 927      BINDING AFFINITY PREDICTED BY RF-SCORE:    0.00 PKD
ROOT
HETATM    1  O   UNL     1     -12.155  14.319  70.263  1.00  0.00    -0.293 OA 
HETATM    2  N   UNL     1     -11.738  15.604  69.882  1.00  0.00    -0.339 N  
HETATM    3  H   UNL     1     -12.434  14.128  71.152  1.00  0.00     0.000 HD 
HETATM    4  C   UNL     1     -11.338  15.878  68.607  1.00  0.00    -0.376 C  
HETATM    5  H   UNL     1     -11.734  16.351  70.576  1.00  0.00     0.000 HD 
HETATM    6  O   UNL     1     -10.912  16.987  68.302  1.00  0.00    -0.365 OA 
ENDROOT
BRANCH   4   7
HETATM    7  C   UNL     1     -11.450  14.771  67.626  1.00  0.00    -0.363 C  
HETATM    8  C   UNL     1     -10.915  14.883  66.402  1.00  0.00    -0.336 C  
BRANCH   8   9
HETATM    9  C   UNL     1     -11.028  13.792  65.436  1.00  0.00    -0.309 A  
HETATM   10  C   UNL     1     -12.125  13.738  64.568  1.00  0.00    -0.463 A  
HETATM   11  C   UNL     1     -12.275  12.666  63.683  1.00  0.00    -0.624 A  
HETATM   12  C   UNL     1     -11.334  11.637  63.665  1.00  0.00    -0.485 A  
HETATM   13  C   UNL     1     -10.229  11.694  64.522  1.00  0.00    -0.291 A  
HETATM   14  C   UNL     1     -10.076  12.765  65.413  1.00  0.00    -0.274 A  
BRANCH  13  15
HETATM   15  S   UNL     1      -9.091  10.324  64.581  1.00  0.00    -0.251 S  
HETATM   16  O   UNL     1      -7.941  10.738  65.357  1.00  0.00    -0.126 OA 
HETATM   17  O   UNL     1      -8.938   9.832  63.227  1.00  0.00    -0.234 OA 
BRANCH  15  18
HETATM   18  N   UNL     1      -9.924   9.122  65.416  1.00  0.00    -0.350 N  
HETATM   19  H   UNL     1     -10.401   8.379  64.906  1.00  0.00     0.000 HD 
BRANCH  18  20
HETATM   20  C   UNL     1      -9.957   9.151  66.832  1.00  0.00    -0.238 A  
HETATM   21  C   UNL     1     -10.796  10.047  67.493  1.00  0.00    -0.326 A  
HETATM   22  C   UNL     1     -10.770  10.121  68.886  1.00  0.00    -0.249 A  
HETATM   23  C   UNL     1      -9.920   9.288  69.615  1.00  0.00    -0.201 A  
HETATM   24  C   UNL     1      -9.094   8.380  68.951  1.00  0.00    -0.147 A  
HETATM   25  C   UNL     1      -9.106   8.318  67.558  1.00  0.00    -0.148 A  
ENDBRANCH  18  20
ENDBRANCH  15  18
ENDBRANCH  13  15
ENDBRANCH   8   9
ENDBRANCH   4   7
TORSDOF 5
ENDMDL
MODEL      121
REMARK 921   NORMALIZED FREE ENERGY PREDICTED BY IDOCK:   -5.49 KCAL/MOL
REMARK 922        TOTAL FREE ENERGY PREDICTED BY IDOCK:   -7.57 KCAL/MOL
REMARK 923 INTER-LIGAND FREE ENERGY PREDICTED BY IDOCK:   -6.93 KCAL/MOL
REMARK 924 INTRA-LIGAND FREE ENERGY PREDICTED BY IDOCK:   -0.64 KCAL/MOL
REMARK 927      BINDING AFFINITY PREDICTED BY RF-SCORE:    0.00 PKD
ROOT
HETATM    1  O   UNL     1     -13.523  11.517  72.217  1.00  0.00    -0.602 OA 
HETATM    2  N   UNL     1     -14.157  12.726  72.541  1.00  0.00    -0.355 N  
HETATM    3  H   UNL     1     -13.809  10.689  72.585  1.00  0.00     0.000 HD 
HETATM    4  C   UNL     1     -13.746  13.915  72.012  1.00  0.00    -0.486 C  
HETATM    5  H   UNL     1     -14.945  12.716  73.188  1.00  0.00     0.000 HD 
HETATM    6  O   UNL     1     -14.264  14.973  72.354  1.00  0.00    -0.477 OA 
ENDROOT
BRANCH   4   7
HETATM    7  C   UNL     1     -12.654  13.850  71.011  1.00  0.00    -0.444 C  
HETATM    8  C   UNL     1     -12.124  14.972  70.502  1.00  0.00    -0.379 C  
BRANCH   8   9
HETATM    9  C   UNL     1     -11.048  14.907  69.514  1.00  0.00    -0.301 A  
HETATM   10  C   UNL     1      -9.982  14.017  69.700  1.00  0.00     0.601 A  
HETATM   11  C   UNL     1      -8.918  13.991  68.796  1.00  0.00    -0.030 A  
HETATM   12  C   UNL     1      -8.905  14.858  67.703  1.00  0.00    -0.184 A  
HETATM   13  C   UNL     1      -9.974  15.738  67.507  1.00  0.00    -0.236 A  
HETATM   14  C   UNL     1     -11.043  15.772  68.412  1.00  0.00    -0.341 A  
BRANCH  13  15
HETATM   15  S   UNL     1      -9.904  16.925  66.179  1.00  0.00    -0.275 S  
HETATM   16  O   UNL     1      -8.526  17.023  65.746  1.00  0.00    -0.508 OA 
HETATM   17  O   UNL     1     -10.633  18.100  66.613  1.00  0.00    -0.351 OA 
BRANCH  15  18
HETATM   18  N   UNL     1     -10.828  16.237  64.951  1.00  0.00    -0.384 N  
HETATM   19  H   UNL     1     -11.209  16.820  64.207  1.00  0.00     0.000 HD 
BRANCH  18  20
HETATM   20  C   UNL     1     -11.073  14.841  64.961  1.00  0.00    -0.405 A  
HETATM   21  C   UNL     1     -10.037  13.950  64.688  1.00  0.00    -0.144 A  
HETATM   22  C   UNL     1     -10.301  12.580  64.627  1.00  0.00    -0.341 A  
HETATM   23  C   UNL     1     -11.593  12.106  64.856  1.00  0.00    -0.371 A  
HETATM   24  C   UNL     1     -12.624  13.000  65.146  1.00  0.00    -0.530 A  
HETATM   25  C   UNL     1     -12.366  14.370  65.189  1.00  0.00    -0.383 A  
ENDBRANCH  18  20
ENDBRANCH  15  18
ENDBRANCH  13  15
ENDBRANCH   8   9
ENDBRANCH   4   7
TORSDOF 5
ENDMDL
MODEL      122
REMARK 921   NORMALIZED FREE ENERGY PREDICTED BY IDOCK:   -5.49 KCAL/MOL
REMARK 922        TOTAL FREE ENERGY PREDICTED BY IDOCK:   -7.56 KCAL/MOL
REMARK 923 INTER-LIGAND FREE ENERGY PREDICTED BY IDOCK:   -6.72 KCAL/MOL
REMARK 924 INTRA-LIGAND FREE ENERGY PREDICTED BY IDOCK:   -0.84 KCAL/MOL
REMARK 927      BINDING AFFINITY PREDICTED BY RF-SCORE:    0.00 PKD
ROOT
HETATM    1  O   UNL     1     -13.155  11.021  71.352  1.00  0.00    -0.395 OA 
HETATM    2  N   UNL     1     -13.543  11.971  72.310  1.00  0.00    -0.504 N  
HETATM    3  H   UNL     1     -13.378  10.102  71.442  1.00  0.00     0.000 HD 
HETATM    4  C   UNL     1     -13.223  13.291  72.180  1.00  0.00    -0.464 C  
HETATM    5  H   UNL     1     -14.078  11.667  73.123  1.00  0.00     0.000 HD 
HETATM    6  O   UNL     1     -13.508  14.100  73.056  1.00  0.00    -0.661 OA 
ENDROOT
BRANCH   4   7
HETATM    7  C   UNL     1     -12.521  13.682  70.933  1.00  0.00    -0.448 C  
HETATM    8  C   UNL     1     -12.648  14.920  70.435  1.00  0.00    -0.394 C  
BRANCH   8   9
HETATM    9  C   UNL     1     -11.957  15.304  69.205  1.00  0.00    -0.327 A  
HETATM   10  C   UNL     1     -11.829  14.381  68.159  1.00  0.00    -0.362 A  
HETATM   11  C   UNL     1     -11.116  14.716  67.005  1.00  0.00    -0.333 A  
HETATM   12  C   UNL     1     -10.520  15.972  66.889  1.00  0.00    -0.306 A  
HETATM   13  C   UNL     1     -10.658  16.901  67.927  1.00  0.00    -0.361 A  
HETATM   14  C   UNL     1     -11.368  16.569  69.088  1.00  0.00    -0.156 A  
BRANCH  13  15
HETATM   15  S   UNL     1      -9.800  18.460  67.830  1.00  0.00    -0.347 S  
HETATM   16  O   UNL     1     -10.597  19.448  68.526  1.00  0.00    -0.260 OA 
HETATM   17  O   UNL     1      -9.414  18.654  66.447  1.00  0.00    -0.317 OA 
BRANCH  15  18
HETATM   18  N   UNL     1      -8.365  18.203  68.675  1.00  0.00    -0.301 N  
HETATM   19  H   UNL     1      -7.971  18.943  69.255  1.00  0.00     0.000 HD 
BRANCH  18  20
HETATM   20  C   UNL     1      -7.711  16.950  68.573  1.00  0.00    -0.227 A  
HETATM   21  C   UNL     1      -6.866  16.690  67.496  1.00  0.00    -0.177 A  
HETATM   22  C   UNL     1      -6.282  15.429  67.363  1.00  0.00    -0.035 A  
HETATM   23  C   UNL     1      -6.530  14.440  68.315  1.00  0.00    -0.115 A  
HETATM   24  C   UNL     1      -7.363  14.709  69.401  1.00  0.00    -0.135 A  
HETATM   25  C   UNL     1      -7.962  15.963  69.526  1.00  0.00    -0.098 A  
ENDBRANCH  18  20
ENDBRANCH  15  18
ENDBRANCH  13  15
ENDBRANCH   8   9
ENDBRANCH   4   7
TORSDOF 5
ENDMDL
MODEL      123
REMARK 921   NORMALIZED FREE ENERGY PREDICTED BY IDOCK:   -5.49 KCAL/MOL
REMARK 922        TOTAL FREE ENERGY PREDICTED BY IDOCK:   -7.56 KCAL/MOL
REMARK 923 INTER-LIGAND FREE ENERGY PREDICTED BY IDOCK:   -6.98 KCAL/MOL
REMARK 924 INTRA-LIGAND FREE ENERGY PREDICTED BY IDOCK:   -0.58 KCAL/MOL
REMARK 927      BINDING AFFINITY PREDICTED BY RF-SCORE:    0.00 PKD
ROOT
HETATM    1  O   UNL     1     -13.476   7.446  72.193  1.00  0.00    -0.514 OA 
HETATM    2  N   UNL     1     -13.791   8.792  72.437  1.00  0.00    -0.582 N  
HETATM    3  H   UNL     1     -13.980   6.738  72.577  1.00  0.00     0.000 HD 
HETATM    4  C   UNL     1     -13.068   9.809  71.885  1.00  0.00    -0.446 C  
HETATM    5  H   UNL     1     -14.581   9.016  73.041  1.00  0.00     0.000 HD 
HETATM    6  O   UNL     1     -13.311  10.979  72.158  1.00  0.00    -0.451 OA 
ENDROOT
BRANCH   4   7
HETATM    7  C   UNL     1     -11.988   9.418  70.946  1.00  0.00    -0.351 C  
HETATM    8  C   UNL     1     -10.913  10.200  70.775  1.00  0.00    -0.313 C  
BRANCH   8   9
HETATM    9  C   UNL     1      -9.849   9.814  69.848  1.00  0.00    -0.279 A  
HETATM   10  C   UNL     1      -8.706   9.165  70.329  1.00  0.00    -0.223 A  
HETATM   11  C   UNL     1      -7.656   8.847  69.463  1.00  0.00    -0.080 A  
HETATM   12  C   UNL     1      -7.738   9.182  68.111  1.00  0.00    -0.092 A  
HETATM   13  C   UNL     1      -8.886   9.818  67.625  1.00  0.00    -0.125 A  
HETATM   14  C   UNL     1      -9.939  10.142  68.490  1.00  0.00    -0.177 A  
BRANCH  13  15
HETATM   15  S   UNL     1      -8.942  10.351  65.925  1.00  0.00    -0.169 S  
HETATM   16  O   UNL     1     -10.166   9.844  65.343  1.00  0.00    -0.273 OA 
HETATM   17  O   UNL     1      -7.654  10.045  65.335  1.00  0.00    -0.126 OA 
BRANCH  15  18
HETATM   18  N   UNL     1      -9.019  12.031  66.014  1.00  0.00    -0.398 N  
HETATM   19  H   UNL     1      -8.192  12.570  66.268  1.00  0.00     0.000 HD 
BRANCH  18  20
HETATM   20  C   UNL     1     -10.242  12.689  65.731  1.00  0.00    -0.272 A  
HETATM   21  C   UNL     1     -11.044  13.148  66.774  1.00  0.00    -0.314 A  
HETATM   22  C   UNL     1     -12.281  13.730  66.492  1.00  0.00    -0.475 A  
HETATM   23  C   UNL     1     -12.704  13.867  65.170  1.00  0.00    -0.434 A  
HETATM   24  C   UNL     1     -11.891  13.421  64.127  1.00  0.00    -0.492 A  
HETATM   25  C   UNL     1     -10.662  12.823  64.408  1.00  0.00    -0.398 A  
ENDBRANCH  18  20
ENDBRANCH  15  18
ENDBRANCH  13  15
ENDBRANCH   8   9
ENDBRANCH   4   7
TORSDOF 5
ENDMDL
MODEL      124
REMARK 921   NORMALIZED FREE ENERGY PREDICTED BY IDOCK:   -5.45 KCAL/MOL
REMARK 922        TOTAL FREE ENERGY PREDICTED BY IDOCK:   -7.52 KCAL/MOL
REMARK 923 INTER-LIGAND FREE ENERGY PREDICTED BY IDOCK:   -6.74 KCAL/MOL
REMARK 924 INTRA-LIGAND FREE ENERGY PREDICTED BY IDOCK:   -0.77 KCAL/MOL
REMARK 927      BINDING AFFINITY PREDICTED BY RF-SCORE:    0.00 PKD
ROOT
HETATM    1  O   UNL     1      -7.803  10.619  70.096  1.00  0.00    -0.390 OA 
HETATM    2  N   UNL     1      -8.137   9.265  69.936  1.00  0.00    -0.108 N  
HETATM    3  H   UNL     1      -7.267  10.918  70.822  1.00  0.00     0.000 HD 
HETATM    4  C   UNL     1      -8.906   8.836  68.893  1.00  0.00    -0.137 C  
HETATM    5  H   UNL     1      -7.796   8.585  70.615  1.00  0.00     0.000 HD 
HETATM    6  O   UNL     1      -9.248   7.662  68.801  1.00  0.00    -0.143 OA 
ENDROOT
BRANCH   4   7
HETATM    7  C   UNL     1      -9.295   9.860  67.894  1.00  0.00    -0.149 C  
HETATM    8  C   UNL     1      -9.639   9.505  66.647  1.00  0.00    -0.243 C  
BRANCH   8   9
HETATM    9  C   UNL     1     -10.021  10.515  65.662  1.00  0.00    -0.332 A  
HETATM   10  C   UNL     1      -9.698  10.332  64.312  1.00  0.00    -0.373 A  
HETATM   11  C   UNL     1     -10.003  11.319  63.372  1.00  0.00    -0.433 A  
HETATM   12  C   UNL     1     -10.627  12.501  63.774  1.00  0.00    -0.471 A  
HETATM   13  C   UNL     1     -10.963  12.681  65.120  1.00  0.00    -0.291 A  
HETATM   14  C   UNL     1     -10.656  11.696  66.068  1.00  0.00    -0.303 A  
BRANCH  13  15
HETATM   15  S   UNL     1     -11.652  14.236  65.653  1.00  0.00    -0.354 S  
HETATM   16  O   UNL     1     -13.031  14.003  66.029  1.00  0.00    -0.381 OA 
HETATM   17  O   UNL     1     -11.310  15.224  64.650  1.00  0.00    -0.398 OA 
BRANCH  15  18
HETATM   18  N   UNL     1     -10.760  14.643  67.023  1.00  0.00    -0.285 N  
HETATM   19  H   UNL     1      -9.793  14.951  66.933  1.00  0.00     0.000 HD 
BRANCH  18  20
HETATM   20  C   UNL     1     -11.366  14.554  68.301  1.00  0.00    -0.297 A  
HETATM   21  C   UNL     1     -12.032  15.655  68.836  1.00  0.00    -0.298 A  
HETATM   22  C   UNL     1     -12.563  15.584  70.125  1.00  0.00    -0.304 A  
HETATM   23  C   UNL     1     -12.441  14.410  70.867  1.00  0.00    -0.424 A  
HETATM   24  C   UNL     1     -11.788  13.303  70.323  1.00  0.00    -0.307 A  
HETATM   25  C   UNL     1     -11.241  13.379  69.042  1.00  0.00    -0.323 A  
ENDBRANCH  18  20
ENDBRANCH  15  18
ENDBRANCH  13  15
ENDBRANCH   8   9
ENDBRANCH   4   7
TORSDOF 5
ENDMDL
MODEL      125
REMARK 921   NORMALIZED FREE ENERGY PREDICTED BY IDOCK:   -5.45 KCAL/MOL
REMARK 922        TOTAL FREE ENERGY PREDICTED BY IDOCK:   -7.51 KCAL/MOL
REMARK 923 INTER-LIGAND FREE ENERGY PREDICTED BY IDOCK:   -6.56 KCAL/MOL
REMARK 924 INTRA-LIGAND FREE ENERGY PREDICTED BY IDOCK:   -0.94 KCAL/MOL
REMARK 927      BINDING AFFINITY PREDICTED BY RF-SCORE:    0.00 PKD
ROOT
HETATM    1  O   UNL     1     -11.701  15.865  63.810  1.00  0.00    -1.124 OA 
HETATM    2  N   UNL     1     -12.508  14.739  63.586  1.00  0.00    -1.051 N  
HETATM    3  H   UNL     1     -11.954  16.729  63.505  1.00  0.00     0.000 HD 
HETATM    4  C   UNL     1     -12.144  13.498  64.024  1.00  0.00    -0.441 C  
HETATM    5  H   UNL     1     -13.389  14.850  63.085  1.00  0.00     0.000 HD 
HETATM    6  O   UNL     1     -12.824  12.511  63.764  1.00  0.00    -0.721 OA 
ENDROOT
BRANCH   4   7
HETATM    7  C   UNL     1     -10.897  13.419  64.822  1.00  0.00    -0.387 C  
HETATM    8  C   UNL     1     -10.945  13.288  66.156  1.00  0.00    -0.292 C  
BRANCH   8   9
HETATM    9  C   UNL     1      -9.714  13.211  66.942  1.00  0.00    -0.243 A  
HETATM   10  C   UNL     1      -8.774  14.246  66.871  1.00  0.00    -0.202 A  
HETATM   11  C   UNL     1      -7.567  14.154  67.570  1.00  0.00    -0.200 A  
HETATM   12  C   UNL     1      -7.287  13.023  68.338  1.00  0.00    -0.116 A  
HETATM   13  C   UNL     1      -8.231  11.993  68.421  1.00  0.00    -0.151 A  
HETATM   14  C   UNL     1      -9.441  12.079  67.721  1.00  0.00    -0.190 A  
BRANCH  13  15
HETATM   15  S   UNL     1      -7.825  10.500  69.306  1.00  0.00    -0.132 S  
HETATM   16  O   UNL     1      -9.064   9.910  69.768  1.00  0.00    -0.212 OA 
HETATM   17  O   UNL     1      -6.763  10.826  70.236  1.00  0.00    -0.215 OA 
BRANCH  15  18
HETATM   18  N   UNL     1      -7.129   9.500  68.145  1.00  0.00    -0.079 N  
HETATM   19  H   UNL     1      -6.438   8.801  68.416  1.00  0.00     0.000 HD 
BRANCH  18  20
HETATM   20  C   UNL     1      -7.509   9.637  66.786  1.00  0.00    -0.094 A  
HETATM   21  C   UNL     1      -6.651  10.257  65.880  1.00  0.00    -0.113 A  
HETATM   22  C   UNL     1      -7.062  10.454  64.561  1.00  0.00    -0.007 A  
HETATM   23  C   UNL     1      -8.321  10.017  64.148  1.00  0.00    -0.167 A  
HETATM   24  C   UNL     1      -9.172   9.382  65.054  1.00  0.00    -0.280 A  
HETATM   25  C   UNL     1      -8.769   9.200  66.377  1.00  0.00    -0.147 A  
ENDBRANCH  18  20
ENDBRANCH  15  18
ENDBRANCH  13  15
ENDBRANCH   8   9
ENDBRANCH   4   7
TORSDOF 5
ENDMDL
MODEL      126
REMARK 921   NORMALIZED FREE ENERGY PREDICTED BY IDOCK:   -5.43 KCAL/MOL
REMARK 922        TOTAL FREE ENERGY PREDICTED BY IDOCK:   -7.49 KCAL/MOL
REMARK 923 INTER-LIGAND FREE ENERGY PREDICTED BY IDOCK:   -7.02 KCAL/MOL
REMARK 924 INTRA-LIGAND FREE ENERGY PREDICTED BY IDOCK:   -0.47 KCAL/MOL
REMARK 927      BINDING AFFINITY PREDICTED BY RF-SCORE:    0.00 PKD
ROOT
HETATM    1  O   UNL     1     -11.760   4.602  65.053  1.00  0.00    -1.047 OA 
HETATM    2  N   UNL     1     -10.565   3.893  65.251  1.00  0.00    -0.477 N  
HETATM    3  H   UNL     1     -12.417   4.310  64.432  1.00  0.00     0.000 HD 
HETATM    4  C   UNL     1      -9.622   4.313  66.144  1.00  0.00    -0.194 C  
HETATM    5  H   UNL     1     -10.397   3.042  64.715  1.00  0.00     0.000 HD 
HETATM    6  O   UNL     1      -8.553   3.723  66.259  1.00  0.00    -0.109 OA 
ENDROOT
BRANCH   4   7
HETATM    7  C   UNL     1      -9.965   5.506  66.955  1.00  0.00    -0.198 C  
HETATM    8  C   UNL     1     -10.292   5.383  68.250  1.00  0.00    -0.213 C  
BRANCH   8   9
HETATM    9  C   UNL     1     -10.631   6.560  69.049  1.00  0.00    -0.286 A  
HETATM   10  C   UNL     1     -11.208   6.402  70.315  1.00  0.00    -0.445 A  
HETATM   11  C   UNL     1     -11.593   7.520  71.060  1.00  0.00    -0.305 A  
HETATM   12  C   UNL     1     -11.411   8.803  70.543  1.00  0.00    -0.255 A  
HETATM   13  C   UNL     1     -10.822   8.964  69.285  1.00  0.00    -0.096 A  
HETATM   14  C   UNL     1     -10.437   7.847  68.531  1.00  0.00    -0.202 A  
BRANCH  13  15
HETATM   15  S   UNL     1     -10.697  10.595  68.575  1.00  0.00    -0.236 S  
HETATM   16  O   UNL     1     -10.951  10.480  67.155  1.00  0.00    -0.282 OA 
HETATM   17  O   UNL     1      -9.468  11.184  69.067  1.00  0.00    -0.159 OA 
BRANCH  15  18
HETATM   18  N   UNL     1     -11.945  11.464  69.298  1.00  0.00    -0.334 N  
HETATM   19  H   UNL     1     -12.722  10.975  69.741  1.00  0.00     0.000 HD 
BRANCH  18  20
HETATM   20  C   UNL     1     -11.907  12.881  69.286  1.00  0.00    -0.309 A  
HETATM   21  C   UNL     1     -12.067  13.593  70.473  1.00  0.00    -0.411 A  
HETATM   22  C   UNL     1     -12.101  14.988  70.444  1.00  0.00    -0.384 A  
HETATM   23  C   UNL     1     -11.957  15.666  69.233  1.00  0.00    -0.338 A  
HETATM   24  C   UNL     1     -11.780  14.950  68.049  1.00  0.00    -0.344 A  
HETATM   25  C   UNL     1     -11.764  13.556  68.074  1.00  0.00    -0.394 A  
ENDBRANCH  18  20
ENDBRANCH  15  18
ENDBRANCH  13  15
ENDBRANCH   8   9
ENDBRANCH   4   7
TORSDOF 5
ENDMDL
MODEL      127
REMARK 921   NORMALIZED FREE ENERGY PREDICTED BY IDOCK:   -5.43 KCAL/MOL
REMARK 922        TOTAL FREE ENERGY PREDICTED BY IDOCK:   -7.48 KCAL/MOL
REMARK 923 INTER-LIGAND FREE ENERGY PREDICTED BY IDOCK:   -7.02 KCAL/MOL
REMARK 924 INTRA-LIGAND FREE ENERGY PREDICTED BY IDOCK:   -0.46 KCAL/MOL
REMARK 927      BINDING AFFINITY PREDICTED BY RF-SCORE:    0.00 PKD
ROOT
HETATM    1  O   UNL     1     -10.320   9.283  70.123  1.00  0.00    -0.195 OA 
HETATM    2  N   UNL     1     -11.634   8.943  70.480  1.00  0.00    -0.412 N  
HETATM    3  H   UNL     1      -9.691   8.625  69.847  1.00  0.00     0.000 HD 
HETATM    4  C   UNL     1     -12.536   9.888  70.876  1.00  0.00    -0.307 C  
HETATM    5  H   UNL     1     -11.922   7.966  70.444  1.00  0.00     0.000 HD 
HETATM    6  O   UNL     1     -13.660   9.572  71.250  1.00  0.00    -0.360 OA 
ENDROOT
BRANCH   4   7
HETATM    7  C   UNL     1     -12.081  11.299  70.822  1.00  0.00    -0.450 C  
HETATM    8  C   UNL     1     -12.338  12.061  69.749  1.00  0.00    -0.112 C  
BRANCH   8   9
HETATM    9  C   UNL     1     -11.889  13.451  69.697  1.00  0.00    -0.394 A  
HETATM   10  C   UNL     1     -12.126  14.302  70.784  1.00  0.00    -0.418 A  
HETATM   11  C   UNL     1     -11.756  15.649  70.720  1.00  0.00    -0.408 A  
HETATM   12  C   UNL     1     -11.155  16.156  69.569  1.00  0.00    -0.344 A  
HETATM   13  C   UNL     1     -10.905  15.305  68.487  1.00  0.00    -0.253 A  
HETATM   14  C   UNL     1     -11.276  13.955  68.543  1.00  0.00    -0.298 A  
BRANCH  13  15
HETATM   15  S   UNL     1     -10.244  15.978  66.974  1.00  0.00    -0.287 S  
HETATM   16  O   UNL     1     -10.989  15.405  65.873  1.00  0.00    -0.325 OA 
HETATM   17  O   UNL     1      -8.802  15.854  67.042  1.00  0.00    -0.191 OA 
BRANCH  15  18
HETATM   18  N   UNL     1     -10.569  17.628  67.070  1.00  0.00    -0.300 N  
HETATM   19  H   UNL     1     -11.528  17.967  67.003  1.00  0.00     0.000 HD 
BRANCH  18  20
HETATM   20  C   UNL     1      -9.499  18.540  67.246  1.00  0.00    -0.288 A  
HETATM   21  C   UNL     1      -8.992  19.239  66.152  1.00  0.00    -0.270 A  
HETATM   22  C   UNL     1      -7.891  20.082  66.319  1.00  0.00    -0.323 A  
HETATM   23  C   UNL     1      -7.313  20.235  67.579  1.00  0.00    -0.340 A  
HETATM   24  C   UNL     1      -7.834  19.546  68.675  1.00  0.00    -0.383 A  
HETATM   25  C   UNL     1      -8.922  18.691  68.507  1.00  0.00    -0.364 A  
ENDBRANCH  18  20
ENDBRANCH  15  18
ENDBRANCH  13  15
ENDBRANCH   8   9
ENDBRANCH   4   7
TORSDOF 5
ENDMDL
MODEL      128
REMARK 921   NORMALIZED FREE ENERGY PREDICTED BY IDOCK:   -5.42 KCAL/MOL
REMARK 922        TOTAL FREE ENERGY PREDICTED BY IDOCK:   -7.47 KCAL/MOL
REMARK 923 INTER-LIGAND FREE ENERGY PREDICTED BY IDOCK:   -6.72 KCAL/MOL
REMARK 924 INTRA-LIGAND FREE ENERGY PREDICTED BY IDOCK:   -0.75 KCAL/MOL
REMARK 927      BINDING AFFINITY PREDICTED BY RF-SCORE:    0.00 PKD
ROOT
HETATM    1  O   UNL     1     -12.530  14.284  63.322  1.00  0.00    -1.133 OA 
HETATM    2  N   UNL     1     -11.818  15.326  63.937  1.00  0.00    -0.877 N  
HETATM    3  H   UNL     1     -13.137  14.447  62.609  1.00  0.00     0.000 HD 
HETATM    4  C   UNL     1     -10.948  15.092  64.961  1.00  0.00    -0.430 C  
HETATM    5  H   UNL     1     -11.955  16.282  63.609  1.00  0.00     0.000 HD 
HETATM    6  O   UNL     1     -10.382  16.017  65.534  1.00  0.00    -0.367 OA 
ENDROOT
BRANCH   4   7
HETATM    7  C   UNL     1     -10.728  13.673  65.330  1.00  0.00    -0.311 C  
HETATM    8  C   UNL     1     -10.944  13.250  66.584  1.00  0.00    -0.297 C  
BRANCH   8   9
HETATM    9  C   UNL     1     -10.726  11.851  66.948  1.00  0.00    -0.285 A  
HETATM   10  C   UNL     1     -10.425  10.910  65.954  1.00  0.00    -0.285 A  
HETATM   11  C   UNL     1     -10.276   9.560  66.282  1.00  0.00    -0.290 A  
HETATM   12  C   UNL     1     -10.435   9.138  67.602  1.00  0.00    -0.323 A  
HETATM   13  C   UNL     1     -10.722  10.077  68.598  1.00  0.00    -0.226 A  
HETATM   14  C   UNL     1     -10.876  11.431  68.276  1.00  0.00    -0.253 A  
BRANCH  13  15
HETATM   15  S   UNL     1     -11.039   9.523  70.263  1.00  0.00    -0.281 S  
HETATM   16  O   UNL     1     -11.456   8.138  70.196  1.00  0.00    -0.153 OA 
HETATM   17  O   UNL     1     -11.875  10.523  70.897  1.00  0.00    -0.329 OA 
BRANCH  15  18
HETATM   18  N   UNL     1      -9.543   9.620  71.030  1.00  0.00    -0.263 N  
HETATM   19  H   UNL     1      -9.474   9.997  71.975  1.00  0.00     0.000 HD 
BRANCH  18  20
HETATM   20  C   UNL     1      -8.381   9.175  70.352  1.00  0.00    -0.185 A  
HETATM   21  C   UNL     1      -8.170   7.812  70.151  1.00  0.00    -0.123 A  
HETATM   22  C   UNL     1      -6.989   7.376  69.547  1.00  0.00    -0.057 A  
HETATM   23  C   UNL     1      -6.033   8.303  69.132  1.00  0.00    -0.038 A  
HETATM   24  C   UNL     1      -6.255   9.668  69.320  1.00  0.00    -0.040 A  
HETATM   25  C   UNL     1      -7.426  10.104  69.939  1.00  0.00    -0.176 A  
ENDBRANCH  18  20
ENDBRANCH  15  18
ENDBRANCH  13  15
ENDBRANCH   8   9
ENDBRANCH   4   7
TORSDOF 5
ENDMDL
MODEL      129
REMARK 921   NORMALIZED FREE ENERGY PREDICTED BY IDOCK:   -5.42 KCAL/MOL
REMARK 922        TOTAL FREE ENERGY PREDICTED BY IDOCK:   -7.47 KCAL/MOL
REMARK 923 INTER-LIGAND FREE ENERGY PREDICTED BY IDOCK:   -6.95 KCAL/MOL
REMARK 924 INTRA-LIGAND FREE ENERGY PREDICTED BY IDOCK:   -0.52 KCAL/MOL
REMARK 927      BINDING AFFINITY PREDICTED BY RF-SCORE:    0.00 PKD
ROOT
HETATM    1  O   UNL     1     -11.519   4.571  65.308  1.00  0.00    -1.068 OA 
HETATM    2  N   UNL     1     -10.408   4.191  66.078  1.00  0.00    -0.442 N  
HETATM    3  H   UNL     1     -12.201   3.951  65.077  1.00  0.00     0.000 HD 
HETATM    4  C   UNL     1      -9.428   5.081  66.410  1.00  0.00    -0.153 C  
HETATM    5  H   UNL     1     -10.332   3.226  66.398  1.00  0.00     0.000 HD 
HETATM    6  O   UNL     1      -8.430   4.723  67.026  1.00  0.00    -0.106 OA 
ENDROOT
BRANCH   4   7
HETATM    7  C   UNL     1      -9.643   6.487  65.989  1.00  0.00     0.056 C  
HETATM    8  C   UNL     1      -9.755   7.465  66.900  1.00  0.00    -0.265 C  
BRANCH   8   9
HETATM    9  C   UNL     1      -9.967   8.851  66.484  1.00  0.00    -0.358 A  
HETATM   10  C   UNL     1      -9.568   9.266  65.207  1.00  0.00    -0.175 A  
HETATM   11  C   UNL     1      -9.709  10.601  64.822  1.00  0.00    -0.350 A  
HETATM   12  C   UNL     1     -10.243  11.534  65.711  1.00  0.00    -0.293 A  
HETATM   13  C   UNL     1     -10.656  11.120  66.982  1.00  0.00    -0.252 A  
HETATM   14  C   UNL     1     -10.514   9.783  67.375  1.00  0.00    -0.319 A  
BRANCH  13  15
HETATM   15  S   UNL     1     -11.228  12.331  68.158  1.00  0.00    -0.294 S  
HETATM   16  O   UNL     1     -10.067  12.894  68.814  1.00  0.00    -0.168 OA 
HETATM   17  O   UNL     1     -12.292  11.716  68.925  1.00  0.00    -0.355 OA 
BRANCH  15  18
HETATM   18  N   UNL     1     -11.967  13.515  67.215  1.00  0.00    -0.376 N  
HETATM   19  H   UNL     1     -12.817  13.301  66.694  1.00  0.00     0.000 HD 
BRANCH  18  20
HETATM   20  C   UNL     1     -11.399  14.812  67.152  1.00  0.00    -0.356 A  
HETATM   21  C   UNL     1     -10.667  15.199  66.031  1.00  0.00    -0.333 A  
HETATM   22  C   UNL     1     -10.048  16.450  66.006  1.00  0.00    -0.373 A  
HETATM   23  C   UNL     1     -10.178  17.315  67.092  1.00  0.00    -0.319 A  
HETATM   24  C   UNL     1     -10.925  16.932  68.206  1.00  0.00    -0.298 A  
HETATM   25  C   UNL     1     -11.528  15.675  68.240  1.00  0.00    -0.353 A  
ENDBRANCH  18  20
ENDBRANCH  15  18
ENDBRANCH  13  15
ENDBRANCH   8   9
ENDBRANCH   4   7
TORSDOF 5
ENDMDL
MODEL      130
REMARK 921   NORMALIZED FREE ENERGY PREDICTED BY IDOCK:   -5.41 KCAL/MOL
REMARK 922        TOTAL FREE ENERGY PREDICTED BY IDOCK:   -7.46 KCAL/MOL
REMARK 923 INTER-LIGAND FREE ENERGY PREDICTED BY IDOCK:   -6.95 KCAL/MOL
REMARK 924 INTRA-LIGAND FREE ENERGY PREDICTED BY IDOCK:   -0.52 KCAL/MOL
REMARK 927      BINDING AFFINITY PREDICTED BY RF-SCORE:    0.00 PKD
ROOT
HETATM    1  O   UNL     1     -11.962   4.818  73.349  1.00  0.00    -0.392 OA 
HETATM    2  N   UNL     1     -10.654   4.630  72.874  1.00  0.00    -0.202 N  
HETATM    3  H   UNL     1     -12.354   4.224  73.979  1.00  0.00     0.000 HD 
HETATM    4  C   UNL     1     -10.091   5.483  71.970  1.00  0.00    -0.186 C  
HETATM    5  H   UNL     1     -10.111   3.836  73.213  1.00  0.00     0.000 HD 
HETATM    6  O   UNL     1      -8.974   5.271  71.511  1.00  0.00    -0.132 OA 
ENDROOT
BRANCH   4   7
HETATM    7  C   UNL     1     -10.899   6.665  71.584  1.00  0.00    -0.269 C  
HETATM    8  C   UNL     1     -10.590   7.886  72.044  1.00  0.00    -0.296 C  
BRANCH   8   9
HETATM    9  C   UNL     1     -11.388   9.051  71.664  1.00  0.00    -0.430 A  
HETATM   10  C   UNL     1     -12.607   9.301  72.306  1.00  0.00    -0.402 A  
HETATM   11  C   UNL     1     -13.407  10.376  71.908  1.00  0.00    -0.469 A  
HETATM   12  C   UNL     1     -13.000  11.203  70.861  1.00  0.00    -0.276 A  
HETATM   13  C   UNL     1     -11.776  10.963  70.227  1.00  0.00    -0.347 A  
HETATM   14  C   UNL     1     -10.971   9.885  70.619  1.00  0.00    -0.405 A  
BRANCH  13  15
HETATM   15  S   UNL     1     -11.311  11.946  68.815  1.00  0.00    -0.301 S  
HETATM   16  O   UNL     1     -11.842  11.302  67.633  1.00  0.00    -0.614 OA 
HETATM   17  O   UNL     1      -9.895  12.229  68.936  1.00  0.00    -0.064 OA 
BRANCH  15  18
HETATM   18  N   UNL     1     -12.096  13.418  69.051  1.00  0.00    -0.307 N  
HETATM   19  H   UNL     1     -12.977  13.453  69.561  1.00  0.00     0.000 HD 
BRANCH  18  20
HETATM   20  C   UNL     1     -11.521  14.606  68.534  1.00  0.00    -0.302 A  
HETATM   21  C   UNL     1     -11.369  14.766  67.158  1.00  0.00    -0.363 A  
HETATM   22  C   UNL     1     -10.736  15.906  66.660  1.00  0.00    -0.270 A  
HETATM   23  C   UNL     1     -10.273  16.888  67.537  1.00  0.00    -0.295 A  
HETATM   24  C   UNL     1     -10.441  16.732  68.913  1.00  0.00    -0.332 A  
HETATM   25  C   UNL     1     -11.057  15.585  69.413  1.00  0.00    -0.291 A  
ENDBRANCH  18  20
ENDBRANCH  15  18
ENDBRANCH  13  15
ENDBRANCH   8   9
ENDBRANCH   4   7
TORSDOF 5
ENDMDL
MODEL      131
REMARK 921   NORMALIZED FREE ENERGY PREDICTED BY IDOCK:   -5.40 KCAL/MOL
REMARK 922        TOTAL FREE ENERGY PREDICTED BY IDOCK:   -7.45 KCAL/MOL
REMARK 923 INTER-LIGAND FREE ENERGY PREDICTED BY IDOCK:   -6.88 KCAL/MOL
REMARK 924 INTRA-LIGAND FREE ENERGY PREDICTED BY IDOCK:   -0.58 KCAL/MOL
REMARK 927      BINDING AFFINITY PREDICTED BY RF-SCORE:    0.00 PKD
ROOT
HETATM    1  O   UNL     1      -7.961  18.247  65.654  1.00  0.00    -0.494 OA 
HETATM    2  N   UNL     1      -8.850  19.148  66.260  1.00  0.00    -0.326 N  
HETATM    3  H   UNL     1      -7.060  18.484  65.466  1.00  0.00     0.000 HD 
HETATM    4  C   UNL     1     -10.143  18.807  66.531  1.00  0.00    -0.397 C  
HETATM    5  H   UNL     1      -8.521  20.082  66.505  1.00  0.00     0.000 HD 
HETATM    6  O   UNL     1     -10.929  19.625  66.999  1.00  0.00    -0.462 OA 
ENDROOT
BRANCH   4   7
HETATM    7  C   UNL     1     -10.534  17.408  66.232  1.00  0.00    -0.276 C  
HETATM    8  C   UNL     1     -10.646  16.503  67.215  1.00  0.00    -0.285 C  
BRANCH   8   9
HETATM    9  C   UNL     1     -11.030  15.124  66.920  1.00  0.00    -0.323 A  
HETATM   10  C   UNL     1     -11.749  14.834  65.753  1.00  0.00    -0.252 A  
HETATM   11  C   UNL     1     -12.175  13.529  65.491  1.00  0.00    -0.490 A  
HETATM   12  C   UNL     1     -11.893  12.506  66.396  1.00  0.00    -0.445 A  
HETATM   13  C   UNL     1     -11.164  12.789  67.556  1.00  0.00    -0.289 A  
HETATM   14  C   UNL     1     -10.737  14.096  67.825  1.00  0.00    -0.251 A  
BRANCH  13  15
HETATM   15  S   UNL     1     -10.906  11.508  68.768  1.00  0.00    -0.227 S  
HETATM   16  O   UNL     1     -11.756  11.795  69.903  1.00  0.00    -0.310 OA 
HETATM   17  O   UNL     1      -9.475  11.351  68.929  1.00  0.00    -0.155 OA 
BRANCH  15  18
HETATM   18  N   UNL     1     -11.440  10.101  68.011  1.00  0.00    -0.496 N  
HETATM   19  H   UNL     1     -12.436   9.889  67.966  1.00  0.00     0.000 HD 
BRANCH  18  20
HETATM   20  C   UNL     1     -10.494   9.215  67.438  1.00  0.00    -0.271 A  
HETATM   21  C   UNL     1      -9.897   9.526  66.218  1.00  0.00    -0.334 A  
HETATM   22  C   UNL     1      -9.022   8.616  65.623  1.00  0.00    -0.231 A  
HETATM   23  C   UNL     1      -8.733   7.407  66.258  1.00  0.00    -0.163 A  
HETATM   24  C   UNL     1      -9.320   7.106  67.487  1.00  0.00    -0.137 A  
HETATM   25  C   UNL     1     -10.209   8.007  68.073  1.00  0.00    -0.260 A  
ENDBRANCH  18  20
ENDBRANCH  15  18
ENDBRANCH  13  15
ENDBRANCH   8   9
ENDBRANCH   4   7
TORSDOF 5
ENDMDL
MODEL      132
REMARK 921   NORMALIZED FREE ENERGY PREDICTED BY IDOCK:   -5.38 KCAL/MOL
REMARK 922        TOTAL FREE ENERGY PREDICTED BY IDOCK:   -7.43 KCAL/MOL
REMARK 923 INTER-LIGAND FREE ENERGY PREDICTED BY IDOCK:   -6.92 KCAL/MOL
REMARK 924 INTRA-LIGAND FREE ENERGY PREDICTED BY IDOCK:   -0.51 KCAL/MOL
REMARK 927      BINDING AFFINITY PREDICTED BY RF-SCORE:    0.00 PKD
ROOT
HETATM    1  O   UNL     1     -11.021  18.219  65.067  1.00  0.00    -0.684 OA 
HETATM    2  N   UNL     1     -10.256  19.140  65.799  1.00  0.00    -0.301 N  
HETATM    3  H   UNL     1     -11.046  18.234  64.116  1.00  0.00     0.000 HD 
HETATM    4  C   UNL     1     -10.221  19.118  67.163  1.00  0.00    -0.401 C  
HETATM    5  H   UNL     1      -9.713  19.844  65.299  1.00  0.00     0.000 HD 
HETATM    6  O   UNL     1      -9.603  19.969  67.794  1.00  0.00    -0.356 OA 
ENDROOT
BRANCH   4   7
HETATM    7  C   UNL     1     -10.961  18.017  67.825  1.00  0.00    -0.106 C  
HETATM    8  C   UNL     1     -10.314  16.936  68.285  1.00  0.00    -0.335 C  
BRANCH   8   9
HETATM    9  C   UNL     1     -11.045  15.851  68.938  1.00  0.00    -0.316 A  
HETATM   10  C   UNL     1     -11.633  16.059  70.191  1.00  0.00    -0.324 A  
HETATM   11  C   UNL     1     -12.280  15.012  70.851  1.00  0.00    -0.386 A  
HETATM   12  C   UNL     1     -12.338  13.746  70.268  1.00  0.00    -0.407 A  
HETATM   13  C   UNL     1     -11.763  13.537  69.010  1.00  0.00    -0.327 A  
HETATM   14  C   UNL     1     -11.110  14.583  68.345  1.00  0.00    -0.271 A  
BRANCH  13  15
HETATM   15  S   UNL     1     -11.734  11.895  68.318  1.00  0.00    -0.293 S  
HETATM   16  O   UNL     1     -12.031  12.005  66.905  1.00  0.00    -0.612 OA 
HETATM   17  O   UNL     1     -12.530  11.049  69.183  1.00  0.00    -0.432 OA 
BRANCH  15  18
HETATM   18  N   UNL     1     -10.141  11.384  68.515  1.00  0.00    -0.201 N  
HETATM   19  H   UNL     1      -9.371  12.035  68.366  1.00  0.00     0.000 HD 
BRANCH  18  20
HETATM   20  C   UNL     1      -9.880  10.043  68.890  1.00  0.00    -0.184 A  
HETATM   21  C   UNL     1      -9.329   9.761  70.138  1.00  0.00    -0.261 A  
HETATM   22  C   UNL     1      -9.007   8.445  70.472  1.00  0.00    -0.160 A  
HETATM   23  C   UNL     1      -9.252   7.414  69.565  1.00  0.00    -0.146 A  
HETATM   24  C   UNL     1      -9.820   7.697  68.322  1.00  0.00    -0.181 A  
HETATM   25  C   UNL     1     -10.125   9.014  67.980  1.00  0.00    -0.234 A  
ENDBRANCH  18  20
ENDBRANCH  15  18
ENDBRANCH  13  15
ENDBRANCH   8   9
ENDBRANCH   4   7
TORSDOF 5
ENDMDL
MODEL      133
REMARK 921   NORMALIZED FREE ENERGY PREDICTED BY IDOCK:   -5.38 KCAL/MOL
REMARK 922        TOTAL FREE ENERGY PREDICTED BY IDOCK:   -7.43 KCAL/MOL
REMARK 923 INTER-LIGAND FREE ENERGY PREDICTED BY IDOCK:   -6.88 KCAL/MOL
REMARK 924 INTRA-LIGAND FREE ENERGY PREDICTED BY IDOCK:   -0.55 KCAL/MOL
REMARK 927      BINDING AFFINITY PREDICTED BY RF-SCORE:    0.00 PKD
ROOT
HETATM    1  O   UNL     1     -12.739  14.051  66.656  1.00  0.00    -0.495 OA 
HETATM    2  N   UNL     1     -12.922  14.205  65.272  1.00  0.00    -0.735 N  
HETATM    3  H   UNL     1     -13.089  14.679  67.278  1.00  0.00     0.000 HD 
HETATM    4  C   UNL     1     -12.420  13.304  64.379  1.00  0.00    -0.290 C  
HETATM    5  H   UNL     1     -13.443  15.010  64.926  1.00  0.00     0.000 HD 
HETATM    6  O   UNL     1     -12.528  13.483  63.171  1.00  0.00    -0.759 OA 
ENDROOT
BRANCH   4   7
HETATM    7  C   UNL     1     -11.750  12.110  64.950  1.00  0.00    -0.373 C  
HETATM    8  C   UNL     1     -10.425  12.102  65.157  1.00  0.00    -0.317 C  
BRANCH   8   9
HETATM    9  C   UNL     1      -9.765  10.925  65.720  1.00  0.00    -0.270 A  
HETATM   10  C   UNL     1      -9.611   9.772  64.940  1.00  0.00    -0.316 A  
HETATM   11  C   UNL     1      -9.038   8.620  65.487  1.00  0.00    -0.190 A  
HETATM   12  C   UNL     1      -8.622   8.610  66.818  1.00  0.00    -0.126 A  
HETATM   13  C   UNL     1      -8.762   9.764  67.596  1.00  0.00    -0.125 A  
HETATM   14  C   UNL     1      -9.339  10.921  67.054  1.00  0.00    -0.180 A  
BRANCH  13  15
HETATM   15  S   UNL     1      -8.340   9.715  69.327  1.00  0.00    -0.150 S  
HETATM   16  O   UNL     1      -7.502  10.861  69.610  1.00  0.00    -0.118 OA 
HETATM   17  O   UNL     1      -7.887   8.371  69.621  1.00  0.00    -0.096 OA 
BRANCH  15  18
HETATM   18  N   UNL     1      -9.813   9.890  70.124  1.00  0.00    -0.332 N  
HETATM   19  H   UNL     1     -10.239  10.810  70.220  1.00  0.00     0.000 HD 
BRANCH  18  20
HETATM   20  C   UNL     1     -10.455   8.746  70.661  1.00  0.00    -0.210 A  
HETATM   21  C   UNL     1     -11.014   7.795  69.808  1.00  0.00    -0.162 A  
HETATM   22  C   UNL     1     -11.708   6.708  70.343  1.00  0.00    -0.446 A  
HETATM   23  C   UNL     1     -11.827   6.567  71.726  1.00  0.00    -0.384 A  
HETATM   24  C   UNL     1     -11.252   7.512  72.577  1.00  0.00    -0.381 A  
HETATM   25  C   UNL     1     -10.574   8.608  72.043  1.00  0.00    -0.421 A  
ENDBRANCH  18  20
ENDBRANCH  15  18
ENDBRANCH  13  15
ENDBRANCH   8   9
ENDBRANCH   4   7
TORSDOF 5
ENDMDL
MODEL      134
REMARK 921   NORMALIZED FREE ENERGY PREDICTED BY IDOCK:   -5.38 KCAL/MOL
REMARK 922        TOTAL FREE ENERGY PREDICTED BY IDOCK:   -7.42 KCAL/MOL
REMARK 923 INTER-LIGAND FREE ENERGY PREDICTED BY IDOCK:   -6.91 KCAL/MOL
REMARK 924 INTRA-LIGAND FREE ENERGY PREDICTED BY IDOCK:   -0.51 KCAL/MOL
REMARK 927      BINDING AFFINITY PREDICTED BY RF-SCORE:    0.00 PKD
ROOT
HETATM    1  O   UNL     1     -10.964  19.727  66.852  1.00  0.00    -0.433 OA 
HETATM    2  N   UNL     1      -9.743  20.051  66.240  1.00  0.00    -0.493 N  
HETATM    3  H   UNL     1     -11.672  20.357  66.917  1.00  0.00     0.000 HD 
HETATM    4  C   UNL     1      -8.726  19.146  66.147  1.00  0.00    -0.219 C  
HETATM    5  H   UNL     1      -9.612  20.986  65.856  1.00  0.00     0.000 HD 
HETATM    6  O   UNL     1      -7.640  19.461  65.671  1.00  0.00    -0.425 OA 
ENDROOT
BRANCH   4   7
HETATM    7  C   UNL     1      -9.011  17.778  66.645  1.00  0.00    -0.283 C  
HETATM    8  C   UNL     1      -8.018  16.896  66.828  1.00  0.00    -0.271 C  
BRANCH   8   9
HETATM    9  C   UNL     1      -8.300  15.547  67.319  1.00  0.00    -0.218 A  
HETATM   10  C   UNL     1      -7.268  14.604  67.400  1.00  0.00    -0.182 A  
HETATM   11  C   UNL     1      -7.538  13.295  67.808  1.00  0.00    -0.161 A  
HETATM   12  C   UNL     1      -8.842  12.917  68.131  1.00  0.00    -0.194 A  
HETATM   13  C   UNL     1      -9.872  13.861  68.065  1.00  0.00    -0.234 A  
HETATM   14  C   UNL     1      -9.608  15.174  67.653  1.00  0.00    -0.206 A  
BRANCH  13  15
HETATM   15  S   UNL     1     -11.553  13.350  68.364  1.00  0.00    -0.355 S  
HETATM   16  O   UNL     1     -12.428  14.361  67.811  1.00  0.00    -0.105 OA 
HETATM   17  O   UNL     1     -11.644  12.967  69.758  1.00  0.00    -0.278 OA 
BRANCH  15  18
HETATM   18  N   UNL     1     -11.721  11.923  67.484  1.00  0.00    -0.301 N  
HETATM   19  H   UNL     1     -12.052  11.074  67.940  1.00  0.00     0.000 HD 
BRANCH  18  20
HETATM   20  C   UNL     1     -11.400  11.914  66.103  1.00  0.00    -0.324 A  
HETATM   21  C   UNL     1     -12.077  12.756  65.223  1.00  0.00    -0.505 A  
HETATM   22  C   UNL     1     -11.807  12.689  63.855  1.00  0.00    -0.544 A  
HETATM   23  C   UNL     1     -10.850  11.795  63.375  1.00  0.00    -0.460 A  
HETATM   24  C   UNL     1     -10.162  10.964  64.260  1.00  0.00    -0.430 A  
HETATM   25  C   UNL     1     -10.444  11.017  65.625  1.00  0.00    -0.293 A  
ENDBRANCH  18  20
ENDBRANCH  15  18
ENDBRANCH  13  15
ENDBRANCH   8   9
ENDBRANCH   4   7
TORSDOF 5
ENDMDL
MODEL      135
REMARK 921   NORMALIZED FREE ENERGY PREDICTED BY IDOCK:   -5.38 KCAL/MOL
REMARK 922        TOTAL FREE ENERGY PREDICTED BY IDOCK:   -7.42 KCAL/MOL
REMARK 923 INTER-LIGAND FREE ENERGY PREDICTED BY IDOCK:   -6.81 KCAL/MOL
REMARK 924 INTRA-LIGAND FREE ENERGY PREDICTED BY IDOCK:   -0.61 KCAL/MOL
REMARK 927      BINDING AFFINITY PREDICTED BY RF-SCORE:    0.00 PKD
ROOT
HETATM    1  O   UNL     1     -10.657  11.676  64.965  1.00  0.00    -0.268 OA 
HETATM    2  N   UNL     1     -10.519  13.069  64.860  1.00  0.00    -0.324 N  
HETATM    3  H   UNL     1     -10.322  11.090  64.295  1.00  0.00     0.000 HD 
HETATM    4  C   UNL     1     -10.999  13.910  65.822  1.00  0.00    -0.285 C  
HETATM    5  H   UNL     1     -10.049  13.462  64.046  1.00  0.00     0.000 HD 
HETATM    6  O   UNL     1     -10.933  15.127  65.688  1.00  0.00    -0.334 OA 
ENDROOT
BRANCH   4   7
HETATM    7  C   UNL     1     -11.593  13.272  67.022  1.00  0.00    -0.404 C  
HETATM    8  C   UNL     1     -11.218  13.646  68.253  1.00  0.00    -0.302 C  
BRANCH   8   9
HETATM    9  C   UNL     1     -11.803  13.016  69.435  1.00  0.00    -0.380 A  
HETATM   10  C   UNL     1     -12.333  13.810  70.460  1.00  0.00    -0.429 A  
HETATM   11  C   UNL     1     -12.839  13.220  71.622  1.00  0.00    -0.397 A  
HETATM   12  C   UNL     1     -12.812  11.833  71.771  1.00  0.00    -0.403 A  
HETATM   13  C   UNL     1     -12.296  11.036  70.744  1.00  0.00    -0.398 A  
HETATM   14  C   UNL     1     -11.785  11.622  69.578  1.00  0.00    -0.410 A  
BRANCH  13  15
HETATM   15  S   UNL     1     -12.154   9.276  70.983  1.00  0.00    -0.253 S  
HETATM   16  O   UNL     1     -13.489   8.744  71.159  1.00  0.00    -0.192 OA 
HETATM   17  O   UNL     1     -11.128   9.059  71.983  1.00  0.00    -0.364 OA 
BRANCH  15  18
HETATM   18  N   UNL     1     -11.512   8.705  69.534  1.00  0.00    -0.307 N  
HETATM   19  H   UNL     1     -11.816   9.103  68.646  1.00  0.00     0.000 HD 
BRANCH  18  20
HETATM   20  C   UNL     1     -10.546   7.669  69.560  1.00  0.00    -0.227 A  
HETATM   21  C   UNL     1     -10.945   6.348  69.751  1.00  0.00    -0.417 A  
HETATM   22  C   UNL     1      -9.983   5.341  69.848  1.00  0.00    -0.309 A  
HETATM   23  C   UNL     1      -8.628   5.656  69.736  1.00  0.00    -0.121 A  
HETATM   24  C   UNL     1      -8.233   6.978  69.527  1.00  0.00    -0.132 A  
HETATM   25  C   UNL     1      -9.192   7.987  69.449  1.00  0.00    -0.152 A  
ENDBRANCH  18  20
ENDBRANCH  15  18
ENDBRANCH  13  15
ENDBRANCH   8   9
ENDBRANCH   4   7
TORSDOF 5
ENDMDL
MODEL      136
REMARK 921   NORMALIZED FREE ENERGY PREDICTED BY IDOCK:   -5.37 KCAL/MOL
REMARK 922        TOTAL FREE ENERGY PREDICTED BY IDOCK:   -7.41 KCAL/MOL
REMARK 923 INTER-LIGAND FREE ENERGY PREDICTED BY IDOCK:   -6.95 KCAL/MOL
REMARK 924 INTRA-LIGAND FREE ENERGY PREDICTED BY IDOCK:   -0.46 KCAL/MOL
REMARK 927      BINDING AFFINITY PREDICTED BY RF-SCORE:    0.00 PKD
ROOT
HETATM    1  O   UNL     1      -9.700   9.015  71.510  1.00  0.00    -0.293 OA 
HETATM    2  N   UNL     1     -10.987   9.033  72.070  1.00  0.00    -0.347 N  
HETATM    3  H   UNL     1      -8.974   8.578  71.940  1.00  0.00     0.000 HD 
HETATM    4  C   UNL     1     -12.029   9.661  71.452  1.00  0.00    -0.399 C  
HETATM    5  H   UNL     1     -11.147   8.566  72.962  1.00  0.00     0.000 HD 
HETATM    6  O   UNL     1     -13.132   9.728  71.983  1.00  0.00    -0.414 OA 
ENDROOT
BRANCH   4   7
HETATM    7  C   UNL     1     -11.750  10.244  70.117  1.00  0.00    -0.364 C  
HETATM    8  C   UNL     1     -11.811  11.570  69.923  1.00  0.00    -0.430 C  
BRANCH   8   9
HETATM    9  C   UNL     1     -11.537  12.144  68.606  1.00  0.00    -0.372 A  
HETATM   10  C   UNL     1     -11.479  11.313  67.481  1.00  0.00    -0.324 A  
HETATM   11  C   UNL     1     -11.157  11.842  66.228  1.00  0.00    -0.364 A  
HETATM   12  C   UNL     1     -10.883  13.203  66.092  1.00  0.00    -0.293 A  
HETATM   13  C   UNL     1     -10.954  14.038  67.212  1.00  0.00    -0.295 A  
HETATM   14  C   UNL     1     -11.273  13.513  68.471  1.00  0.00    -0.310 A  
BRANCH  13  15
HETATM   15  S   UNL     1     -10.490  15.753  67.061  1.00  0.00    -0.310 S  
HETATM   16  O   UNL     1     -11.292  16.512  67.998  1.00  0.00    -0.269 OA 
HETATM   17  O   UNL     1     -10.489  16.075  65.649  1.00  0.00    -0.358 OA 
BRANCH  15  18
HETATM   18  N   UNL     1      -8.877  15.796  67.544  1.00  0.00    -0.184 N  
HETATM   19  H   UNL     1      -8.409  14.943  67.847  1.00  0.00     0.000 HD 
BRANCH  18  20
HETATM   20  C   UNL     1      -8.176  17.027  67.526  1.00  0.00    -0.180 A  
HETATM   21  C   UNL     1      -7.392  17.368  66.425  1.00  0.00    -0.340 A  
HETATM   22  C   UNL     1      -6.647  18.548  66.444  1.00  0.00    -0.233 A  
HETATM   23  C   UNL     1      -6.702  19.391  67.554  1.00  0.00    -0.231 A  
HETATM   24  C   UNL     1      -7.501  19.056  68.648  1.00  0.00    -0.361 A  
HETATM   25  C   UNL     1      -8.232  17.868  68.637  1.00  0.00    -0.281 A  
ENDBRANCH  18  20
ENDBRANCH  15  18
ENDBRANCH  13  15
ENDBRANCH   8   9
ENDBRANCH   4   7
TORSDOF 5
ENDMDL
MODEL      137
REMARK 921   NORMALIZED FREE ENERGY PREDICTED BY IDOCK:   -5.36 KCAL/MOL
REMARK 922        TOTAL FREE ENERGY PREDICTED BY IDOCK:   -7.40 KCAL/MOL
REMARK 923 INTER-LIGAND FREE ENERGY PREDICTED BY IDOCK:   -6.94 KCAL/MOL
REMARK 924 INTRA-LIGAND FREE ENERGY PREDICTED BY IDOCK:   -0.46 KCAL/MOL
REMARK 927      BINDING AFFINITY PREDICTED BY RF-SCORE:    0.00 PKD
ROOT
HETATM    1  O   UNL     1     -10.270   4.948  70.467  1.00  0.00    -0.244 OA 
HETATM    2  N   UNL     1     -10.249   4.647  71.838  1.00  0.00    -0.196 N  
HETATM    3  H   UNL     1      -9.943   4.336  69.816  1.00  0.00     0.000 HD 
HETATM    4  C   UNL     1     -10.718   5.524  72.771  1.00  0.00    -0.247 C  
HETATM    5  H   UNL     1      -9.874   3.749  72.144  1.00  0.00     0.000 HD 
HETATM    6  O   UNL     1     -10.633   5.279  73.970  1.00  0.00    -0.267 OA 
ENDROOT
BRANCH   4   7
HETATM    7  C   UNL     1     -11.331   6.773  72.255  1.00  0.00    -0.310 C  
HETATM    8  C   UNL     1     -10.637   7.920  72.238  1.00  0.00    -0.331 C  
BRANCH   8   9
HETATM    9  C   UNL     1     -11.242   9.150  71.730  1.00  0.00    -0.451 A  
HETATM   10  C   UNL     1     -12.424   9.635  72.303  1.00  0.00    -0.249 A  
HETATM   11  C   UNL     1     -13.045  10.775  71.786  1.00  0.00    -0.573 A  
HETATM   12  C   UNL     1     -12.494  11.434  70.687  1.00  0.00    -0.419 A  
HETATM   13  C   UNL     1     -11.306  10.960  70.120  1.00  0.00    -0.284 A  
HETATM   14  C   UNL     1     -10.681   9.816  70.633  1.00  0.00    -0.394 A  
BRANCH  13  15
HETATM   15  S   UNL     1     -10.666  11.731  68.646  1.00  0.00    -0.225 S  
HETATM   16  O   UNL     1      -9.228  11.565  68.648  1.00  0.00    -0.186 OA 
HETATM   17  O   UNL     1     -11.264  13.048  68.555  1.00  0.00    -0.241 OA 
BRANCH  15  18
HETATM   18  N   UNL     1     -11.330  10.838  67.382  1.00  0.00    -0.251 N  
HETATM   19  H   UNL     1     -12.005  10.099  67.575  1.00  0.00     0.000 HD 
BRANCH  18  20
HETATM   20  C   UNL     1     -10.942  11.121  66.049  1.00  0.00    -0.123 A  
HETATM   21  C   UNL     1      -9.870  10.440  65.474  1.00  0.00    -0.332 A  
HETATM   22  C   UNL     1      -9.448  10.775  64.187  1.00  0.00    -0.309 A  
HETATM   23  C   UNL     1     -10.108  11.775  63.472  1.00  0.00    -0.463 A  
HETATM   24  C   UNL     1     -11.191  12.443  64.044  1.00  0.00    -0.458 A  
HETATM   25  C   UNL     1     -11.603  12.122  65.337  1.00  0.00    -0.383 A  
ENDBRANCH  18  20
ENDBRANCH  15  18
ENDBRANCH  13  15
ENDBRANCH   8   9
ENDBRANCH   4   7
TORSDOF 5
ENDMDL
MODEL      138
REMARK 921   NORMALIZED FREE ENERGY PREDICTED BY IDOCK:   -5.36 KCAL/MOL
REMARK 922        TOTAL FREE ENERGY PREDICTED BY IDOCK:   -7.39 KCAL/MOL
REMARK 923 INTER-LIGAND FREE ENERGY PREDICTED BY IDOCK:   -6.67 KCAL/MOL
REMARK 924 INTRA-LIGAND FREE ENERGY PREDICTED BY IDOCK:   -0.72 KCAL/MOL
REMARK 927      BINDING AFFINITY PREDICTED BY RF-SCORE:    0.00 PKD
ROOT
HETATM    1  O   UNL     1      -8.880  12.097  66.368  1.00  0.00    -0.308 OA 
HETATM    2  N   UNL     1      -8.644  11.499  65.120  1.00  0.00    -0.325 N  
HETATM    3  H   UNL     1      -8.899  13.042  66.473  1.00  0.00     0.000 HD 
HETATM    4  C   UNL     1      -8.616  10.143  64.970  1.00  0.00    -0.167 C  
HETATM    5  H   UNL     1      -8.489  12.093  64.306  1.00  0.00     0.000 HD 
HETATM    6  O   UNL     1      -8.342   9.632  63.889  1.00  0.00    -0.146 OA 
ENDROOT
BRANCH   4   7
HETATM    7  C   UNL     1      -8.936   9.338  66.173  1.00  0.00    -0.202 C  
HETATM    8  C   UNL     1     -10.158   8.812  66.341  1.00  0.00    -0.313 C  
BRANCH   8   9
HETATM    9  C   UNL     1     -10.472   8.019  67.528  1.00  0.00    -0.331 A  
HETATM   10  C   UNL     1     -10.493   6.621  67.449  1.00  0.00    -0.325 A  
HETATM   11  C   UNL     1     -10.853   5.855  68.561  1.00  0.00    -0.323 A  
HETATM   12  C   UNL     1     -11.201   6.480  69.759  1.00  0.00    -0.456 A  
HETATM   13  C   UNL     1     -11.168   7.876  69.845  1.00  0.00    -0.046 A  
HETATM   14  C   UNL     1     -10.811   8.649  68.732  1.00  0.00    -0.009 A  
BRANCH  13  15
HETATM   15  S   UNL     1     -11.725   8.678  71.336  1.00  0.00    -0.314 S  
HETATM   16  O   UNL     1     -10.627   9.470  71.849  1.00  0.00    -0.132 OA 
HETATM   17  O   UNL     1     -12.360   7.667  72.157  1.00  0.00    -0.292 OA 
BRANCH  15  18
HETATM   18  N   UNL     1     -12.962   9.701  70.826  1.00  0.00    -0.559 N  
HETATM   19  H   UNL     1     -13.801   9.316  70.394  1.00  0.00     0.000 HD 
BRANCH  18  20
HETATM   20  C   UNL     1     -12.827  11.100  71.002  1.00  0.00    -0.329 A  
HETATM   21  C   UNL     1     -13.387  11.720  72.118  1.00  0.00    -0.334 A  
HETATM   22  C   UNL     1     -13.314  13.108  72.249  1.00  0.00    -0.621 A  
HETATM   23  C   UNL     1     -12.668  13.869  71.274  1.00  0.00    -0.444 A  
HETATM   24  C   UNL     1     -12.094  13.243  70.167  1.00  0.00    -0.403 A  
HETATM   25  C   UNL     1     -12.182  11.858  70.026  1.00  0.00    -0.291 A  
ENDBRANCH  18  20
ENDBRANCH  15  18
ENDBRANCH  13  15
ENDBRANCH   8   9
ENDBRANCH   4   7
TORSDOF 5
ENDMDL
MODEL      139
REMARK 921   NORMALIZED FREE ENERGY PREDICTED BY IDOCK:   -5.35 KCAL/MOL
REMARK 922        TOTAL FREE ENERGY PREDICTED BY IDOCK:   -7.39 KCAL/MOL
REMARK 923 INTER-LIGAND FREE ENERGY PREDICTED BY IDOCK:   -6.87 KCAL/MOL
REMARK 924 INTRA-LIGAND FREE ENERGY PREDICTED BY IDOCK:   -0.52 KCAL/MOL
REMARK 927      BINDING AFFINITY PREDICTED BY RF-SCORE:    0.00 PKD
ROOT
HETATM    1  O   UNL     1     -12.190  15.343  69.572  1.00  0.00    -0.484 OA 
HETATM    2  N   UNL     1     -12.223  14.880  68.247  1.00  0.00    -0.576 N  
HETATM    3  H   UNL     1     -12.335  16.258  69.785  1.00  0.00     0.000 HD 
HETATM    4  C   UNL     1     -12.015  13.566  67.942  1.00  0.00    -0.337 C  
HETATM    5  H   UNL     1     -12.407  15.542  67.494  1.00  0.00     0.000 HD 
HETATM    6  O   UNL     1     -11.979  13.185  66.777  1.00  0.00    -0.384 OA 
ENDROOT
BRANCH   4   7
HETATM    7  C   UNL     1     -11.841  12.641  69.088  1.00  0.00    -0.349 C  
HETATM    8  C   UNL     1     -12.235  11.362  69.002  1.00  0.00    -0.200 C  
BRANCH   8   9
HETATM    9  C   UNL     1     -12.064  10.451  70.133  1.00  0.00    -0.334 A  
HETATM   10  C   UNL     1     -13.147  10.174  70.977  1.00  0.00    -0.458 A  
HETATM   11  C   UNL     1     -12.979   9.354  72.096  1.00  0.00    -0.503 A  
HETATM   12  C   UNL     1     -11.727   8.812  72.385  1.00  0.00    -0.337 A  
HETATM   13  C   UNL     1     -10.646   9.076  71.537  1.00  0.00    -0.345 A  
HETATM   14  C   UNL     1     -10.807   9.900  70.415  1.00  0.00    -0.380 A  
BRANCH  13  15
HETATM   15  S   UNL     1      -9.023   8.480  71.970  1.00  0.00    -0.220 S  
HETATM   16  O   UNL     1      -8.898   8.542  73.411  1.00  0.00    -0.301 OA 
HETATM   17  O   UNL     1      -8.073   9.158  71.110  1.00  0.00    -0.242 OA 
BRANCH  15  18
HETATM   18  N   UNL     1      -9.021   6.870  71.477  1.00  0.00    -0.140 N  
HETATM   19  H   UNL     1      -8.735   6.623  70.531  1.00  0.00     0.000 HD 
BRANCH  18  20
HETATM   20  C   UNL     1      -9.422   5.861  72.388  1.00  0.00    -0.146 A  
HETATM   21  C   UNL     1     -10.775   5.574  72.562  1.00  0.00    -0.289 A  
HETATM   22  C   UNL     1     -11.166   4.631  73.514  1.00  0.00    -0.400 A  
HETATM   23  C   UNL     1     -10.205   3.966  74.275  1.00  0.00    -0.236 A  
HETATM   24  C   UNL     1      -8.850   4.244  74.088  1.00  0.00    -0.095 A  
HETATM   25  C   UNL     1      -8.459   5.199  73.150  1.00  0.00    -0.110 A  
ENDBRANCH  18  20
ENDBRANCH  15  18
ENDBRANCH  13  15
ENDBRANCH   8   9
ENDBRANCH   4   7
TORSDOF 5
ENDMDL
MODEL      140
REMARK 921   NORMALIZED FREE ENERGY PREDICTED BY IDOCK:   -5.35 KCAL/MOL
REMARK 922        TOTAL FREE ENERGY PREDICTED BY IDOCK:   -7.38 KCAL/MOL
REMARK 923 INTER-LIGAND FREE ENERGY PREDICTED BY IDOCK:   -6.58 KCAL/MOL
REMARK 924 INTRA-LIGAND FREE ENERGY PREDICTED BY IDOCK:   -0.81 KCAL/MOL
REMARK 927      BINDING AFFINITY PREDICTED BY RF-SCORE:    0.00 PKD
ROOT
HETATM    1  O   UNL     1      -6.917  18.974  68.185  1.00  0.00    -0.234 OA 
HETATM    2  N   UNL     1      -7.871  19.968  67.915  1.00  0.00    -0.290 N  
HETATM    3  H   UNL     1      -5.984  19.149  68.127  1.00  0.00     0.000 HD 
HETATM    4  C   UNL     1      -9.210  19.716  67.998  1.00  0.00    -0.334 C  
HETATM    5  H   UNL     1      -7.556  20.901  67.650  1.00  0.00     0.000 HD 
HETATM    6  O   UNL     1     -10.034  20.572  67.695  1.00  0.00    -0.409 OA 
ENDROOT
BRANCH   4   7
HETATM    7  C   UNL     1      -9.601  18.367  68.474  1.00  0.00    -0.368 C  
HETATM    8  C   UNL     1     -10.616  17.706  67.899  1.00  0.00    -0.390 C  
BRANCH   8   9
HETATM    9  C   UNL     1     -11.001  16.376  68.369  1.00  0.00    -0.353 A  
HETATM   10  C   UNL     1     -11.069  16.114  69.743  1.00  0.00    -0.350 A  
HETATM   11  C   UNL     1     -11.376  14.830  70.204  1.00  0.00    -0.291 A  
HETATM   12  C   UNL     1     -11.608  13.798  69.295  1.00  0.00    -0.362 A  
HETATM   13  C   UNL     1     -11.554  14.060  67.922  1.00  0.00    -0.343 A  
HETATM   14  C   UNL     1     -11.245  15.344  67.455  1.00  0.00    -0.287 A  
BRANCH  13  15
HETATM   15  S   UNL     1     -11.735  12.718  66.763  1.00  0.00    -0.383 S  
HETATM   16  O   UNL     1     -12.584  13.176  65.684  1.00  0.00    -0.456 OA 
HETATM   17  O   UNL     1     -12.075  11.533  67.526  1.00  0.00    -0.614 OA 
BRANCH  15  18
HETATM   18  N   UNL     1     -10.178  12.456  66.177  1.00  0.00    -0.237 N  
HETATM   19  H   UNL     1     -10.025  12.292  65.183  1.00  0.00     0.000 HD 
BRANCH  18  20
HETATM   20  C   UNL     1      -9.083  12.465  67.077  1.00  0.00    -0.207 A  
HETATM   21  C   UNL     1      -8.815  11.344  67.860  1.00  0.00    -0.149 A  
HETATM   22  C   UNL     1      -7.780  11.385  68.796  1.00  0.00    -0.135 A  
HETATM   23  C   UNL     1      -7.008  12.539  68.934  1.00  0.00    -0.088 A  
HETATM   24  C   UNL     1      -7.269  13.654  68.137  1.00  0.00    -0.117 A  
HETATM   25  C   UNL     1      -8.314  13.620  67.214  1.00  0.00    -0.182 A  
ENDBRANCH  18  20
ENDBRANCH  15  18
ENDBRANCH  13  15
ENDBRANCH   8   9
ENDBRANCH   4   7
TORSDOF 5
ENDMDL
MODEL      141
REMARK 921   NORMALIZED FREE ENERGY PREDICTED BY IDOCK:   -5.34 KCAL/MOL
REMARK 922        TOTAL FREE ENERGY PREDICTED BY IDOCK:   -7.37 KCAL/MOL
REMARK 923 INTER-LIGAND FREE ENERGY PREDICTED BY IDOCK:   -6.83 KCAL/MOL
REMARK 924 INTRA-LIGAND FREE ENERGY PREDICTED BY IDOCK:   -0.54 KCAL/MOL
REMARK 927      BINDING AFFINITY PREDICTED BY RF-SCORE:    0.00 PKD
ROOT
HETATM    1  O   UNL     1     -10.773  18.930  68.935  1.00  0.00    -0.260 OA 
HETATM    2  N   UNL     1      -9.902  19.599  68.061  1.00  0.00    -0.390 N  
HETATM    3  H   UNL     1     -10.968  19.268  69.802  1.00  0.00     0.000 HD 
HETATM    4  C   UNL     1      -9.623  19.114  66.817  1.00  0.00    -0.331 C  
HETATM    5  H   UNL     1      -9.467  20.471  68.364  1.00  0.00     0.000 HD 
HETATM    6  O   UNL     1      -8.809  19.671  66.088  1.00  0.00    -0.365 OA 
ENDROOT
BRANCH   4   7
HETATM    7  C   UNL     1     -10.355  17.891  66.405  1.00  0.00    -0.365 C  
HETATM    8  C   UNL     1      -9.741  16.931  65.699  1.00  0.00     0.003 C  
BRANCH   8   9
HETATM    9  C   UNL     1     -10.465  15.727  65.292  1.00  0.00    -0.427 A  
HETATM   10  C   UNL     1     -11.664  15.840  64.578  1.00  0.00    -0.191 A  
HETATM   11  C   UNL     1     -12.395  14.698  64.239  1.00  0.00    -0.375 A  
HETATM   12  C   UNL     1     -11.938  13.436  64.617  1.00  0.00    -0.441 A  
HETATM   13  C   UNL     1     -10.733  13.318  65.319  1.00  0.00    -0.311 A  
HETATM   14  C   UNL     1      -9.998  14.460  65.665  1.00  0.00    -0.365 A  
BRANCH  13  15
HETATM   15  S   UNL     1     -10.209  11.719  65.904  1.00  0.00    -0.247 S  
HETATM   16  O   UNL     1      -9.042  11.913  66.738  1.00  0.00    -0.186 OA 
HETATM   17  O   UNL     1     -10.167  10.834  64.757  1.00  0.00    -0.306 OA 
BRANCH  15  18
HETATM   18  N   UNL     1     -11.491  11.178  66.854  1.00  0.00    -0.101 N  
HETATM   19  H   UNL     1     -12.113  10.448  66.509  1.00  0.00     0.000 HD 
BRANCH  18  20
HETATM   20  C   UNL     1     -11.698  11.747  68.135  1.00  0.00    -0.307 A  
HETATM   21  C   UNL     1     -11.730  10.930  69.264  1.00  0.00    -0.395 A  
HETATM   22  C   UNL     1     -12.007  11.487  70.514  1.00  0.00    -0.439 A  
HETATM   23  C   UNL     1     -12.234  12.859  70.633  1.00  0.00    -0.386 A  
HETATM   24  C   UNL     1     -12.185  13.676  69.503  1.00  0.00    -0.316 A  
HETATM   25  C   UNL     1     -11.926  13.118  68.251  1.00  0.00    -0.328 A  
ENDBRANCH  18  20
ENDBRANCH  15  18
ENDBRANCH  13  15
ENDBRANCH   8   9
ENDBRANCH   4   7
TORSDOF 5
ENDMDL
MODEL      142
REMARK 921   NORMALIZED FREE ENERGY PREDICTED BY IDOCK:   -5.34 KCAL/MOL
REMARK 922        TOTAL FREE ENERGY PREDICTED BY IDOCK:   -7.37 KCAL/MOL
REMARK 923 INTER-LIGAND FREE ENERGY PREDICTED BY IDOCK:   -6.60 KCAL/MOL
REMARK 924 INTRA-LIGAND FREE ENERGY PREDICTED BY IDOCK:   -0.77 KCAL/MOL
REMARK 927      BINDING AFFINITY PREDICTED BY RF-SCORE:    0.00 PKD
ROOT
HETATM    1  O   UNL     1     -12.455  10.595  71.507  1.00  0.00    -0.377 OA 
HETATM    2  N   UNL     1     -13.363  11.441  72.163  1.00  0.00    -0.568 N  
HETATM    3  H   UNL     1     -12.438   9.659  71.670  1.00  0.00     0.000 HD 
HETATM    4  C   UNL     1     -13.387  12.785  71.929  1.00  0.00    -0.413 C  
HETATM    5  H   UNL     1     -14.021  11.041  72.831  1.00  0.00     0.000 HD 
HETATM    6  O   UNL     1     -14.139  13.523  72.557  1.00  0.00    -0.731 OA 
ENDROOT
BRANCH   4   7
HETATM    7  C   UNL     1     -12.466  13.291  70.882  1.00  0.00    -0.424 C  
HETATM    8  C   UNL     1     -12.221  14.603  70.761  1.00  0.00    -0.394 C  
BRANCH   8   9
HETATM    9  C   UNL     1     -11.313  15.101  69.728  1.00  0.00    -0.307 A  
HETATM   10  C   UNL     1     -11.581  16.318  69.091  1.00  0.00    -0.213 A  
HETATM   11  C   UNL     1     -10.754  16.773  68.059  1.00  0.00    -0.355 A  
HETATM   12  C   UNL     1      -9.660  16.010  67.652  1.00  0.00    -0.218 A  
HETATM   13  C   UNL     1      -9.382  14.800  68.296  1.00  0.00    -0.199 A  
HETATM   14  C   UNL     1     -10.209  14.338  69.328  1.00  0.00    -0.031 A  
BRANCH  13  15
HETATM   15  S   UNL     1      -8.055  13.771  67.699  1.00  0.00    -0.192 S  
HETATM   16  O   UNL     1      -7.687  12.861  68.764  1.00  0.00    -0.093 OA 
HETATM   17  O   UNL     1      -7.071  14.646  67.093  1.00  0.00    -0.180 OA 
BRANCH  15  18
HETATM   18  N   UNL     1      -8.738  12.899  66.430  1.00  0.00    -0.424 N  
HETATM   19  H   UNL     1      -8.785  13.304  65.496  1.00  0.00     0.000 HD 
BRANCH  18  20
HETATM   20  C   UNL     1      -9.246  11.598  66.672  1.00  0.00    -0.191 A  
HETATM   21  C   UNL     1      -8.599  10.486  66.136  1.00  0.00    -0.155 A  
HETATM   22  C   UNL     1      -9.145   9.214  66.316  1.00  0.00    -0.222 A  
HETATM   23  C   UNL     1     -10.325   9.056  67.045  1.00  0.00    -0.339 A  
HETATM   24  C   UNL     1     -10.961  10.170  67.594  1.00  0.00    -0.331 A  
HETATM   25  C   UNL     1     -10.426  11.444  67.399  1.00  0.00    -0.239 A  
ENDBRANCH  18  20
ENDBRANCH  15  18
ENDBRANCH  13  15
ENDBRANCH   8   9
ENDBRANCH   4   7
TORSDOF 5
ENDMDL
MODEL      143
REMARK 921   NORMALIZED FREE ENERGY PREDICTED BY IDOCK:   -5.33 KCAL/MOL
REMARK 922        TOTAL FREE ENERGY PREDICTED BY IDOCK:   -7.36 KCAL/MOL
REMARK 923 INTER-LIGAND FREE ENERGY PREDICTED BY IDOCK:   -6.70 KCAL/MOL
REMARK 924 INTRA-LIGAND FREE ENERGY PREDICTED BY IDOCK:   -0.65 KCAL/MOL
REMARK 927      BINDING AFFINITY PREDICTED BY RF-SCORE:    0.00 PKD
ROOT
HETATM    1  O   UNL     1     -12.437  10.046  69.999  1.00  0.00    -0.507 OA 
HETATM    2  N   UNL     1     -11.380   9.142  69.806  1.00  0.00    -0.435 N  
HETATM    3  H   UNL     1     -13.094   9.908  70.671  1.00  0.00     0.000 HD 
HETATM    4  C   UNL     1     -10.435   9.340  68.841  1.00  0.00    -0.215 C  
HETATM    5  H   UNL     1     -11.316   8.317  70.402  1.00  0.00     0.000 HD 
HETATM    6  O   UNL     1      -9.556   8.510  68.637  1.00  0.00    -0.146 OA 
ENDROOT
BRANCH   4   7
HETATM    7  C   UNL     1     -10.535  10.602  68.067  1.00  0.00    -0.228 C  
HETATM    8  C   UNL     1     -10.867  10.584  66.769  1.00  0.00    -0.209 C  
BRANCH   8   9
HETATM    9  C   UNL     1     -10.964  11.829  66.007  1.00  0.00    -0.355 A  
HETATM   10  C   UNL     1     -11.395  11.801  64.675  1.00  0.00    -0.320 A  
HETATM   11  C   UNL     1     -11.432  12.975  63.919  1.00  0.00    -0.490 A  
HETATM   12  C   UNL     1     -11.031  14.186  64.486  1.00  0.00    -0.340 A  
HETATM   13  C   UNL     1     -10.612  14.219  65.820  1.00  0.00    -0.309 A  
HETATM   14  C   UNL     1     -10.570  13.044  66.582  1.00  0.00    -0.275 A  
BRANCH  13  15
HETATM   15  S   UNL     1      -9.990  15.741  66.508  1.00  0.00    -0.287 S  
HETATM   16  O   UNL     1      -9.787  16.670  65.416  1.00  0.00    -0.538 OA 
HETATM   17  O   UNL     1      -8.905  15.396  67.404  1.00  0.00    -0.171 OA 
BRANCH  15  18
HETATM   18  N   UNL     1     -11.239  16.299  67.492  1.00  0.00    -0.136 N  
HETATM   19  H   UNL     1     -11.897  16.994  67.142  1.00  0.00     0.000 HD 
BRANCH  18  20
HETATM   20  C   UNL     1     -11.368  15.793  68.809  1.00  0.00    -0.362 A  
HETATM   21  C   UNL     1     -12.125  14.648  69.046  1.00  0.00    -0.270 A  
HETATM   22  C   UNL     1     -12.308  14.197  70.355  1.00  0.00    -0.428 A  
HETATM   23  C   UNL     1     -11.720  14.882  71.418  1.00  0.00    -0.387 A  
HETATM   24  C   UNL     1     -10.948  16.019  71.176  1.00  0.00    -0.026 A  
HETATM   25  C   UNL     1     -10.779  16.480  69.871  1.00  0.00    -0.269 A  
ENDBRANCH  18  20
ENDBRANCH  15  18
ENDBRANCH  13  15
ENDBRANCH   8   9
ENDBRANCH   4   7
TORSDOF 5
ENDMDL
MODEL      144
REMARK 921   NORMALIZED FREE ENERGY PREDICTED BY IDOCK:   -5.31 KCAL/MOL
REMARK 922        TOTAL FREE ENERGY PREDICTED BY IDOCK:   -7.34 KCAL/MOL
REMARK 923 INTER-LIGAND FREE ENERGY PREDICTED BY IDOCK:   -7.33 KCAL/MOL
REMARK 924 INTRA-LIGAND FREE ENERGY PREDICTED BY IDOCK:   -0.00 KCAL/MOL
REMARK 927      BINDING AFFINITY PREDICTED BY RF-SCORE:    0.00 PKD
ROOT
HETATM    1  O   UNL     1     -10.080  20.408  65.410  1.00  0.00    -0.460 OA 
HETATM    2  N   UNL     1      -9.261  20.607  66.533  1.00  0.00    -0.607 N  
HETATM    3  H   UNL     1     -10.413  21.137  64.899  1.00  0.00     0.000 HD 
HETATM    4  C   UNL     1      -8.784  19.560  67.266  1.00  0.00    -0.300 C  
HETATM    5  H   UNL     1      -9.017  21.558  66.808  1.00  0.00     0.000 HD 
HETATM    6  O   UNL     1      -8.125  19.748  68.284  1.00  0.00    -0.321 OA 
ENDROOT
BRANCH   4   7
HETATM    7  C   UNL     1      -9.102  18.201  66.763  1.00  0.00    -0.287 C  
HETATM    8  C   UNL     1     -10.065  17.467  67.337  1.00  0.00    -0.321 C  
BRANCH   8   9
HETATM    9  C   UNL     1     -10.377  16.127  66.841  1.00  0.00    -0.297 A  
HETATM   10  C   UNL     1     -10.514  15.907  65.465  1.00  0.00    -0.425 A  
HETATM   11  C   UNL     1     -10.873  14.645  64.983  1.00  0.00    -0.431 A  
HETATM   12  C   UNL     1     -11.106  13.596  65.873  1.00  0.00    -0.289 A  
HETATM   13  C   UNL     1     -10.958  13.810  67.248  1.00  0.00    -0.292 A  
HETATM   14  C   UNL     1     -10.601  15.074  67.736  1.00  0.00    -0.264 A  
BRANCH  13  15
HETATM   15  S   UNL     1     -11.369  12.504  68.389  1.00  0.00    -0.318 S  
HETATM   16  O   UNL     1     -12.259  11.587  67.711  1.00  0.00    -0.560 OA 
HETATM   17  O   UNL     1     -11.755  13.131  69.638  1.00  0.00    -0.298 OA 
BRANCH  15  18
HETATM   18  N   UNL     1      -9.901  11.736  68.695  1.00  0.00    -0.317 N  
HETATM   19  H   UNL     1      -9.055  12.035  68.211  1.00  0.00     0.000 HD 
BRANCH  18  20
HETATM   20  C   UNL     1      -9.852  10.672  69.629  1.00  0.00    -0.013 A  
HETATM   21  C   UNL     1      -8.670   9.957  69.811  1.00  0.00    -0.229 A  
HETATM   22  C   UNL     1      -8.649   8.863  70.679  1.00  0.00    -0.224 A  
HETATM   23  C   UNL     1      -9.802   8.500  71.374  1.00  0.00    -0.296 A  
HETATM   24  C   UNL     1     -10.980   9.228  71.202  1.00  0.00    -0.409 A  
HETATM   25  C   UNL     1     -11.008  10.310  70.322  1.00  0.00    -0.375 A  
ENDBRANCH  18  20
ENDBRANCH  15  18
ENDBRANCH  13  15
ENDBRANCH   8   9
ENDBRANCH   4   7
TORSDOF 5
ENDMDL
MODEL      145
REMARK 921   NORMALIZED FREE ENERGY PREDICTED BY IDOCK:   -5.30 KCAL/MOL
REMARK 922        TOTAL FREE ENERGY PREDICTED BY IDOCK:   -7.32 KCAL/MOL
REMARK 923 INTER-LIGAND FREE ENERGY PREDICTED BY IDOCK:   -6.84 KCAL/MOL
REMARK 924 INTRA-LIGAND FREE ENERGY PREDICTED BY IDOCK:   -0.48 KCAL/MOL
REMARK 927      BINDING AFFINITY PREDICTED BY RF-SCORE:    0.00 PKD
ROOT
HETATM    1  O   UNL     1     -12.001   6.152  72.441  1.00  0.00    -0.451 OA 
HETATM    2  N   UNL     1     -11.270   6.117  71.243  1.00  0.00    -0.292 N  
HETATM    3  H   UNL     1     -12.077   5.388  73.001  1.00  0.00     0.000 HD 
HETATM    4  C   UNL     1     -11.161   7.214  70.439  1.00  0.00    -0.280 C  
HETATM    5  H   UNL     1     -10.809   5.250  70.966  1.00  0.00     0.000 HD 
HETATM    6  O   UNL     1     -10.577   7.154  69.362  1.00  0.00    -0.222 OA 
ENDROOT
BRANCH   4   7
HETATM    7  C   UNL     1     -11.779   8.466  70.940  1.00  0.00    -0.269 C  
HETATM    8  C   UNL     1     -11.503   9.645  70.364  1.00  0.00    -0.325 C  
BRANCH   8   9
HETATM    9  C   UNL     1     -12.113  10.878  70.860  1.00  0.00    -0.455 A  
HETATM   10  C   UNL     1     -13.070  10.822  71.881  1.00  0.00    -0.557 A  
HETATM   11  C   UNL     1     -13.704  11.987  72.319  1.00  0.00    -0.035 A  
HETATM   12  C   UNL     1     -13.392  13.216  71.737  1.00  0.00    -0.477 A  
HETATM   13  C   UNL     1     -12.427  13.277  70.726  1.00  0.00    -0.324 A  
HETATM   14  C   UNL     1     -11.790  12.111  70.280  1.00  0.00    -0.339 A  
BRANCH  13  15
HETATM   15  S   UNL     1     -12.113  14.826  69.902  1.00  0.00    -0.332 S  
HETATM   16  O   UNL     1     -12.943  15.834  70.525  1.00  0.00    -0.454 OA 
HETATM   17  O   UNL     1     -12.186  14.577  68.477  1.00  0.00    -0.254 OA 
BRANCH  15  18
HETATM   18  N   UNL     1     -10.494  15.155  70.229  1.00  0.00    -0.503 N  
HETATM   19  H   UNL     1     -10.181  15.291  71.189  1.00  0.00     0.000 HD 
BRANCH  18  20
HETATM   20  C   UNL     1      -9.569  15.240  69.158  1.00  0.00    -0.243 A  
HETATM   21  C   UNL     1      -9.113  14.079  68.536  1.00  0.00    -0.163 A  
HETATM   22  C   UNL     1      -8.148  14.166  67.531  1.00  0.00    -0.199 A  
HETATM   23  C   UNL     1      -7.656  15.411  67.139  1.00  0.00    -0.238 A  
HETATM   24  C   UNL     1      -8.128  16.573  67.752  1.00  0.00    -0.170 A  
HETATM   25  C   UNL     1      -9.079  16.486  68.769  1.00  0.00    -0.256 A  
ENDBRANCH  18  20
ENDBRANCH  15  18
ENDBRANCH  13  15
ENDBRANCH   8   9
ENDBRANCH   4   7
TORSDOF 5
ENDMDL
MODEL      146
REMARK 921   NORMALIZED FREE ENERGY PREDICTED BY IDOCK:   -5.29 KCAL/MOL
REMARK 922        TOTAL FREE ENERGY PREDICTED BY IDOCK:   -7.30 KCAL/MOL
REMARK 923 INTER-LIGAND FREE ENERGY PREDICTED BY IDOCK:   -6.74 KCAL/MOL
REMARK 924 INTRA-LIGAND FREE ENERGY PREDICTED BY IDOCK:   -0.56 KCAL/MOL
REMARK 927      BINDING AFFINITY PREDICTED BY RF-SCORE:    0.00 PKD
ROOT
HETATM    1  O   UNL     1      -7.745  18.782  68.861  1.00  0.00    -0.314 OA 
HETATM    2  N   UNL     1      -8.674  19.546  68.138  1.00  0.00    -0.318 N  
HETATM    3  H   UNL     1      -6.828  19.028  68.912  1.00  0.00     0.000 HD 
HETATM    4  C   UNL     1      -9.990  19.192  68.066  1.00  0.00    -0.376 C  
HETATM    5  H   UNL     1      -8.358  20.386  67.655  1.00  0.00     0.000 HD 
HETATM    6  O   UNL     1     -10.779  19.829  67.376  1.00  0.00    -0.440 OA 
ENDROOT
BRANCH   4   7
HETATM    7  C   UNL     1     -10.402  18.010  68.862  1.00  0.00    -0.244 C  
HETATM    8  C   UNL     1     -11.018  16.972  68.279  1.00  0.00    -0.269 C  
BRANCH   8   9
HETATM    9  C   UNL     1     -11.424  15.808  69.065  1.00  0.00    -0.394 A  
HETATM   10  C   UNL     1     -11.667  15.943  70.438  1.00  0.00    -0.371 A  
HETATM   11  C   UNL     1     -11.995  14.826  71.210  1.00  0.00    -0.404 A  
HETATM   12  C   UNL     1     -12.075  13.565  70.620  1.00  0.00    -0.386 A  
HETATM   13  C   UNL     1     -11.846  13.429  69.246  1.00  0.00    -0.334 A  
HETATM   14  C   UNL     1     -11.513  14.545  68.467  1.00  0.00    -0.327 A  
BRANCH  13  15
HETATM   15  S   UNL     1     -11.832  11.804  68.514  1.00  0.00    -0.238 S  
HETATM   16  O   UNL     1     -12.103  11.954  67.100  1.00  0.00    -0.590 OA 
HETATM   17  O   UNL     1     -12.658  10.951  69.345  1.00  0.00    -0.335 OA 
BRANCH  15  18
HETATM   18  N   UNL     1     -10.252  11.261  68.726  1.00  0.00    -0.203 N  
HETATM   19  H   UNL     1      -9.713  11.553  69.541  1.00  0.00     0.000 HD 
BRANCH  18  20
HETATM   20  C   UNL     1      -9.676  10.396  67.762  1.00  0.00    -0.160 A  
HETATM   21  C   UNL     1      -8.659  10.857  66.929  1.00  0.00    -0.136 A  
HETATM   22  C   UNL     1      -8.147  10.023  65.933  1.00  0.00    -0.126 A  
HETATM   23  C   UNL     1      -8.641   8.726  65.786  1.00  0.00    -0.185 A  
HETATM   24  C   UNL     1      -9.648   8.262  66.633  1.00  0.00    -0.299 A  
HETATM   25  C   UNL     1     -10.173   9.100  67.616  1.00  0.00    -0.293 A  
ENDBRANCH  18  20
ENDBRANCH  15  18
ENDBRANCH  13  15
ENDBRANCH   8   9
ENDBRANCH   4   7
TORSDOF 5
ENDMDL
MODEL      147
REMARK 921   NORMALIZED FREE ENERGY PREDICTED BY IDOCK:   -5.28 KCAL/MOL
REMARK 922        TOTAL FREE ENERGY PREDICTED BY IDOCK:   -7.30 KCAL/MOL
REMARK 923 INTER-LIGAND FREE ENERGY PREDICTED BY IDOCK:   -6.51 KCAL/MOL
REMARK 924 INTRA-LIGAND FREE ENERGY PREDICTED BY IDOCK:   -0.79 KCAL/MOL
REMARK 927      BINDING AFFINITY PREDICTED BY RF-SCORE:    0.00 PKD
ROOT
HETATM    1  O   UNL     1      -8.946   8.834  64.575  1.00  0.00    -0.422 OA 
HETATM    2  N   UNL     1      -9.453   9.789  63.680  1.00  0.00    -0.462 N  
HETATM    3  H   UNL     1      -8.369   8.136  64.287  1.00  0.00     0.000 HD 
HETATM    4  C   UNL     1     -10.282  10.790  64.094  1.00  0.00    -0.344 C  
HETATM    5  H   UNL     1      -9.194   9.733  62.695  1.00  0.00     0.000 HD 
HETATM    6  O   UNL     1     -10.772  11.578  63.292  1.00  0.00    -0.362 OA 
ENDROOT
BRANCH   4   7
HETATM    7  C   UNL     1     -10.549  10.867  65.551  1.00  0.00    -0.240 C  
HETATM    8  C   UNL     1     -11.372  11.802  66.048  1.00  0.00    -0.335 C  
BRANCH   8   9
HETATM    9  C   UNL     1     -11.633  11.878  67.485  1.00  0.00    -0.374 A  
HETATM   10  C   UNL     1     -12.006  13.097  68.063  1.00  0.00    -0.345 A  
HETATM   11  C   UNL     1     -12.197  13.195  69.444  1.00  0.00    -0.189 A  
HETATM   12  C   UNL     1     -12.010  12.078  70.258  1.00  0.00    -0.398 A  
HETATM   13  C   UNL     1     -11.650  10.855  69.682  1.00  0.00    -0.322 A  
HETATM   14  C   UNL     1     -11.454  10.751  68.298  1.00  0.00    -0.353 A  
BRANCH  13  15
HETATM   15  S   UNL     1     -11.297   9.458  70.731  1.00  0.00    -0.322 S  
HETATM   16  O   UNL     1     -12.287   9.436  71.786  1.00  0.00    -0.350 OA 
HETATM   17  O   UNL     1      -9.882   9.498  71.038  1.00  0.00    -0.268 OA 
BRANCH  15  18
HETATM   18  N   UNL     1     -11.513   8.118  69.734  1.00  0.00    -0.432 N  
HETATM   19  H   UNL     1     -12.433   7.908  69.349  1.00  0.00     0.000 HD 
BRANCH  18  20
HETATM   20  C   UNL     1     -10.406   7.286  69.434  1.00  0.00    -0.208 A  
HETATM   21  C   UNL     1      -9.636   7.530  68.299  1.00  0.00    -0.157 A  
HETATM   22  C   UNL     1      -8.592   6.664  67.970  1.00  0.00    -0.118 A  
HETATM   23  C   UNL     1      -8.311   5.568  68.786  1.00  0.00    -0.102 A  
HETATM   24  C   UNL     1      -9.073   5.335  69.931  1.00  0.00    -0.165 A  
HETATM   25  C   UNL     1     -10.128   6.190  70.251  1.00  0.00    -0.237 A  
ENDBRANCH  18  20
ENDBRANCH  15  18
ENDBRANCH  13  15
ENDBRANCH   8   9
ENDBRANCH   4   7
TORSDOF 5
ENDMDL
MODEL      148
REMARK 921   NORMALIZED FREE ENERGY PREDICTED BY IDOCK:   -5.28 KCAL/MOL
REMARK 922        TOTAL FREE ENERGY PREDICTED BY IDOCK:   -7.29 KCAL/MOL
REMARK 923 INTER-LIGAND FREE ENERGY PREDICTED BY IDOCK:   -6.68 KCAL/MOL
REMARK 924 INTRA-LIGAND FREE ENERGY PREDICTED BY IDOCK:   -0.61 KCAL/MOL
REMARK 927      BINDING AFFINITY PREDICTED BY RF-SCORE:    0.00 PKD
ROOT
HETATM    1  O   UNL     1     -11.541  11.224  63.025  1.00  0.00    -0.857 OA 
HETATM    2  N   UNL     1     -12.238  12.442  62.977  1.00  0.00    -0.620 N  
HETATM    3  H   UNL     1     -11.717  10.524  62.406  1.00  0.00     0.000 HD 
HETATM    4  C   UNL     1     -11.985  13.447  63.865  1.00  0.00    -0.465 C  
HETATM    5  H   UNL     1     -12.951  12.579  62.261  1.00  0.00     0.000 HD 
HETATM    6  O   UNL     1     -12.646  14.480  63.857  1.00  0.00    -0.827 OA 
ENDROOT
BRANCH   4   7
HETATM    7  C   UNL     1     -10.877  13.218  64.824  1.00  0.00    -0.374 C  
HETATM    8  C   UNL     1     -10.552  14.151  65.731  1.00  0.00    -0.306 C  
BRANCH   8   9
HETATM    9  C   UNL     1      -9.459  13.925  66.675  1.00  0.00    -0.296 A  
HETATM   10  C   UNL     1      -8.555  14.957  66.957  1.00  0.00    -0.265 A  
HETATM   11  C   UNL     1      -7.471  14.733  67.810  1.00  0.00    -0.178 A  
HETATM   12  C   UNL     1      -7.277  13.475  68.381  1.00  0.00    -0.109 A  
HETATM   13  C   UNL     1      -8.185  12.446  68.111  1.00  0.00    -0.173 A  
HETATM   14  C   UNL     1      -9.273  12.664  67.255  1.00  0.00    -0.195 A  
BRANCH  13  15
HETATM   15  S   UNL     1      -7.874  10.810  68.746  1.00  0.00    -0.137 S  
HETATM   16  O   UNL     1      -7.453  10.942  70.124  1.00  0.00    -0.004 OA 
HETATM   17  O   UNL     1      -7.044  10.123  67.776  1.00  0.00    -0.084 OA 
BRANCH  15  18
HETATM   18  N   UNL     1      -9.374  10.045  68.690  1.00  0.00    -0.151 N  
HETATM   19  H   UNL     1      -9.961  10.127  67.862  1.00  0.00     0.000 HD 
BRANCH  18  20
HETATM   20  C   UNL     1      -9.812   9.288  69.805  1.00  0.00    -0.188 A  
HETATM   21  C   UNL     1      -9.340   7.991  69.997  1.00  0.00    -0.156 A  
HETATM   22  C   UNL     1      -9.831   7.224  71.055  1.00  0.00    -0.183 A  
HETATM   23  C   UNL     1     -10.777   7.762  71.927  1.00  0.00    -0.272 A  
HETATM   24  C   UNL     1     -11.236   9.067  71.743  1.00  0.00    -0.448 A  
HETATM   25  C   UNL     1     -10.759   9.828  70.675  1.00  0.00    -0.394 A  
ENDBRANCH  18  20
ENDBRANCH  15  18
ENDBRANCH  13  15
ENDBRANCH   8   9
ENDBRANCH   4   7
TORSDOF 5
ENDMDL
MODEL      149
REMARK 921   NORMALIZED FREE ENERGY PREDICTED BY IDOCK:   -5.27 KCAL/MOL
REMARK 922        TOTAL FREE ENERGY PREDICTED BY IDOCK:   -7.29 KCAL/MOL
REMARK 923 INTER-LIGAND FREE ENERGY PREDICTED BY IDOCK:   -6.88 KCAL/MOL
REMARK 924 INTRA-LIGAND FREE ENERGY PREDICTED BY IDOCK:   -0.41 KCAL/MOL
REMARK 927      BINDING AFFINITY PREDICTED BY RF-SCORE:    0.00 PKD
ROOT
HETATM    1  O   UNL     1      -7.865  10.769  65.060  1.00  0.00    -0.336 OA 
HETATM    2  N   UNL     1      -8.715  11.039  63.975  1.00  0.00    -0.374 N  
HETATM    3  H   UNL     1      -7.042  10.307  64.946  1.00  0.00     0.000 HD 
HETATM    4  C   UNL     1      -9.896  11.702  64.138  1.00  0.00    -0.242 C  
HETATM    5  H   UNL     1      -8.442  10.732  63.042  1.00  0.00     0.000 HD 
HETATM    6  O   UNL     1     -10.661  11.873  63.195  1.00  0.00    -0.354 OA 
ENDROOT
BRANCH   4   7
HETATM    7  C   UNL     1     -10.192  12.198  65.504  1.00  0.00    -0.294 C  
HETATM    8  C   UNL     1     -11.288  11.788  66.160  1.00  0.00    -0.342 C  
BRANCH   8   9
HETATM    9  C   UNL     1     -11.579  12.279  67.506  1.00  0.00    -0.422 A  
HETATM   10  C   UNL     1     -11.380  13.631  67.814  1.00  0.00    -0.336 A  
HETATM   11  C   UNL     1     -11.596  14.098  69.114  1.00  0.00    -0.349 A  
HETATM   12  C   UNL     1     -12.004  13.217  70.116  1.00  0.00    -0.388 A  
HETATM   13  C   UNL     1     -12.216  11.869  69.808  1.00  0.00    -0.174 A  
HETATM   14  C   UNL     1     -11.998  11.394  68.508  1.00  0.00    -0.295 A  
BRANCH  13  15
HETATM   15  S   UNL     1     -12.622  10.723  71.111  1.00  0.00    -0.447 S  
HETATM   16  O   UNL     1     -13.548   9.749  70.571  1.00  0.00    -0.054 OA 
HETATM   17  O   UNL     1     -12.964  11.506  72.281  1.00  0.00    -0.283 OA 
BRANCH  15  18
HETATM   18  N   UNL     1     -11.163   9.965  71.474  1.00  0.00    -0.240 N  
HETATM   19  H   UNL     1     -10.311  10.515  71.578  1.00  0.00     0.000 HD 
BRANCH  18  20
HETATM   20  C   UNL     1     -11.128   8.557  71.634  1.00  0.00    -0.290 A  
HETATM   21  C   UNL     1     -10.955   8.003  72.901  1.00  0.00    -0.398 A  
HETATM   22  C   UNL     1     -10.849   6.619  73.043  1.00  0.00    -0.297 A  
HETATM   23  C   UNL     1     -10.934   5.793  71.922  1.00  0.00    -0.318 A  
HETATM   24  C   UNL     1     -11.125   6.350  70.656  1.00  0.00    -0.376 A  
HETATM   25  C   UNL     1     -11.212   7.734  70.511  1.00  0.00    -0.267 A  
ENDBRANCH  18  20
ENDBRANCH  15  18
ENDBRANCH  13  15
ENDBRANCH   8   9
ENDBRANCH   4   7
TORSDOF 5
ENDMDL
MODEL      150
REMARK 921   NORMALIZED FREE ENERGY PREDICTED BY IDOCK:   -5.26 KCAL/MOL
REMARK 922        TOTAL FREE ENERGY PREDICTED BY IDOCK:   -7.27 KCAL/MOL
REMARK 923 INTER-LIGAND FREE ENERGY PREDICTED BY IDOCK:   -6.62 KCAL/MOL
REMARK 924 INTRA-LIGAND FREE ENERGY PREDICTED BY IDOCK:   -0.65 KCAL/MOL
REMARK 927      BINDING AFFINITY PREDICTED BY RF-SCORE:    0.00 PKD
ROOT
HETATM    1  O   UNL     1     -12.904  13.545  63.208  1.00  0.00    -0.542 OA 
HETATM    2  N   UNL     1     -12.365  14.718  63.760  1.00  0.00    -1.082 N  
HETATM    3  H   UNL     1     -13.494  13.570  62.463  1.00  0.00     0.000 HD 
HETATM    4  C   UNL     1     -11.518  14.682  64.830  1.00  0.00    -0.410 C  
HETATM    5  H   UNL     1     -12.613  15.619  63.352  1.00  0.00     0.000 HD 
HETATM    6  O   UNL     1     -11.107  15.716  65.346  1.00  0.00    -0.325 OA 
ENDROOT
BRANCH   4   7
HETATM    7  C   UNL     1     -11.129  13.338  65.320  1.00  0.00    -0.306 C  
HETATM    8  C   UNL     1     -11.415  12.956  66.573  1.00  0.00    -0.390 C  
BRANCH   8   9
HETATM    9  C   UNL     1     -11.030  11.630  67.055  1.00  0.00    -0.338 A  
HETATM   10  C   UNL     1     -10.489  10.694  66.165  1.00  0.00    -0.260 A  
HETATM   11  C   UNL     1     -10.175   9.404  66.602  1.00  0.00    -0.319 A  
HETATM   12  C   UNL     1     -10.407   9.037  67.928  1.00  0.00    -0.290 A  
HETATM   13  C   UNL     1     -10.935   9.975  68.822  1.00  0.00    -0.202 A  
HETATM   14  C   UNL     1     -11.255  11.269  68.389  1.00  0.00    -0.324 A  
BRANCH  13  15
HETATM   15  S   UNL     1     -11.340   9.474  70.484  1.00  0.00    -0.291 S  
HETATM   16  O   UNL     1     -11.959   8.167  70.413  1.00  0.00    -0.027 OA 
HETATM   17  O   UNL     1     -12.019  10.587  71.115  1.00  0.00    -0.352 OA 
BRANCH  15  18
HETATM   18  N   UNL     1      -9.850   9.345  71.259  1.00  0.00    -0.242 N  
HETATM   19  H   UNL     1      -9.303  10.181  71.462  1.00  0.00     0.000 HD 
BRANCH  18  20
HETATM   20  C   UNL     1      -9.362   8.066  71.625  1.00  0.00    -0.160 A  
HETATM   21  C   UNL     1      -9.585   7.576  72.910  1.00  0.00    -0.247 A  
HETATM   22  C   UNL     1      -9.039   6.348  73.287  1.00  0.00    -0.135 A  
HETATM   23  C   UNL     1      -8.289   5.607  72.374  1.00  0.00    -0.115 A  
HETATM   24  C   UNL     1      -8.081   6.093  71.083  1.00  0.00    -0.121 A  
HETATM   25  C   UNL     1      -8.611   7.328  70.710  1.00  0.00    -0.144 A  
ENDBRANCH  18  20
ENDBRANCH  15  18
ENDBRANCH  13  15
ENDBRANCH   8   9
ENDBRANCH   4   7
TORSDOF 5
ENDMDL
MODEL      151
REMARK 921   NORMALIZED FREE ENERGY PREDICTED BY IDOCK:   -5.23 KCAL/MOL
REMARK 922        TOTAL FREE ENERGY PREDICTED BY IDOCK:   -7.23 KCAL/MOL
REMARK 923 INTER-LIGAND FREE ENERGY PREDICTED BY IDOCK:   -6.74 KCAL/MOL
REMARK 924 INTRA-LIGAND FREE ENERGY PREDICTED BY IDOCK:   -0.49 KCAL/MOL
REMARK 927      BINDING AFFINITY PREDICTED BY RF-SCORE:    0.00 PKD
ROOT
HETATM    1  O   UNL     1      -8.667  20.480  67.360  1.00  0.00    -0.342 OA 
HETATM    2  N   UNL     1      -9.538  20.615  66.267  1.00  0.00    -0.619 N  
HETATM    3  H   UNL     1      -8.095  21.188  67.633  1.00  0.00     0.000 HD 
HETATM    4  C   UNL     1     -10.360  19.598  65.876  1.00  0.00    -0.488 C  
HETATM    5  H   UNL     1      -9.557  21.495  65.752  1.00  0.00     0.000 HD 
HETATM    6  O   UNL     1     -11.066  19.703  64.879  1.00  0.00    -0.209 OA 
ENDROOT
BRANCH   4   7
HETATM    7  C   UNL     1     -10.348  18.377  66.718  1.00  0.00    -0.420 C  
HETATM    8  C   UNL     1     -10.107  17.174  66.178  1.00  0.00    -0.317 C  
BRANCH   8   9
HETATM    9  C   UNL     1     -10.097  15.972  67.010  1.00  0.00    -0.271 A  
HETATM   10  C   UNL     1      -9.413  15.974  68.232  1.00  0.00    -0.206 A  
HETATM   11  C   UNL     1      -9.344  14.812  69.006  1.00  0.00    -0.160 A  
HETATM   12  C   UNL     1      -9.951  13.637  68.560  1.00  0.00    -0.208 A  
HETATM   13  C   UNL     1     -10.646  13.635  67.346  1.00  0.00    -0.259 A  
HETATM   14  C   UNL     1     -10.716  14.797  66.565  1.00  0.00    -0.319 A  
BRANCH  13  15
HETATM   15  S   UNL     1     -11.321  12.108  66.722  1.00  0.00    -0.348 S  
HETATM   16  O   UNL     1     -11.811  12.356  65.383  1.00  0.00    -0.387 OA 
HETATM   17  O   UNL     1     -12.192  11.572  67.747  1.00  0.00    -0.560 OA 
BRANCH  15  18
HETATM   18  N   UNL     1     -10.000  11.065  66.649  1.00  0.00    -0.203 N  
HETATM   19  H   UNL     1      -9.181  11.312  66.095  1.00  0.00     0.000 HD 
BRANCH  18  20
HETATM   20  C   UNL     1     -10.037   9.842  67.364  1.00  0.00    -0.205 A  
HETATM   21  C   UNL     1     -10.447   8.673  66.726  1.00  0.00    -0.298 A  
HETATM   22  C   UNL     1     -10.551   7.486  67.454  1.00  0.00    -0.364 A  
HETATM   23  C   UNL     1     -10.229   7.469  68.812  1.00  0.00    -0.206 A  
HETATM   24  C   UNL     1      -9.803   8.638  69.444  1.00  0.00    -0.184 A  
HETATM   25  C   UNL     1      -9.716   9.828  68.721  1.00  0.00    -0.165 A  
ENDBRANCH  18  20
ENDBRANCH  15  18
ENDBRANCH  13  15
ENDBRANCH   8   9
ENDBRANCH   4   7
TORSDOF 5
ENDMDL
MODEL      152
REMARK 921   NORMALIZED FREE ENERGY PREDICTED BY IDOCK:   -5.21 KCAL/MOL
REMARK 922        TOTAL FREE ENERGY PREDICTED BY IDOCK:   -7.21 KCAL/MOL
REMARK 923 INTER-LIGAND FREE ENERGY PREDICTED BY IDOCK:   -6.75 KCAL/MOL
REMARK 924 INTRA-LIGAND FREE ENERGY PREDICTED BY IDOCK:   -0.46 KCAL/MOL
REMARK 927      BINDING AFFINITY PREDICTED BY RF-SCORE:    0.00 PKD
ROOT
HETATM    1  O   UNL     1     -11.535   7.391  69.134  1.00  0.00    -0.398 OA 
HETATM    2  N   UNL     1     -11.786   7.154  70.495  1.00  0.00    -0.451 N  
HETATM    3  H   UNL     1     -11.546   6.688  68.495  1.00  0.00     0.000 HD 
HETATM    4  C   UNL     1     -11.770   8.164  71.413  1.00  0.00    -0.285 C  
HETATM    5  H   UNL     1     -11.985   6.203  70.805  1.00  0.00     0.000 HD 
HETATM    6  O   UNL     1     -11.923   7.935  72.608  1.00  0.00    -0.327 OA 
ENDROOT
BRANCH   4   7
HETATM    7  C   UNL     1     -11.561   9.534  70.885  1.00  0.00    -0.398 C  
HETATM    8  C   UNL     1     -12.483  10.489  71.076  1.00  0.00    -0.501 C  
BRANCH   8   9
HETATM    9  C   UNL     1     -12.277  11.839  70.554  1.00  0.00    -0.438 A  
HETATM   10  C   UNL     1     -12.613  12.950  71.338  1.00  0.00    -0.319 A  
HETATM   11  C   UNL     1     -12.478  14.243  70.827  1.00  0.00    -0.428 A  
HETATM   12  C   UNL     1     -12.015  14.436  69.525  1.00  0.00    -0.376 A  
HETATM   13  C   UNL     1     -11.666  13.330  68.744  1.00  0.00    -0.329 A  
HETATM   14  C   UNL     1     -11.802  12.030  69.250  1.00  0.00    -0.377 A  
BRANCH  13  15
HETATM   15  S   UNL     1     -11.186  13.570  67.044  1.00  0.00    -0.323 S  
HETATM   16  O   UNL     1     -12.288  14.211  66.359  1.00  0.00    -0.460 OA 
HETATM   17  O   UNL     1     -10.643  12.313  66.569  1.00  0.00    -0.227 OA 
BRANCH  15  18
HETATM   18  N   UNL     1      -9.882  14.633  67.122  1.00  0.00    -0.234 N  
HETATM   19  H   UNL     1      -9.870  15.474  66.546  1.00  0.00     0.000 HD 
BRANCH  18  20
HETATM   20  C   UNL     1      -8.802  14.350  67.995  1.00  0.00    -0.178 A  
HETATM   21  C   UNL     1      -8.326  15.335  68.858  1.00  0.00    -0.196 A  
HETATM   22  C   UNL     1      -7.216  15.073  69.663  1.00  0.00    -0.192 A  
HETATM   23  C   UNL     1      -6.598  13.823  69.615  1.00  0.00    -0.061 A  
HETATM   24  C   UNL     1      -7.087  12.833  68.763  1.00  0.00    -0.089 A  
HETATM   25  C   UNL     1      -8.185  13.100  67.945  1.00  0.00    -0.162 A  
ENDBRANCH  18  20
ENDBRANCH  15  18
ENDBRANCH  13  15
ENDBRANCH   8   9
ENDBRANCH   4   7
TORSDOF 5
ENDMDL
MODEL      153
REMARK 921   NORMALIZED FREE ENERGY PREDICTED BY IDOCK:   -5.20 KCAL/MOL
REMARK 922        TOTAL FREE ENERGY PREDICTED BY IDOCK:   -7.19 KCAL/MOL
REMARK 923 INTER-LIGAND FREE ENERGY PREDICTED BY IDOCK:   -6.47 KCAL/MOL
REMARK 924 INTRA-LIGAND FREE ENERGY PREDICTED BY IDOCK:   -0.72 KCAL/MOL
REMARK 927      BINDING AFFINITY PREDICTED BY RF-SCORE:    0.00 PKD
ROOT
HETATM    1  O   UNL     1     -12.421  14.556  67.829  1.00  0.00    -0.597 OA 
HETATM    2  N   UNL     1     -12.569  14.013  66.542  1.00  0.00    -0.503 N  
HETATM    3  H   UNL     1     -12.938  15.299  68.120  1.00  0.00     0.000 HD 
HETATM    4  C   UNL     1     -11.827  12.947  66.125  1.00  0.00    -0.429 C  
HETATM    5  H   UNL     1     -13.249  14.426  65.904  1.00  0.00     0.000 HD 
HETATM    6  O   UNL     1     -11.917  12.524  64.977  1.00  0.00    -0.386 OA 
ENDROOT
BRANCH   4   7
HETATM    7  C   UNL     1     -10.922  12.338  67.130  1.00  0.00    -0.308 C  
HETATM    8  C   UNL     1      -9.593  12.497  67.040  1.00  0.00    -0.216 C  
BRANCH   8   9
HETATM    9  C   UNL     1      -8.702  11.896  68.031  1.00  0.00    -0.173 A  
HETATM   10  C   UNL     1      -7.402  12.391  68.192  1.00  0.00    -0.111 A  
HETATM   11  C   UNL     1      -6.521  11.784  69.092  1.00  0.00    -0.097 A  
HETATM   12  C   UNL     1      -6.930  10.674  69.831  1.00  0.00    -0.148 A  
HETATM   13  C   UNL     1      -8.232  10.185  69.682  1.00  0.00    -0.165 A  
HETATM   14  C   UNL     1      -9.119  10.788  68.780  1.00  0.00    -0.180 A  
BRANCH  13  15
HETATM   15  S   UNL     1      -8.717   8.699  70.538  1.00  0.00    -0.178 S  
HETATM   16  O   UNL     1      -8.790   9.005  71.951  1.00  0.00    -0.360 OA 
HETATM   17  O   UNL     1      -7.871   7.627  70.051  1.00  0.00    -0.097 OA 
BRANCH  15  18
HETATM   18  N   UNL     1     -10.262   8.365  69.958  1.00  0.00    -0.197 N  
HETATM   19  H   UNL     1     -10.384   7.911  69.053  1.00  0.00     0.000 HD 
BRANCH  18  20
HETATM   20  C   UNL     1     -11.392   8.720  70.737  1.00  0.00    -0.272 A  
HETATM   21  C   UNL     1     -11.807  10.049  70.798  1.00  0.00    -0.435 A  
HETATM   22  C   UNL     1     -12.875  10.403  71.624  1.00  0.00    -0.579 A  
HETATM   23  C   UNL     1     -13.534   9.427  72.372  1.00  0.00    -0.506 A  
HETATM   24  C   UNL     1     -13.126   8.094  72.296  1.00  0.00    -0.204 A  
HETATM   25  C   UNL     1     -12.047   7.742  71.484  1.00  0.00    -0.336 A  
ENDBRANCH  18  20
ENDBRANCH  15  18
ENDBRANCH  13  15
ENDBRANCH   8   9
ENDBRANCH   4   7
TORSDOF 5
ENDMDL
MODEL      154
REMARK 921   NORMALIZED FREE ENERGY PREDICTED BY IDOCK:   -5.19 KCAL/MOL
REMARK 922        TOTAL FREE ENERGY PREDICTED BY IDOCK:   -7.18 KCAL/MOL
REMARK 923 INTER-LIGAND FREE ENERGY PREDICTED BY IDOCK:   -6.57 KCAL/MOL
REMARK 924 INTRA-LIGAND FREE ENERGY PREDICTED BY IDOCK:   -0.61 KCAL/MOL
REMARK 927      BINDING AFFINITY PREDICTED BY RF-SCORE:    0.00 PKD
ROOT
HETATM    1  O   UNL     1     -10.517  17.017  66.580  1.00  0.00    -0.307 OA 
HETATM    2  N   UNL     1     -11.027  17.012  67.888  1.00  0.00    -0.298 N  
HETATM    3  H   UNL     1     -10.208  17.816  66.168  1.00  0.00     0.000 HD 
HETATM    4  C   UNL     1     -11.471  15.866  68.480  1.00  0.00    -0.377 C  
HETATM    5  H   UNL     1     -11.067  17.888  68.409  1.00  0.00     0.000 HD 
HETATM    6  O   UNL     1     -11.976  15.885  69.597  1.00  0.00    -0.335 OA 
ENDROOT
BRANCH   4   7
HETATM    7  C   UNL     1     -11.304  14.614  67.703  1.00  0.00    -0.350 C  
HETATM    8  C   UNL     1     -10.313  13.757  67.989  1.00  0.00    -0.246 C  
BRANCH   8   9
HETATM    9  C   UNL     1     -10.149  12.523  67.221  1.00  0.00    -0.216 A  
HETATM   10  C   UNL     1     -10.078  12.575  65.824  1.00  0.00    -0.278 A  
HETATM   11  C   UNL     1      -9.984  11.397  65.077  1.00  0.00    -0.312 A  
HETATM   12  C   UNL     1      -9.968  10.159  65.720  1.00  0.00    -0.339 A  
HETATM   13  C   UNL     1     -10.026  10.105  67.117  1.00  0.00    -0.196 A  
HETATM   14  C   UNL     1     -10.124  11.282  67.871  1.00  0.00    -0.195 A  
BRANCH  13  15
HETATM   15  S   UNL     1     -10.124   8.523  67.932  1.00  0.00    -0.218 S  
HETATM   16  O   UNL     1      -8.829   8.244  68.514  1.00  0.00    -0.136 OA 
HETATM   17  O   UNL     1     -10.738   7.597  67.002  1.00  0.00    -0.348 OA 
BRANCH  15  18
HETATM   18  N   UNL     1     -11.252   8.754  69.162  1.00  0.00    -0.413 N  
HETATM   19  H   UNL     1     -12.051   9.370  69.017  1.00  0.00     0.000 HD 
BRANCH  18  20
HETATM   20  C   UNL     1     -11.080   8.086  70.400  1.00  0.00    -0.238 A  
HETATM   21  C   UNL     1     -10.513   8.756  71.482  1.00  0.00    -0.373 A  
HETATM   22  C   UNL     1     -10.280   8.072  72.676  1.00  0.00    -0.385 A  
HETATM   23  C   UNL     1     -10.630   6.726  72.790  1.00  0.00    -0.264 A  
HETATM   24  C   UNL     1     -11.213   6.062  71.710  1.00  0.00    -0.333 A  
HETATM   25  C   UNL     1     -11.430   6.740  70.510  1.00  0.00    -0.413 A  
ENDBRANCH  18  20
ENDBRANCH  15  18
ENDBRANCH  13  15
ENDBRANCH   8   9
ENDBRANCH   4   7
TORSDOF 5
ENDMDL
MODEL      155
REMARK 921   NORMALIZED FREE ENERGY PREDICTED BY IDOCK:   -5.19 KCAL/MOL
REMARK 922        TOTAL FREE ENERGY PREDICTED BY IDOCK:   -7.18 KCAL/MOL
REMARK 923 INTER-LIGAND FREE ENERGY PREDICTED BY IDOCK:   -6.74 KCAL/MOL
REMARK 924 INTRA-LIGAND FREE ENERGY PREDICTED BY IDOCK:   -0.44 KCAL/MOL
REMARK 927      BINDING AFFINITY PREDICTED BY RF-SCORE:    0.00 PKD
ROOT
HETATM    1  O   UNL     1     -11.559   6.732  67.260  1.00  0.00    -0.726 OA 
HETATM    2  N   UNL     1     -10.175   6.704  67.027  1.00  0.00    -0.198 N  
HETATM    3  H   UNL     1     -12.039   5.951  67.510  1.00  0.00     0.000 HD 
HETATM    4  C   UNL     1      -9.486   7.827  66.668  1.00  0.00    -0.205 C  
HETATM    5  H   UNL     1      -9.672   5.823  67.128  1.00  0.00     0.000 HD 
HETATM    6  O   UNL     1      -8.290   7.777  66.401  1.00  0.00    -0.119 OA 
ENDROOT
BRANCH   4   7
HETATM    7  C   UNL     1     -10.260   9.091  66.624  1.00  0.00    -0.333 C  
HETATM    8  C   UNL     1     -10.140  10.002  67.601  1.00  0.00    -0.232 C  
BRANCH   8   9
HETATM    9  C   UNL     1     -10.904  11.248  67.557  1.00  0.00    -0.292 A  
HETATM   10  C   UNL     1     -11.263  11.803  66.323  1.00  0.00    -0.370 A  
HETATM   11  C   UNL     1     -11.939  13.025  66.268  1.00  0.00    -0.477 A  
HETATM   12  C   UNL     1     -12.254  13.705  67.445  1.00  0.00    -0.283 A  
HETATM   13  C   UNL     1     -11.908  13.146  68.680  1.00  0.00    -0.328 A  
HETATM   14  C   UNL     1     -11.227  11.923  68.741  1.00  0.00    -0.314 A  
BRANCH  13  15
HETATM   15  S   UNL     1     -12.204  14.068  70.176  1.00  0.00    -0.361 S  
HETATM   16  O   UNL     1     -12.564  13.125  71.213  1.00  0.00    -0.357 OA 
HETATM   17  O   UNL     1     -13.080  15.171  69.835  1.00  0.00     0.007 OA 
BRANCH  15  18
HETATM   18  N   UNL     1     -10.714  14.762  70.544  1.00  0.00    -0.495 N  
HETATM   19  H   UNL     1     -10.253  14.550  71.428  1.00  0.00     0.000 HD 
BRANCH  18  20
HETATM   20  C   UNL     1     -10.106  15.643  69.615  1.00  0.00    -0.291 A  
HETATM   21  C   UNL     1      -8.816  15.389  69.154  1.00  0.00    -0.249 A  
HETATM   22  C   UNL     1      -8.196  16.299  68.296  1.00  0.00    -0.173 A  
HETATM   23  C   UNL     1      -8.873  17.448  67.889  1.00  0.00    -0.237 A  
HETATM   24  C   UNL     1     -10.171  17.691  68.339  1.00  0.00    -0.381 A  
HETATM   25  C   UNL     1     -10.785  16.792  69.211  1.00  0.00    -0.324 A  
ENDBRANCH  18  20
ENDBRANCH  15  18
ENDBRANCH  13  15
ENDBRANCH   8   9
ENDBRANCH   4   7
TORSDOF 5
ENDMDL
MODEL      156
REMARK 921   NORMALIZED FREE ENERGY PREDICTED BY IDOCK:   -5.17 KCAL/MOL
REMARK 922        TOTAL FREE ENERGY PREDICTED BY IDOCK:   -7.16 KCAL/MOL
REMARK 923 INTER-LIGAND FREE ENERGY PREDICTED BY IDOCK:   -6.32 KCAL/MOL
REMARK 924 INTRA-LIGAND FREE ENERGY PREDICTED BY IDOCK:   -0.84 KCAL/MOL
REMARK 927      BINDING AFFINITY PREDICTED BY RF-SCORE:    0.00 PKD
ROOT
HETATM    1  O   UNL     1      -7.637  11.076  69.878  1.00  0.00    -0.349 OA 
HETATM    2  N   UNL     1      -6.803  10.158  69.221  1.00  0.00    -0.057 N  
HETATM    3  H   UNL     1      -7.501  11.311  70.789  1.00  0.00     0.000 HD 
HETATM    4  C   UNL     1      -6.998   9.820  67.914  1.00  0.00    -0.078 C  
HETATM    5  H   UNL     1      -6.031   9.732  69.735  1.00  0.00     0.000 HD 
HETATM    6  O   UNL     1      -6.304   8.967  67.370  1.00  0.00    -0.055 OA 
ENDROOT
BRANCH   4   7
HETATM    7  C   UNL     1      -8.080  10.540  67.200  1.00  0.00    -0.120 C  
HETATM    8  C   UNL     1      -8.364  10.256  65.920  1.00  0.00    -0.145 C  
BRANCH   8   9
HETATM    9  C   UNL     1      -9.431  10.967  65.217  1.00  0.00    -0.257 A  
HETATM   10  C   UNL     1      -9.629  10.751  63.848  1.00  0.00    -0.339 A  
HETATM   11  C   UNL     1     -10.604  11.471  63.153  1.00  0.00    -0.323 A  
HETATM   12  C   UNL     1     -11.384  12.417  63.819  1.00  0.00    -0.536 A  
HETATM   13  C   UNL     1     -11.197  12.625  65.190  1.00  0.00    -0.301 A  
HETATM   14  C   UNL     1     -10.218  11.909  65.891  1.00  0.00    -0.270 A  
BRANCH  13  15
HETATM   15  S   UNL     1     -12.110  13.915  66.015  1.00  0.00    -0.459 S  
HETATM   16  O   UNL     1     -12.082  13.637  67.435  1.00  0.00    -0.380 OA 
HETATM   17  O   UNL     1     -13.366  14.071  65.311  1.00  0.00    -0.741 OA 
BRANCH  15  18
HETATM   18  N   UNL     1     -11.231  15.317  65.703  1.00  0.00    -0.297 N  
HETATM   19  H   UNL     1     -11.430  15.873  64.872  1.00  0.00     0.000 HD 
BRANCH  18  20
HETATM   20  C   UNL     1     -10.213  15.718  66.604  1.00  0.00    -0.285 A  
HETATM   21  C   UNL     1     -10.509  16.593  67.647  1.00  0.00    -0.320 A  
HETATM   22  C   UNL     1      -9.488  17.040  68.487  1.00  0.00    -0.269 A  
HETATM   23  C   UNL     1      -8.179  16.599  68.292  1.00  0.00    -0.200 A  
HETATM   24  C   UNL     1      -7.888  15.709  67.257  1.00  0.00    -0.230 A  
HETATM   25  C   UNL     1      -8.905  15.275  66.406  1.00  0.00    -0.311 A  
ENDBRANCH  18  20
ENDBRANCH  15  18
ENDBRANCH  13  15
ENDBRANCH   8   9
ENDBRANCH   4   7
TORSDOF 5
ENDMDL
MODEL      157
REMARK 921   NORMALIZED FREE ENERGY PREDICTED BY IDOCK:   -5.15 KCAL/MOL
REMARK 922        TOTAL FREE ENERGY PREDICTED BY IDOCK:   -7.13 KCAL/MOL
REMARK 923 INTER-LIGAND FREE ENERGY PREDICTED BY IDOCK:   -6.69 KCAL/MOL
REMARK 924 INTRA-LIGAND FREE ENERGY PREDICTED BY IDOCK:   -0.44 KCAL/MOL
REMARK 927      BINDING AFFINITY PREDICTED BY RF-SCORE:    0.00 PKD
ROOT
HETATM    1  O   UNL     1     -12.447  14.163  63.778  1.00  0.00    -0.910 OA 
HETATM    2  N   UNL     1     -11.538  15.221  63.941  1.00  0.00    -0.655 N  
HETATM    3  H   UNL     1     -12.771  13.911  62.921  1.00  0.00     0.000 HD 
HETATM    4  C   UNL     1     -11.074  15.583  65.172  1.00  0.00    -0.374 C  
HETATM    5  H   UNL     1     -11.217  15.731  63.119  1.00  0.00     0.000 HD 
HETATM    6  O   UNL     1     -10.333  16.551  65.309  1.00  0.00    -0.596 OA 
ENDROOT
BRANCH   4   7
HETATM    7  C   UNL     1     -11.510  14.746  66.316  1.00  0.00    -0.316 C  
HETATM    8  C   UNL     1     -11.255  15.123  67.577  1.00  0.00    -0.331 C  
BRANCH   8   9
HETATM    9  C   UNL     1     -11.685  14.296  68.704  1.00  0.00    -0.380 A  
HETATM   10  C   UNL     1     -12.358  14.882  69.783  1.00  0.00    -0.283 A  
HETATM   11  C   UNL     1     -12.719  14.114  70.893  1.00  0.00    -0.432 A  
HETATM   12  C   UNL     1     -12.403  12.755  70.937  1.00  0.00    -0.356 A  
HETATM   13  C   UNL     1     -11.743  12.164  69.854  1.00  0.00    -0.287 A  
HETATM   14  C   UNL     1     -11.376  12.930  68.740  1.00  0.00    -0.333 A  
BRANCH  13  15
HETATM   15  S   UNL     1     -11.236  10.458  69.959  1.00  0.00    -0.334 S  
HETATM   16  O   UNL     1     -11.936   9.724  68.926  1.00  0.00     0.396 OA 
HETATM   17  O   UNL     1     -11.335  10.065  71.350  1.00  0.00    -0.339 OA 
BRANCH  15  18
HETATM   18  N   UNL     1      -9.589  10.487  69.606  1.00  0.00    -0.420 N  
HETATM   19  H   UNL     1      -9.168  11.317  69.190  1.00  0.00     0.000 HD 
BRANCH  18  20
HETATM   20  C   UNL     1      -8.795   9.349  69.891  1.00  0.00    -0.199 A  
HETATM   21  C   UNL     1      -7.643   9.478  70.664  1.00  0.00    -0.145 A  
HETATM   22  C   UNL     1      -6.825   8.367  70.881  1.00  0.00    -0.047 A  
HETATM   23  C   UNL     1      -7.172   7.129  70.339  1.00  0.00    -0.070 A  
HETATM   24  C   UNL     1      -8.335   6.999  69.579  1.00  0.00    -0.133 A  
HETATM   25  C   UNL     1      -9.143   8.112  69.347  1.00  0.00    -0.148 A  
ENDBRANCH  18  20
ENDBRANCH  15  18
ENDBRANCH  13  15
ENDBRANCH   8   9
ENDBRANCH   4   7
TORSDOF 5
ENDMDL
MODEL      158
REMARK 921   NORMALIZED FREE ENERGY PREDICTED BY IDOCK:   -5.11 KCAL/MOL
REMARK 922        TOTAL FREE ENERGY PREDICTED BY IDOCK:   -7.08 KCAL/MOL
REMARK 923 INTER-LIGAND FREE ENERGY PREDICTED BY IDOCK:   -6.51 KCAL/MOL
REMARK 924 INTRA-LIGAND FREE ENERGY PREDICTED BY IDOCK:   -0.56 KCAL/MOL
REMARK 927      BINDING AFFINITY PREDICTED BY RF-SCORE:    0.00 PKD
ROOT
HETATM    1  O   UNL     1      -9.189  13.636  65.994  1.00  0.00    -0.489 OA 
HETATM    2  N   UNL     1      -9.825  12.807  65.057  1.00  0.00    -0.493 N  
HETATM    3  H   UNL     1      -9.011  14.552  65.811  1.00  0.00     0.000 HD 
HETATM    4  C   UNL     1     -10.080  11.493  65.320  1.00  0.00    -0.269 C  
HETATM    5  H   UNL     1     -10.103  13.197  64.157  1.00  0.00     0.000 HD 
HETATM    6  O   UNL     1     -10.575  10.762  64.469  1.00  0.00    -0.336 OA 
ENDROOT
BRANCH   4   7
HETATM    7  C   UNL     1      -9.732  11.011  66.679  1.00  0.00    -0.226 C  
HETATM    8  C   UNL     1     -10.677  10.524  67.497  1.00  0.00    -0.326 C  
BRANCH   8   9
HETATM    9  C   UNL     1     -10.332  10.050  68.836  1.00  0.00    -0.217 A  
HETATM   10  C   UNL     1      -9.026  10.208  69.318  1.00  0.00    -0.193 A  
HETATM   11  C   UNL     1      -8.670   9.704  70.572  1.00  0.00    -0.158 A  
HETATM   12  C   UNL     1      -9.612   9.031  71.349  1.00  0.00    -0.356 A  
HETATM   13  C   UNL     1     -10.921   8.883  70.877  1.00  0.00    -0.266 A  
HETATM   14  C   UNL     1     -11.283   9.385  69.619  1.00  0.00    -0.100 A  
BRANCH  13  15
HETATM   15  S   UNL     1     -12.092   7.924  71.817  1.00  0.00    -0.317 S  
HETATM   16  O   UNL     1     -12.674   6.941  70.927  1.00  0.00    -0.328 OA 
HETATM   17  O   UNL     1     -12.928   8.858  72.544  1.00  0.00    -0.418 OA 
BRANCH  15  18
HETATM   18  N   UNL     1     -11.158   7.142  72.979  1.00  0.00    -0.457 N  
HETATM   19  H   UNL     1     -10.869   7.636  73.823  1.00  0.00     0.000 HD 
BRANCH  18  20
HETATM   20  C   UNL     1     -10.775   5.793  72.775  1.00  0.00    -0.241 A  
HETATM   21  C   UNL     1     -11.247   4.797  73.629  1.00  0.00    -0.332 A  
HETATM   22  C   UNL     1     -10.809   3.482  73.467  1.00  0.00    -0.321 A  
HETATM   23  C   UNL     1      -9.916   3.163  72.443  1.00  0.00    -0.234 A  
HETATM   24  C   UNL     1      -9.459   4.160  71.580  1.00  0.00    -0.221 A  
HETATM   25  C   UNL     1      -9.882   5.478  71.752  1.00  0.00    -0.216 A  
ENDBRANCH  18  20
ENDBRANCH  15  18
ENDBRANCH  13  15
ENDBRANCH   8   9
ENDBRANCH   4   7
TORSDOF 5
ENDMDL
MODEL      159
REMARK 921   NORMALIZED FREE ENERGY PREDICTED BY IDOCK:   -5.10 KCAL/MOL
REMARK 922        TOTAL FREE ENERGY PREDICTED BY IDOCK:   -7.07 KCAL/MOL
REMARK 923 INTER-LIGAND FREE ENERGY PREDICTED BY IDOCK:   -6.57 KCAL/MOL
REMARK 924 INTRA-LIGAND FREE ENERGY PREDICTED BY IDOCK:   -0.50 KCAL/MOL
REMARK 927      BINDING AFFINITY PREDICTED BY RF-SCORE:    0.00 PKD
ROOT
HETATM    1  O   UNL     1     -14.080   8.122  71.263  1.00  0.00    -0.580 OA 
HETATM    2  N   UNL     1     -13.442   7.151  72.051  1.00  0.00    -0.555 N  
HETATM    3  H   UNL     1     -14.879   8.550  71.549  1.00  0.00     0.000 HD 
HETATM    4  C   UNL     1     -12.295   6.537  71.641  1.00  0.00    -0.260 C  
HETATM    5  H   UNL     1     -13.847   6.897  72.952  1.00  0.00     0.000 HD 
HETATM    6  O   UNL     1     -11.784   5.642  72.306  1.00  0.00    -0.247 OA 
ENDROOT
BRANCH   4   7
HETATM    7  C   UNL     1     -11.710   7.012  70.363  1.00  0.00    -0.326 C  
HETATM    8  C   UNL     1     -10.837   8.029  70.347  1.00  0.00    -0.247 C  
BRANCH   8   9
HETATM    9  C   UNL     1     -10.262   8.498  69.086  1.00  0.00    -0.218 A  
HETATM   10  C   UNL     1      -9.851   7.573  68.119  1.00  0.00    -0.179 A  
HETATM   11  C   UNL     1      -9.244   8.007  66.938  1.00  0.00    -0.191 A  
HETATM   12  C   UNL     1      -9.036   9.369  66.718  1.00  0.00    -0.152 A  
HETATM   13  C   UNL     1      -9.457  10.297  67.676  1.00  0.00    -0.151 A  
HETATM   14  C   UNL     1     -10.064   9.867  68.863  1.00  0.00    -0.194 A  
BRANCH  13  15
HETATM   15  S   UNL     1      -9.087  12.025  67.448  1.00  0.00    -0.185 S  
HETATM   16  O   UNL     1      -7.816  12.294  68.087  1.00  0.00    -0.130 OA 
HETATM   17  O   UNL     1     -10.276  12.771  67.810  1.00  0.00    -0.214 OA 
BRANCH  15  18
HETATM   18  N   UNL     1      -8.923  12.203  65.781  1.00  0.00    -0.423 N  
HETATM   19  H   UNL     1      -8.022  12.041  65.334  1.00  0.00     0.000 HD 
BRANCH  18  20
HETATM   20  C   UNL     1     -10.047  12.581  65.006  1.00  0.00    -0.236 A  
HETATM   21  C   UNL     1     -10.387  13.927  64.878  1.00  0.00    -0.430 A  
HETATM   22  C   UNL     1     -11.537  14.287  64.174  1.00  0.00    -0.215 A  
HETATM   23  C   UNL     1     -12.333  13.304  63.586  1.00  0.00    -0.456 A  
HETATM   24  C   UNL     1     -11.981  11.958  63.701  1.00  0.00    -0.578 A  
HETATM   25  C   UNL     1     -10.842  11.596  64.420  1.00  0.00    -0.399 A  
ENDBRANCH  18  20
ENDBRANCH  15  18
ENDBRANCH  13  15
ENDBRANCH   8   9
ENDBRANCH   4   7
TORSDOF 5
ENDMDL
MODEL      160
REMARK 921   NORMALIZED FREE ENERGY PREDICTED BY IDOCK:   -5.10 KCAL/MOL
REMARK 922        TOTAL FREE ENERGY PREDICTED BY IDOCK:   -7.07 KCAL/MOL
REMARK 923 INTER-LIGAND FREE ENERGY PREDICTED BY IDOCK:   -6.51 KCAL/MOL
REMARK 924 INTRA-LIGAND FREE ENERGY PREDICTED BY IDOCK:   -0.56 KCAL/MOL
REMARK 927      BINDING AFFINITY PREDICTED BY RF-SCORE:    0.00 PKD
ROOT
HETATM    1  O   UNL     1     -11.703  15.866  63.809  1.00  0.00    -1.124 OA 
HETATM    2  N   UNL     1     -12.514  14.743  63.581  1.00  0.00    -1.051 N  
HETATM    3  H   UNL     1     -11.951  16.731  63.504  1.00  0.00     0.000 HD 
HETATM    4  C   UNL     1     -12.158  13.501  64.020  1.00  0.00    -0.441 C  
HETATM    5  H   UNL     1     -13.392  14.859  63.075  1.00  0.00     0.000 HD 
HETATM    6  O   UNL     1     -12.841  12.517  63.756  1.00  0.00    -0.721 OA 
ENDROOT
BRANCH   4   7
HETATM    7  C   UNL     1     -10.915  13.416  64.825  1.00  0.00    -0.371 C  
HETATM    8  C   UNL     1     -10.970  13.285  66.158  1.00  0.00    -0.292 C  
BRANCH   8   9
HETATM    9  C   UNL     1      -9.744  13.202  66.950  1.00  0.00    -0.243 A  
HETATM   10  C   UNL     1      -8.808  14.242  66.900  1.00  0.00    -0.234 A  
HETATM   11  C   UNL     1      -7.605  14.145  67.604  1.00  0.00    -0.193 A  
HETATM   12  C   UNL     1      -7.324  13.005  68.358  1.00  0.00    -0.116 A  
HETATM   13  C   UNL     1      -8.264  11.970  68.421  1.00  0.00    -0.151 A  
HETATM   14  C   UNL     1      -9.470  12.061  67.715  1.00  0.00    -0.190 A  
BRANCH  13  15
HETATM   15  S   UNL     1      -7.857  10.466  69.287  1.00  0.00    -0.152 S  
HETATM   16  O   UNL     1      -9.096   9.864  69.734  1.00  0.00    -0.212 OA 
HETATM   17  O   UNL     1      -6.802  10.784  70.228  1.00  0.00    -0.234 OA 
BRANCH  15  18
HETATM   18  N   UNL     1      -7.149   9.485  68.116  1.00  0.00    -0.079 N  
HETATM   19  H   UNL     1      -6.343   9.817  67.587  1.00  0.00     0.000 HD 
BRANCH  18  20
HETATM   20  C   UNL     1      -7.683   8.195  67.870  1.00  0.00    -0.114 A  
HETATM   21  C   UNL     1      -8.445   7.961  66.727  1.00  0.00    -0.129 A  
HETATM   22  C   UNL     1      -9.028   6.709  66.529  1.00  0.00    -0.155 A  
HETATM   23  C   UNL     1      -8.834   5.691  67.463  1.00  0.00    -0.105 A  
HETATM   24  C   UNL     1      -8.056   5.924  68.598  1.00  0.00    -0.103 A  
HETATM   25  C   UNL     1      -7.488   7.180  68.807  1.00  0.00    -0.102 A  
ENDBRANCH  18  20
ENDBRANCH  15  18
ENDBRANCH  13  15
ENDBRANCH   8   9
ENDBRANCH   4   7
TORSDOF 5
ENDMDL
MODEL      161
REMARK 921   NORMALIZED FREE ENERGY PREDICTED BY IDOCK:   -5.10 KCAL/MOL
REMARK 922        TOTAL FREE ENERGY PREDICTED BY IDOCK:   -7.06 KCAL/MOL
REMARK 923 INTER-LIGAND FREE ENERGY PREDICTED BY IDOCK:   -6.53 KCAL/MOL
REMARK 924 INTRA-LIGAND FREE ENERGY PREDICTED BY IDOCK:   -0.53 KCAL/MOL
REMARK 927      BINDING AFFINITY PREDICTED BY RF-SCORE:    0.00 PKD
ROOT
HETATM    1  O   UNL     1     -11.756  15.823  72.461  1.00  0.00    -0.435 OA 
HETATM    2  N   UNL     1     -11.841  16.321  71.151  1.00  0.00    -0.617 N  
HETATM    3  H   UNL     1     -11.846  16.392  73.218  1.00  0.00     0.000 HD 
HETATM    4  C   UNL     1     -11.711  15.506  70.065  1.00  0.00    -0.346 C  
HETATM    5  H   UNL     1     -12.002  17.318  71.008  1.00  0.00     0.000 HD 
HETATM    6  O   UNL     1     -11.719  15.962  68.927  1.00  0.00    -0.390 OA 
ENDROOT
BRANCH   4   7
HETATM    7  C   UNL     1     -11.566  14.056  70.341  1.00  0.00    -0.206 C  
HETATM    8  C   UNL     1     -12.643  13.293  70.580  1.00  0.00    -0.305 C  
BRANCH   8   9
HETATM    9  C   UNL     1     -12.499  11.864  70.853  1.00  0.00    -0.397 A  
HETATM   10  C   UNL     1     -13.284  11.259  71.843  1.00  0.00    -0.491 A  
HETATM   11  C   UNL     1     -13.110   9.908  72.155  1.00  0.00    -0.497 A  
HETATM   12  C   UNL     1     -12.146   9.153  71.486  1.00  0.00    -0.422 A  
HETATM   13  C   UNL     1     -11.370   9.751  70.488  1.00  0.00    -0.314 A  
HETATM   14  C   UNL     1     -11.537  11.106  70.173  1.00  0.00    -0.410 A  
BRANCH  13  15
HETATM   15  S   UNL     1     -10.060   8.819  69.717  1.00  0.00    -0.202 S  
HETATM   16  O   UNL     1      -9.814   9.398  68.413  1.00  0.00    -0.153 OA 
HETATM   17  O   UNL     1     -10.390   7.415  69.858  1.00  0.00    -0.207 OA 
BRANCH  15  18
HETATM   18  N   UNL     1      -8.722   9.079  70.706  1.00  0.00    -0.206 N  
HETATM   19  H   UNL     1      -8.156   9.919  70.594  1.00  0.00     0.000 HD 
BRANCH  18  20
HETATM   20  C   UNL     1      -8.388   8.119  71.694  1.00  0.00    -0.131 A  
HETATM   21  C   UNL     1      -7.458   7.121  71.412  1.00  0.00    -0.080 A  
HETATM   22  C   UNL     1      -7.189   6.136  72.364  1.00  0.00    -0.085 A  
HETATM   23  C   UNL     1      -7.836   6.163  73.600  1.00  0.00    -0.094 A  
HETATM   24  C   UNL     1      -8.755   7.174  73.886  1.00  0.00    -0.206 A  
HETATM   25  C   UNL     1      -9.038   8.148  72.928  1.00  0.00    -0.337 A  
ENDBRANCH  18  20
ENDBRANCH  15  18
ENDBRANCH  13  15
ENDBRANCH   8   9
ENDBRANCH   4   7
TORSDOF 5
ENDMDL
MODEL      162
REMARK 921   NORMALIZED FREE ENERGY PREDICTED BY IDOCK:   -5.09 KCAL/MOL
REMARK 922        TOTAL FREE ENERGY PREDICTED BY IDOCK:   -7.05 KCAL/MOL
REMARK 923 INTER-LIGAND FREE ENERGY PREDICTED BY IDOCK:   -6.96 KCAL/MOL
REMARK 924 INTRA-LIGAND FREE ENERGY PREDICTED BY IDOCK:   -0.09 KCAL/MOL
REMARK 927      BINDING AFFINITY PREDICTED BY RF-SCORE:    0.00 PKD
ROOT
HETATM    1  O   UNL     1     -11.294   4.396  64.592  1.00  0.00    -0.856 OA 
HETATM    2  N   UNL     1     -10.205   3.790  65.238  1.00  0.00    -0.419 N  
HETATM    3  H   UNL     1     -11.925   3.888  64.095  1.00  0.00     0.000 HD 
HETATM    4  C   UNL     1      -9.299   4.519  65.952  1.00  0.00    -0.159 C  
HETATM    5  H   UNL     1     -10.089   2.779  65.173  1.00  0.00     0.000 HD 
HETATM    6  O   UNL     1      -8.316   3.987  66.456  1.00  0.00    -0.104 OA 
ENDROOT
BRANCH   4   7
HETATM    7  C   UNL     1      -9.575   5.970  66.082  1.00  0.00    -0.091 C  
HETATM    8  C   UNL     1     -10.061   6.476  67.225  1.00  0.00    -0.212 C  
BRANCH   8   9
HETATM    9  C   UNL     1     -10.332   7.907  67.352  1.00  0.00    -0.349 A  
HETATM   10  C   UNL     1      -9.896   8.791  66.357  1.00  0.00    -0.352 A  
HETATM   11  C   UNL     1     -10.095  10.167  66.498  1.00  0.00    -0.296 A  
HETATM   12  C   UNL     1     -10.725  10.671  67.636  1.00  0.00    -0.315 A  
HETATM   13  C   UNL     1     -11.174   9.789  68.625  1.00  0.00    -0.015 A  
HETATM   14  C   UNL     1     -10.974   8.408  68.491  1.00  0.00     0.157 A  
BRANCH  13  15
HETATM   15  S   UNL     1     -11.872  10.438  70.131  1.00  0.00    -0.293 S  
HETATM   16  O   UNL     1     -11.161   9.841  71.242  1.00  0.00    -0.355 OA 
HETATM   17  O   UNL     1     -13.312  10.326  70.021  1.00  0.00     0.066 OA 
BRANCH  15  18
HETATM   18  N   UNL     1     -11.534  12.088  70.073  1.00  0.00    -0.522 N  
HETATM   19  H   UNL     1     -10.706  12.425  69.584  1.00  0.00     0.000 HD 
BRANCH  18  20
HETATM   20  C   UNL     1     -12.410  13.002  70.710  1.00  0.00    -0.310 A  
HETATM   21  C   UNL     1     -12.473  14.325  70.277  1.00  0.00    -0.422 A  
HETATM   22  C   UNL     1     -13.283  15.238  70.955  1.00  0.00    -0.506 A  
HETATM   23  C   UNL     1     -14.039  14.821  72.051  1.00  0.00    -0.604 A  
HETATM   24  C   UNL     1     -13.987  13.492  72.472  1.00  0.00    -0.557 A  
HETATM   25  C   UNL     1     -13.164  12.583  71.806  1.00  0.00    -0.444 A  
ENDBRANCH  18  20
ENDBRANCH  15  18
ENDBRANCH  13  15
ENDBRANCH   8   9
ENDBRANCH   4   7
TORSDOF 5
ENDMDL
MODEL      163
REMARK 921   NORMALIZED FREE ENERGY PREDICTED BY IDOCK:   -5.08 KCAL/MOL
REMARK 922        TOTAL FREE ENERGY PREDICTED BY IDOCK:   -7.04 KCAL/MOL
REMARK 923 INTER-LIGAND FREE ENERGY PREDICTED BY IDOCK:   -6.51 KCAL/MOL
REMARK 924 INTRA-LIGAND FREE ENERGY PREDICTED BY IDOCK:   -0.53 KCAL/MOL
REMARK 927      BINDING AFFINITY PREDICTED BY RF-SCORE:    0.00 PKD
ROOT
HETATM    1  O   UNL     1     -14.247   9.666  72.597  1.00  0.00    -0.664 OA 
HETATM    2  N   UNL     1     -13.881   8.310  72.596  1.00  0.00    -0.600 N  
HETATM    3  H   UNL     1     -14.993   9.981  73.095  1.00  0.00     0.000 HD 
HETATM    4  C   UNL     1     -12.810   7.858  71.881  1.00  0.00    -0.308 C  
HETATM    5  H   UNL     1     -14.429   7.647  73.143  1.00  0.00     0.000 HD 
HETATM    6  O   UNL     1     -12.540   6.663  71.833  1.00  0.00    -0.350 OA 
ENDROOT
BRANCH   4   7
HETATM    7  C   UNL     1     -12.003   8.886  71.179  1.00  0.00    -0.344 C  
HETATM    8  C   UNL     1     -10.902   8.542  70.495  1.00  0.00    -0.252 C  
BRANCH   8   9
HETATM    9  C   UNL     1     -10.107   9.556  69.803  1.00  0.00    -0.238 A  
HETATM   10  C   UNL     1      -8.740   9.681  70.082  1.00  0.00    -0.263 A  
HETATM   11  C   UNL     1      -7.984  10.686  69.474  1.00  0.00    -0.079 A  
HETATM   12  C   UNL     1      -8.589  11.579  68.588  1.00  0.00    -0.109 A  
HETATM   13  C   UNL     1      -9.951  11.448  68.298  1.00  0.00    -0.198 A  
HETATM   14  C   UNL     1     -10.715  10.444  68.907  1.00  0.00    -0.255 A  
BRANCH  13  15
HETATM   15  S   UNL     1     -10.748  12.657  67.259  1.00  0.00    -0.241 S  
HETATM   16  O   UNL     1     -10.820  13.899  68.000  1.00  0.00    -0.239 OA 
HETATM   17  O   UNL     1     -11.944  12.041  66.721  1.00  0.00    -0.616 OA 
BRANCH  15  18
HETATM   18  N   UNL     1      -9.701  12.845  65.954  1.00  0.00    -0.395 N  
HETATM   19  H   UNL     1      -9.133  13.687  65.868  1.00  0.00     0.000 HD 
BRANCH  18  20
HETATM   20  C   UNL     1      -9.616  11.824  64.974  1.00  0.00    -0.130 A  
HETATM   21  C   UNL     1      -8.915  10.651  65.248  1.00  0.00    -0.209 A  
HETATM   22  C   UNL     1      -8.774   9.681  64.255  1.00  0.00    -0.229 A  
HETATM   23  C   UNL     1      -9.348   9.879  62.998  1.00  0.00    -0.226 A  
HETATM   24  C   UNL     1     -10.063  11.047  62.733  1.00  0.00    -0.120 A  
HETATM   25  C   UNL     1     -10.190  12.025  63.719  1.00  0.00    -0.447 A  
ENDBRANCH  18  20
ENDBRANCH  15  18
ENDBRANCH  13  15
ENDBRANCH   8   9
ENDBRANCH   4   7
TORSDOF 5
ENDMDL
MODEL      164
REMARK 921   NORMALIZED FREE ENERGY PREDICTED BY IDOCK:   -5.07 KCAL/MOL
REMARK 922        TOTAL FREE ENERGY PREDICTED BY IDOCK:   -7.03 KCAL/MOL
REMARK 923 INTER-LIGAND FREE ENERGY PREDICTED BY IDOCK:   -6.76 KCAL/MOL
REMARK 924 INTRA-LIGAND FREE ENERGY PREDICTED BY IDOCK:   -0.27 KCAL/MOL
REMARK 927      BINDING AFFINITY PREDICTED BY RF-SCORE:    0.00 PKD
ROOT
HETATM    1  O   UNL     1     -10.270  11.460  66.147  1.00  0.00    -0.224 OA 
HETATM    2  N   UNL     1      -8.899  11.761  66.093  1.00  0.00    -0.350 N  
HETATM    3  H   UNL     1     -10.837  11.583  65.394  1.00  0.00     0.000 HD 
HETATM    4  C   UNL     1      -8.085  11.585  67.174  1.00  0.00    -0.159 C  
HETATM    5  H   UNL     1      -8.503  12.119  65.225  1.00  0.00     0.000 HD 
HETATM    6  O   UNL     1      -6.904  11.914  67.136  1.00  0.00    -0.132 OA 
ENDROOT
BRANCH   4   7
HETATM    7  C   UNL     1      -8.705  10.978  68.377  1.00  0.00    -0.150 C  
HETATM    8  C   UNL     1      -8.035  10.079  69.112  1.00  0.00    -0.116 C  
BRANCH   8   9
HETATM    9  C   UNL     1      -8.647   9.481  70.298  1.00  0.00    -0.258 A  
HETATM   10  C   UNL     1      -7.837   8.948  71.308  1.00  0.00    -0.163 A  
HETATM   11  C   UNL     1      -8.412   8.318  72.416  1.00  0.00    -0.252 A  
HETATM   12  C   UNL     1      -9.799   8.210  72.519  1.00  0.00    -0.363 A  
HETATM   13  C   UNL     1     -10.611   8.754  71.518  1.00  0.00    -0.309 A  
HETATM   14  C   UNL     1     -10.040   9.383  70.403  1.00  0.00    -0.310 A  
BRANCH  13  15
HETATM   15  S   UNL     1     -12.375   8.514  71.590  1.00  0.00    -0.342 S  
HETATM   16  O   UNL     1     -12.812   8.838  72.931  1.00  0.00    -0.313 OA 
HETATM   17  O   UNL     1     -12.657   7.217  71.008  1.00  0.00    -0.357 OA 
BRANCH  15  18
HETATM   18  N   UNL     1     -12.998   9.647  70.510  1.00  0.00    -0.537 N  
HETATM   19  H   UNL     1     -13.495   9.341  69.674  1.00  0.00     0.000 HD 
BRANCH  18  20
HETATM   20  C   UNL     1     -12.826  11.029  70.773  1.00  0.00    -0.266 A  
HETATM   21  C   UNL     1     -13.382  11.596  71.918  1.00  0.00    -0.403 A  
HETATM   22  C   UNL     1     -13.271  12.971  72.134  1.00  0.00    -0.558 A  
HETATM   23  C   UNL     1     -12.591  13.770  71.215  1.00  0.00    -0.444 A  
HETATM   24  C   UNL     1     -12.021  13.196  70.078  1.00  0.00    -0.391 A  
HETATM   25  C   UNL     1     -12.147  11.826  69.852  1.00  0.00    -0.359 A  
ENDBRANCH  18  20
ENDBRANCH  15  18
ENDBRANCH  13  15
ENDBRANCH   8   9
ENDBRANCH   4   7
TORSDOF 5
ENDMDL
MODEL      165
REMARK 921   NORMALIZED FREE ENERGY PREDICTED BY IDOCK:   -5.07 KCAL/MOL
REMARK 922        TOTAL FREE ENERGY PREDICTED BY IDOCK:   -7.02 KCAL/MOL
REMARK 923 INTER-LIGAND FREE ENERGY PREDICTED BY IDOCK:   -6.32 KCAL/MOL
REMARK 924 INTRA-LIGAND FREE ENERGY PREDICTED BY IDOCK:   -0.71 KCAL/MOL
REMARK 927      BINDING AFFINITY PREDICTED BY RF-SCORE:    0.00 PKD
ROOT
HETATM    1  O   UNL     1     -10.823   7.362  66.609  1.00  0.00    -0.472 OA 
HETATM    2  N   UNL     1      -9.488   7.152  66.232  1.00  0.00    -0.354 N  
HETATM    3  H   UNL     1     -11.309   6.714  67.107  1.00  0.00     0.000 HD 
HETATM    4  C   UNL     1      -8.791   8.082  65.517  1.00  0.00    -0.061 C  
HETATM    5  H   UNL     1      -9.027   6.282  66.498  1.00  0.00     0.000 HD 
HETATM    6  O   UNL     1      -7.647   7.860  65.135  1.00  0.00    -0.081 OA 
ENDROOT
BRANCH   4   7
HETATM    7  C   UNL     1      -9.489   9.361  65.239  1.00  0.00    -0.296 C  
HETATM    8  C   UNL     1      -8.978  10.526  65.660  1.00  0.00    -0.200 C  
BRANCH   8   9
HETATM    9  C   UNL     1      -9.668  11.786  65.385  1.00  0.00    -0.242 A  
HETATM   10  C   UNL     1     -10.536  11.882  64.291  1.00  0.00    -0.370 A  
HETATM   11  C   UNL     1     -11.152  13.098  63.982  1.00  0.00    -0.395 A  
HETATM   12  C   UNL     1     -10.900  14.228  64.760  1.00  0.00    -0.420 A  
HETATM   13  C   UNL     1     -10.043  14.132  65.862  1.00  0.00    -0.321 A  
HETATM   14  C   UNL     1      -9.420  12.917  66.174  1.00  0.00    -0.161 A  
BRANCH  13  15
HETATM   15  S   UNL     1      -9.629  15.600  66.784  1.00  0.00    -0.254 S  
HETATM   16  O   UNL     1     -10.809  16.438  66.835  1.00  0.00    -0.249 OA 
HETATM   17  O   UNL     1      -8.380  16.104  66.252  1.00  0.00    -0.310 OA 
BRANCH  15  18
HETATM   18  N   UNL     1      -9.276  15.038  68.332  1.00  0.00    -0.186 N  
HETATM   19  H   UNL     1      -8.331  14.734  68.564  1.00  0.00     0.000 HD 
BRANCH  18  20
HETATM   20  C   UNL     1     -10.302  14.990  69.308  1.00  0.00    -0.246 A  
HETATM   21  C   UNL     1     -11.228  13.949  69.296  1.00  0.00    -0.296 A  
HETATM   22  C   UNL     1     -12.279  13.947  70.215  1.00  0.00    -0.428 A  
HETATM   23  C   UNL     1     -12.391  14.975  71.152  1.00  0.00    -0.391 A  
HETATM   24  C   UNL     1     -11.453  16.007  71.171  1.00  0.00    -0.470 A  
HETATM   25  C   UNL     1     -10.412  16.020  70.242  1.00  0.00    -0.115 A  
ENDBRANCH  18  20
ENDBRANCH  15  18
ENDBRANCH  13  15
ENDBRANCH   8   9
ENDBRANCH   4   7
TORSDOF 5
ENDMDL
MODEL      166
REMARK 921   NORMALIZED FREE ENERGY PREDICTED BY IDOCK:   -5.07 KCAL/MOL
REMARK 922        TOTAL FREE ENERGY PREDICTED BY IDOCK:   -7.02 KCAL/MOL
REMARK 923 INTER-LIGAND FREE ENERGY PREDICTED BY IDOCK:   -7.15 KCAL/MOL
REMARK 924 INTRA-LIGAND FREE ENERGY PREDICTED BY IDOCK:    0.13 KCAL/MOL
REMARK 927      BINDING AFFINITY PREDICTED BY RF-SCORE:    0.00 PKD
ROOT
HETATM    1  O   UNL     1      -5.309  16.471  66.850  1.00  0.00    -0.303 OA 
HETATM    2  N   UNL     1      -5.700  17.681  66.256  1.00  0.00    -0.200 N  
HETATM    3  H   UNL     1      -4.401  16.189  66.858  1.00  0.00     0.000 HD 
HETATM    4  C   UNL     1      -7.003  18.085  66.244  1.00  0.00    -0.264 C  
HETATM    5  H   UNL     1      -4.992  18.273  65.821  1.00  0.00     0.000 HD 
HETATM    6  O   UNL     1      -7.342  19.111  65.663  1.00  0.00    -0.423 OA 
ENDROOT
BRANCH   4   7
HETATM    7  C   UNL     1      -7.969  17.224  66.968  1.00  0.00    -0.242 C  
HETATM    8  C   UNL     1      -9.016  16.682  66.330  1.00  0.00    -0.340 C  
BRANCH   8   9
HETATM    9  C   UNL     1      -9.968  15.833  67.045  1.00  0.00    -0.240 A  
HETATM   10  C   UNL     1     -10.817  16.394  68.008  1.00  0.00    -0.342 A  
HETATM   11  C   UNL     1     -11.687  15.583  68.742  1.00  0.00    -0.372 A  
HETATM   12  C   UNL     1     -11.710  14.205  68.525  1.00  0.00    -0.380 A  
HETATM   13  C   UNL     1     -10.872  13.644  67.555  1.00  0.00    -0.264 A  
HETATM   14  C   UNL     1      -9.996  14.452  66.818  1.00  0.00    -0.265 A  
BRANCH  13  15
HETATM   15  S   UNL     1     -10.817  11.873  67.359  1.00  0.00    -0.257 S  
HETATM   16  O   UNL     1     -10.158  11.587  66.103  1.00  0.00    -0.215 OA 
HETATM   17  O   UNL     1     -12.147  11.368  67.635  1.00  0.00    -0.630 OA 
BRANCH  15  18
HETATM   18  N   UNL     1      -9.850  11.340  68.632  1.00  0.00    -0.203 N  
HETATM   19  H   UNL     1      -8.843  11.496  68.611  1.00  0.00     0.000 HD 
BRANCH  18  20
HETATM   20  C   UNL     1     -10.448  10.675  69.731  1.00  0.00    -0.143 A  
HETATM   21  C   UNL     1      -9.847   9.538  70.268  1.00  0.00    -0.313 A  
HETATM   22  C   UNL     1     -10.478   8.845  71.303  1.00  0.00    -0.357 A  
HETATM   23  C   UNL     1     -11.697   9.300  71.808  1.00  0.00    -0.456 A  
HETATM   24  C   UNL     1     -12.287  10.449  71.279  1.00  0.00    -0.507 A  
HETATM   25  C   UNL     1     -11.666  11.131  70.233  1.00  0.00    -0.431 A  
ENDBRANCH  18  20
ENDBRANCH  15  18
ENDBRANCH  13  15
ENDBRANCH   8   9
ENDBRANCH   4   7
TORSDOF 5
ENDMDL
MODEL      167
REMARK 921   NORMALIZED FREE ENERGY PREDICTED BY IDOCK:   -5.05 KCAL/MOL
REMARK 922        TOTAL FREE ENERGY PREDICTED BY IDOCK:   -7.00 KCAL/MOL
REMARK 923 INTER-LIGAND FREE ENERGY PREDICTED BY IDOCK:   -6.81 KCAL/MOL
REMARK 924 INTRA-LIGAND FREE ENERGY PREDICTED BY IDOCK:   -0.19 KCAL/MOL
REMARK 927      BINDING AFFINITY PREDICTED BY RF-SCORE:    0.00 PKD
ROOT
HETATM    1  O   UNL     1      -8.989  19.014  65.758  1.00  0.00    -0.388 OA 
HETATM    2  N   UNL     1      -9.556  19.633  66.884  1.00  0.00    -0.336 N  
HETATM    3  H   UNL     1      -8.883  19.477  64.935  1.00  0.00     0.000 HD 
HETATM    4  C   UNL     1      -9.708  18.969  68.066  1.00  0.00    -0.340 C  
HETATM    5  H   UNL     1      -9.862  20.604  66.816  1.00  0.00     0.000 HD 
HETATM    6  O   UNL     1     -10.266  19.498  69.022  1.00  0.00    -0.401 OA 
ENDROOT
BRANCH   4   7
HETATM    7  C   UNL     1      -9.164  17.591  68.124  1.00  0.00    -0.277 C  
HETATM    8  C   UNL     1      -9.965  16.530  67.952  1.00  0.00    -0.245 C  
BRANCH   8   9
HETATM    9  C   UNL     1      -9.427  15.171  68.011  1.00  0.00    -0.199 A  
HETATM   10  C   UNL     1      -8.084  14.938  67.691  1.00  0.00    -0.180 A  
HETATM   11  C   UNL     1      -7.575  13.636  67.684  1.00  0.00    -0.186 A  
HETATM   12  C   UNL     1      -8.406  12.558  67.988  1.00  0.00    -0.171 A  
HETATM   13  C   UNL     1      -9.745  12.789  68.321  1.00  0.00    -0.216 A  
HETATM   14  C   UNL     1     -10.261  14.091  68.327  1.00  0.00    -0.249 A  
BRANCH  13  15
HETATM   15  S   UNL     1     -10.834  11.405  68.595  1.00  0.00    -0.223 S  
HETATM   16  O   UNL     1     -10.082  10.194  68.344  1.00  0.00    -0.155 OA 
HETATM   17  O   UNL     1     -12.065  11.679  67.883  1.00  0.00    -0.613 OA 
BRANCH  15  18
HETATM   18  N   UNL     1     -11.221  11.493  70.232  1.00  0.00    -0.437 N  
HETATM   19  H   UNL     1     -10.963  12.315  70.777  1.00  0.00     0.000 HD 
BRANCH  18  20
HETATM   20  C   UNL     1     -11.907  10.416  70.846  1.00  0.00    -0.377 A  
HETATM   21  C   UNL     1     -11.329   9.148  70.879  1.00  0.00    -0.359 A  
HETATM   22  C   UNL     1     -12.041   8.076  71.419  1.00  0.00    -0.332 A  
HETATM   23  C   UNL     1     -13.319   8.278  71.940  1.00  0.00    -0.364 A  
HETATM   24  C   UNL     1     -13.889   9.551  71.920  1.00  0.00    -0.338 A  
HETATM   25  C   UNL     1     -13.186  10.620  71.364  1.00  0.00    -0.420 A  
ENDBRANCH  18  20
ENDBRANCH  15  18
ENDBRANCH  13  15
ENDBRANCH   8   9
ENDBRANCH   4   7
TORSDOF 5
ENDMDL
MODEL      168
REMARK 921   NORMALIZED FREE ENERGY PREDICTED BY IDOCK:   -5.02 KCAL/MOL
REMARK 922        TOTAL FREE ENERGY PREDICTED BY IDOCK:   -6.96 KCAL/MOL
REMARK 923 INTER-LIGAND FREE ENERGY PREDICTED BY IDOCK:   -6.49 KCAL/MOL
REMARK 924 INTRA-LIGAND FREE ENERGY PREDICTED BY IDOCK:   -0.47 KCAL/MOL
REMARK 927      BINDING AFFINITY PREDICTED BY RF-SCORE:    0.00 PKD
ROOT
HETATM    1  O   UNL     1      -9.145   9.857  63.323  1.00  0.00    -0.247 OA 
HETATM    2  N   UNL     1      -9.943  10.910  62.848  1.00  0.00    -0.620 N  
HETATM    3  H   UNL     1      -8.551   9.385  62.752  1.00  0.00     0.000 HD 
HETATM    4  C   UNL     1     -10.796  11.589  63.669  1.00  0.00    -0.415 C  
HETATM    5  H   UNL     1      -9.882  11.176  61.865  1.00  0.00     0.000 HD 
HETATM    6  O   UNL     1     -11.537  12.462  63.229  1.00  0.00    -0.449 OA 
ENDROOT
BRANCH   4   7
HETATM    7  C   UNL     1     -10.772  11.213  65.103  1.00  0.00    -0.279 C  
HETATM    8  C   UNL     1     -11.508  11.887  66.000  1.00  0.00    -0.344 C  
BRANCH   8   9
HETATM    9  C   UNL     1     -11.482  11.516  67.414  1.00  0.00    -0.349 A  
HETATM   10  C   UNL     1     -11.866  12.447  68.387  1.00  0.00    -0.361 A  
HETATM   11  C   UNL     1     -11.787  12.125  69.744  1.00  0.00    -0.397 A  
HETATM   12  C   UNL     1     -11.316  10.873  70.140  1.00  0.00    -0.367 A  
HETATM   13  C   UNL     1     -10.944   9.936  69.171  1.00  0.00    -0.200 A  
HETATM   14  C   UNL     1     -11.019  10.254  67.808  1.00  0.00    -0.360 A  
BRANCH  13  15
HETATM   15  S   UNL     1     -10.233   8.382  69.677  1.00  0.00    -0.213 S  
HETATM   16  O   UNL     1      -8.793   8.521  69.641  1.00  0.00    -0.134 OA 
HETATM   17  O   UNL     1     -10.899   7.338  68.924  1.00  0.00    -0.180 OA 
BRANCH  15  18
HETATM   18  N   UNL     1     -10.737   8.190  71.273  1.00  0.00    -0.223 N  
HETATM   19  H   UNL     1     -11.149   8.973  71.779  1.00  0.00     0.000 HD 
BRANCH  18  20
HETATM   20  C   UNL     1     -10.583   6.931  71.906  1.00  0.00    -0.211 A  
HETATM   21  C   UNL     1     -11.707   6.193  72.273  1.00  0.00    -0.352 A  
HETATM   22  C   UNL     1     -11.549   4.989  72.962  1.00  0.00    -0.299 A  
HETATM   23  C   UNL     1     -10.271   4.519  73.265  1.00  0.00    -0.223 A  
HETATM   24  C   UNL     1      -9.148   5.252  72.882  1.00  0.00    -0.125 A  
HETATM   25  C   UNL     1      -9.304   6.465  72.210  1.00  0.00    -0.141 A  
ENDBRANCH  18  20
ENDBRANCH  15  18
ENDBRANCH  13  15
ENDBRANCH   8   9
ENDBRANCH   4   7
TORSDOF 5
ENDMDL
MODEL      169
REMARK 921   NORMALIZED FREE ENERGY PREDICTED BY IDOCK:   -5.02 KCAL/MOL
REMARK 922        TOTAL FREE ENERGY PREDICTED BY IDOCK:   -6.96 KCAL/MOL
REMARK 923 INTER-LIGAND FREE ENERGY PREDICTED BY IDOCK:   -6.32 KCAL/MOL
REMARK 924 INTRA-LIGAND FREE ENERGY PREDICTED BY IDOCK:   -0.64 KCAL/MOL
REMARK 927      BINDING AFFINITY PREDICTED BY RF-SCORE:    0.00 PKD
ROOT
HETATM    1  O   UNL     1      -9.465   6.863  69.908  1.00  0.00    -0.157 OA 
HETATM    2  N   UNL     1     -10.302   6.409  68.875  1.00  0.00    -0.183 N  
HETATM    3  H   UNL     1      -9.255   6.316  70.656  1.00  0.00     0.000 HD 
HETATM    4  C   UNL     1     -10.603   7.194  67.800  1.00  0.00    -0.225 C  
HETATM    5  H   UNL     1     -10.694   5.470  68.930  1.00  0.00     0.000 HD 
HETATM    6  O   UNL     1     -11.388   6.813  66.939  1.00  0.00    -0.318 OA 
ENDROOT
BRANCH   4   7
HETATM    7  C   UNL     1      -9.931   8.515  67.737  1.00  0.00    -0.241 C  
HETATM    8  C   UNL     1     -10.647   9.644  67.639  1.00  0.00    -0.334 C  
BRANCH   8   9
HETATM    9  C   UNL     1      -9.983  10.945  67.576  1.00  0.00    -0.201 A  
HETATM   10  C   UNL     1      -8.822  11.174  68.326  1.00  0.00    -0.155 A  
HETATM   11  C   UNL     1      -8.215  12.432  68.321  1.00  0.00    -0.170 A  
HETATM   12  C   UNL     1      -8.767  13.474  67.575  1.00  0.00    -0.208 A  
HETATM   13  C   UNL     1      -9.919  13.245  66.814  1.00  0.00    -0.263 A  
HETATM   14  C   UNL     1     -10.534  11.986  66.818  1.00  0.00    -0.243 A  
BRANCH  13  15
HETATM   15  S   UNL     1     -10.689  14.603  65.955  1.00  0.00    -0.324 S  
HETATM   16  O   UNL     1     -11.869  14.985  66.701  1.00  0.00    -0.229 OA 
HETATM   17  O   UNL     1     -10.778  14.232  64.557  1.00  0.00    -0.388 OA 
BRANCH  15  18
HETATM   18  N   UNL     1      -9.554  15.845  66.029  1.00  0.00    -0.326 N  
HETATM   19  H   UNL     1      -8.641  15.733  65.590  1.00  0.00     0.000 HD 
BRANCH  18  20
HETATM   20  C   UNL     1      -9.878  17.046  66.708  1.00  0.00    -0.278 A  
HETATM   21  C   UNL     1     -10.408  18.125  66.002  1.00  0.00    -0.360 A  
HETATM   22  C   UNL     1     -10.657  19.329  66.662  1.00  0.00    -0.530 A  
HETATM   23  C   UNL     1     -10.392  19.446  68.027  1.00  0.00    -0.536 A  
HETATM   24  C   UNL     1      -9.877  18.359  68.734  1.00  0.00    -0.388 A  
HETATM   25  C   UNL     1      -9.611  17.161  68.072  1.00  0.00    -0.267 A  
ENDBRANCH  18  20
ENDBRANCH  15  18
ENDBRANCH  13  15
ENDBRANCH   8   9
ENDBRANCH   4   7
TORSDOF 5
ENDMDL
MODEL      170
REMARK 921   NORMALIZED FREE ENERGY PREDICTED BY IDOCK:   -4.98 KCAL/MOL
REMARK 922        TOTAL FREE ENERGY PREDICTED BY IDOCK:   -6.90 KCAL/MOL
REMARK 923 INTER-LIGAND FREE ENERGY PREDICTED BY IDOCK:   -6.44 KCAL/MOL
REMARK 924 INTRA-LIGAND FREE ENERGY PREDICTED BY IDOCK:   -0.47 KCAL/MOL
REMARK 927      BINDING AFFINITY PREDICTED BY RF-SCORE:    0.00 PKD
ROOT
HETATM    1  O   UNL     1      -9.996  14.168  64.398  1.00  0.00    -0.674 OA 
HETATM    2  N   UNL     1     -11.356  13.903  64.173  1.00  0.00    -0.600 N  
HETATM    3  H   UNL     1      -9.539  14.858  63.932  1.00  0.00     0.000 HD 
HETATM    4  C   UNL     1     -12.013  12.911  64.842  1.00  0.00    -0.392 C  
HETATM    5  H   UNL     1     -11.866  14.465  63.493  1.00  0.00     0.000 HD 
HETATM    6  O   UNL     1     -13.183  12.645  64.589  1.00  0.00    -0.828 OA 
ENDROOT
BRANCH   4   7
HETATM    7  C   UNL     1     -11.239  12.189  65.880  1.00  0.00    -0.384 C  
HETATM    8  C   UNL     1     -10.600  11.047  65.588  1.00  0.00    -0.263 C  
BRANCH   8   9
HETATM    9  C   UNL     1      -9.837  10.336  66.613  1.00  0.00    -0.256 A  
HETATM   10  C   UNL     1      -8.445  10.475  66.669  1.00  0.00    -0.129 A  
HETATM   11  C   UNL     1      -7.700   9.752  67.605  1.00  0.00    -0.094 A  
HETATM   12  C   UNL     1      -8.339   8.878  68.485  1.00  0.00    -0.125 A  
HETATM   13  C   UNL     1      -9.731   8.747  68.440  1.00  0.00    -0.162 A  
HETATM   14  C   UNL     1     -10.483   9.467  67.502  1.00  0.00    -0.336 A  
BRANCH  13  15
HETATM   15  S   UNL     1     -10.535   7.546  69.483  1.00  0.00    -0.226 S  
HETATM   16  O   UNL     1     -11.179   6.575  68.624  1.00  0.00    -0.289 OA 
HETATM   17  O   UNL     1     -11.292   8.279  70.478  1.00  0.00    -0.267 OA 
BRANCH  15  18
HETATM   18  N   UNL     1      -9.275   6.805  70.319  1.00  0.00    -0.156 N  
HETATM   19  H   UNL     1      -8.369   7.267  70.398  1.00  0.00     0.000 HD 
BRANCH  18  20
HETATM   20  C   UNL     1      -9.483   5.534  70.911  1.00  0.00    -0.166 A  
HETATM   21  C   UNL     1      -9.051   4.381  70.258  1.00  0.00    -0.162 A  
HETATM   22  C   UNL     1      -9.324   3.129  70.811  1.00  0.00    -0.223 A  
HETATM   23  C   UNL     1     -10.010   3.035  72.022  1.00  0.00    -0.224 A  
HETATM   24  C   UNL     1     -10.426   4.192  72.682  1.00  0.00    -0.228 A  
HETATM   25  C   UNL     1     -10.170   5.443  72.121  1.00  0.00    -0.253 A  
ENDBRANCH  18  20
ENDBRANCH  15  18
ENDBRANCH  13  15
ENDBRANCH   8   9
ENDBRANCH   4   7
TORSDOF 5
ENDMDL
MODEL      171
REMARK 921   NORMALIZED FREE ENERGY PREDICTED BY IDOCK:   -4.98 KCAL/MOL
REMARK 922        TOTAL FREE ENERGY PREDICTED BY IDOCK:   -6.90 KCAL/MOL
REMARK 923 INTER-LIGAND FREE ENERGY PREDICTED BY IDOCK:   -6.26 KCAL/MOL
REMARK 924 INTRA-LIGAND FREE ENERGY PREDICTED BY IDOCK:   -0.65 KCAL/MOL
REMARK 927      BINDING AFFINITY PREDICTED BY RF-SCORE:    0.00 PKD
ROOT
HETATM    1  O   UNL     1      -9.895   9.589  70.949  1.00  0.00    -0.275 OA 
HETATM    2  N   UNL     1     -10.343   8.259  70.995  1.00  0.00    -0.188 N  
HETATM    3  H   UNL     1      -9.608  10.045  71.731  1.00  0.00     0.000 HD 
HETATM    4  C   UNL     1     -10.756   7.603  69.872  1.00  0.00    -0.249 C  
HETATM    5  H   UNL     1     -10.360   7.770  71.890  1.00  0.00     0.000 HD 
HETATM    6  O   UNL     1     -11.208   6.465  69.934  1.00  0.00    -0.351 OA 
ENDROOT
BRANCH   4   7
HETATM    7  C   UNL     1     -10.624   8.339  68.591  1.00  0.00    -0.144 C  
HETATM    8  C   UNL     1      -9.726   7.956  67.671  1.00  0.00    -0.196 C  
BRANCH   8   9
HETATM    9  C   UNL     1      -9.597   8.683  66.409  1.00  0.00    -0.316 A  
HETATM   10  C   UNL     1      -8.728   8.210  65.417  1.00  0.00    -0.128 A  
HETATM   11  C   UNL     1      -8.549   8.929  64.232  1.00  0.00    -0.133 A  
HETATM   12  C   UNL     1      -9.231  10.130  64.033  1.00  0.00    -0.315 A  
HETATM   13  C   UNL     1     -10.109  10.598  65.016  1.00  0.00    -0.321 A  
HETATM   14  C   UNL     1     -10.290   9.883  66.207  1.00  0.00    -0.233 A  
BRANCH  13  15
HETATM   15  S   UNL     1     -10.890  12.188  64.813  1.00  0.00    -0.322 S  
HETATM   16  O   UNL     1     -12.025  12.241  65.709  1.00  0.00    -0.521 OA 
HETATM   17  O   UNL     1     -11.052  12.409  63.390  1.00  0.00    -0.455 OA 
BRANCH  15  18
HETATM   18  N   UNL     1      -9.726  13.295  65.319  1.00  0.00    -0.518 N  
HETATM   19  H   UNL     1      -8.791  13.280  64.912  1.00  0.00     0.000 HD 
BRANCH  18  20
HETATM   20  C   UNL     1     -10.055  14.247  66.317  1.00  0.00    -0.298 A  
HETATM   21  C   UNL     1     -10.504  15.514  65.950  1.00  0.00    -0.356 A  
HETATM   22  C   UNL     1     -10.757  16.470  66.935  1.00  0.00    -0.175 A  
HETATM   23  C   UNL     1     -10.578  16.152  68.281  1.00  0.00    -0.288 A  
HETATM   24  C   UNL     1     -10.145  14.876  68.646  1.00  0.00    -0.237 A  
HETATM   25  C   UNL     1      -9.874  13.926  67.662  1.00  0.00    -0.236 A  
ENDBRANCH  18  20
ENDBRANCH  15  18
ENDBRANCH  13  15
ENDBRANCH   8   9
ENDBRANCH   4   7
TORSDOF 5
ENDMDL
MODEL      172
REMARK 921   NORMALIZED FREE ENERGY PREDICTED BY IDOCK:   -4.97 KCAL/MOL
REMARK 922        TOTAL FREE ENERGY PREDICTED BY IDOCK:   -6.89 KCAL/MOL
REMARK 923 INTER-LIGAND FREE ENERGY PREDICTED BY IDOCK:   -6.42 KCAL/MOL
REMARK 924 INTRA-LIGAND FREE ENERGY PREDICTED BY IDOCK:   -0.47 KCAL/MOL
REMARK 927      BINDING AFFINITY PREDICTED BY RF-SCORE:    0.00 PKD
ROOT
HETATM    1  O   UNL     1      -7.548  19.517  66.557  1.00  0.00    -0.240 OA 
HETATM    2  N   UNL     1      -6.898  19.463  67.801  1.00  0.00    -0.226 N  
HETATM    3  H   UNL     1      -7.571  20.315  66.040  1.00  0.00     0.000 HD 
HETATM    4  C   UNL     1      -6.865  18.319  68.542  1.00  0.00    -0.249 C  
HETATM    5  H   UNL     1      -6.439  20.301  68.158  1.00  0.00     0.000 HD 
HETATM    6  O   UNL     1      -6.353  18.301  69.657  1.00  0.00    -0.249 OA 
ENDROOT
BRANCH   4   7
HETATM    7  C   UNL     1      -7.474  17.114  67.927  1.00  0.00    -0.183 C  
HETATM    8  C   UNL     1      -8.775  16.840  68.099  1.00  0.00    -0.219 C  
BRANCH   8   9
HETATM    9  C   UNL     1      -9.374  15.652  67.492  1.00  0.00    -0.206 A  
HETATM   10  C   UNL     1      -9.408  15.522  66.099  1.00  0.00    -0.380 A  
HETATM   11  C   UNL     1     -10.033  14.421  65.507  1.00  0.00    -0.359 A  
HETATM   12  C   UNL     1     -10.635  13.446  66.302  1.00  0.00    -0.292 A  
HETATM   13  C   UNL     1     -10.591  13.567  67.695  1.00  0.00    -0.241 A  
HETATM   14  C   UNL     1      -9.968  14.670  68.294  1.00  0.00    -0.222 A  
BRANCH  13  15
HETATM   15  S   UNL     1     -11.459  12.385  68.708  1.00  0.00    -0.327 S  
HETATM   16  O   UNL     1     -12.253  11.550  67.831  1.00  0.00    -0.586 OA 
HETATM   17  O   UNL     1     -12.074  13.119  69.795  1.00  0.00    -0.307 OA 
BRANCH  15  18
HETATM   18  N   UNL     1     -10.241  11.457  69.410  1.00  0.00    -0.433 N  
HETATM   19  H   UNL     1      -9.315  11.855  69.560  1.00  0.00     0.000 HD 
BRANCH  18  20
HETATM   20  C   UNL     1     -10.514  10.120  69.790  1.00  0.00    -0.263 A  
HETATM   21  C   UNL     1     -11.254   9.859  70.942  1.00  0.00    -0.433 A  
HETATM   22  C   UNL     1     -11.457   8.539  71.350  1.00  0.00    -0.344 A  
HETATM   23  C   UNL     1     -10.935   7.487  70.598  1.00  0.00    -0.263 A  
HETATM   24  C   UNL     1     -10.209   7.751  69.436  1.00  0.00    -0.208 A  
HETATM   25  C   UNL     1      -9.990   9.069  69.037  1.00  0.00    -0.191 A  
ENDBRANCH  18  20
ENDBRANCH  15  18
ENDBRANCH  13  15
ENDBRANCH   8   9
ENDBRANCH   4   7
TORSDOF 5
ENDMDL
MODEL      173
REMARK 921   NORMALIZED FREE ENERGY PREDICTED BY IDOCK:   -4.96 KCAL/MOL
REMARK 922        TOTAL FREE ENERGY PREDICTED BY IDOCK:   -6.88 KCAL/MOL
REMARK 923 INTER-LIGAND FREE ENERGY PREDICTED BY IDOCK:   -6.45 KCAL/MOL
REMARK 924 INTRA-LIGAND FREE ENERGY PREDICTED BY IDOCK:   -0.42 KCAL/MOL
REMARK 927      BINDING AFFINITY PREDICTED BY RF-SCORE:    0.00 PKD
ROOT
HETATM    1  O   UNL     1      -9.752  10.284  62.951  1.00  0.00    -0.460 OA 
HETATM    2  N   UNL     1      -9.697  11.491  63.665  1.00  0.00    -0.391 N  
HETATM    3  H   UNL     1      -9.580  10.248  62.017  1.00  0.00     0.000 HD 
HETATM    4  C   UNL     1      -9.945  11.542  65.006  1.00  0.00    -0.263 C  
HETATM    5  H   UNL     1      -9.466  12.352  63.170  1.00  0.00     0.000 HD 
HETATM    6  O   UNL     1      -9.960  12.611  65.607  1.00  0.00    -0.264 OA 
ENDROOT
BRANCH   4   7
HETATM    7  C   UNL     1     -10.188  10.244  65.683  1.00  0.00    -0.301 C  
HETATM    8  C   UNL     1     -10.189  10.160  67.021  1.00  0.00    -0.290 C  
BRANCH   8   9
HETATM    9  C   UNL     1     -10.427   8.880  67.687  1.00  0.00    -0.320 A  
HETATM   10  C   UNL     1     -10.456   7.698  66.937  1.00  0.00    -0.388 A  
HETATM   11  C   UNL     1     -10.745   6.477  67.554  1.00  0.00    -0.395 A  
HETATM   12  C   UNL     1     -11.015   6.430  68.922  1.00  0.00    -0.412 A  
HETATM   13  C   UNL     1     -10.973   7.608  69.676  1.00  0.00    -0.137 A  
HETATM   14  C   UNL     1     -10.687   8.835  69.063  1.00  0.00    -0.134 A  
BRANCH  13  15
HETATM   15  S   UNL     1     -11.431   7.566  71.398  1.00  0.00    -0.273 S  
HETATM   16  O   UNL     1     -12.643   6.782  71.514  1.00  0.00    -0.361 OA 
HETATM   17  O   UNL     1     -11.373   8.926  71.892  1.00  0.00    -0.338 OA 
BRANCH  15  18
HETATM   18  N   UNL     1     -10.164   6.749  72.150  1.00  0.00    -0.193 N  
HETATM   19  H   UNL     1      -9.354   7.264  72.492  1.00  0.00     0.000 HD 
BRANCH  18  20
HETATM   20  C   UNL     1     -10.234   5.342  72.302  1.00  0.00    -0.196 A  
HETATM   21  C   UNL     1      -9.598   4.508  71.384  1.00  0.00    -0.232 A  
HETATM   22  C   UNL     1      -9.732   3.124  71.498  1.00  0.00    -0.226 A  
HETATM   23  C   UNL     1     -10.484   2.577  72.538  1.00  0.00    -0.168 A  
HETATM   24  C   UNL     1     -11.106   3.414  73.466  1.00  0.00    -0.317 A  
HETATM   25  C   UNL     1     -10.988   4.799  73.342  1.00  0.00    -0.396 A  
ENDBRANCH  18  20
ENDBRANCH  15  18
ENDBRANCH  13  15
ENDBRANCH   8   9
ENDBRANCH   4   7
TORSDOF 5
ENDMDL
MODEL      174
REMARK 921   NORMALIZED FREE ENERGY PREDICTED BY IDOCK:   -4.96 KCAL/MOL
REMARK 922        TOTAL FREE ENERGY PREDICTED BY IDOCK:   -6.88 KCAL/MOL
REMARK 923 INTER-LIGAND FREE ENERGY PREDICTED BY IDOCK:   -6.05 KCAL/MOL
REMARK 924 INTRA-LIGAND FREE ENERGY PREDICTED BY IDOCK:   -0.83 KCAL/MOL
REMARK 927      BINDING AFFINITY PREDICTED BY RF-SCORE:    0.00 PKD
ROOT
HETATM    1  O   UNL     1     -11.724   4.796  65.194  1.00  0.00    -1.013 OA 
HETATM    2  N   UNL     1     -10.596   4.001  65.453  1.00  0.00    -0.488 N  
HETATM    3  H   UNL     1     -12.262   4.662  64.422  1.00  0.00     0.000 HD 
HETATM    4  C   UNL     1      -9.824   4.194  66.562  1.00  0.00    -0.192 C  
HETATM    5  H   UNL     1     -10.348   3.262  64.797  1.00  0.00     0.000 HD 
HETATM    6  O   UNL     1      -8.804   3.539  66.743  1.00  0.00    -0.117 OA 
ENDROOT
BRANCH   4   7
HETATM    7  C   UNL     1     -10.290   5.226  67.520  1.00  0.00    -0.221 C  
HETATM    8  C   UNL     1      -9.552   6.319  67.762  1.00  0.00    -0.118 C  
BRANCH   8   9
HETATM    9  C   UNL     1     -10.011   7.335  68.707  1.00  0.00    -0.167 A  
HETATM   10  C   UNL     1      -9.340   8.561  68.795  1.00  0.00    -0.143 A  
HETATM   11  C   UNL     1      -9.732   9.515  69.738  1.00  0.00    -0.234 A  
HETATM   12  C   UNL     1     -10.792   9.248  70.606  1.00  0.00    -0.339 A  
HETATM   13  C   UNL     1     -11.473   8.029  70.511  1.00  0.00    -0.187 A  
HETATM   14  C   UNL     1     -11.082   7.068  69.570  1.00  0.00    -0.221 A  
BRANCH  13  15
HETATM   15  S   UNL     1     -12.748   7.641  71.694  1.00  0.00    -0.344 S  
HETATM   16  O   UNL     1     -13.840   7.018  70.978  1.00  0.00    -0.163 OA 
HETATM   17  O   UNL     1     -12.964   8.827  72.498  1.00  0.00    -0.397 OA 
BRANCH  15  18
HETATM   18  N   UNL     1     -12.037   6.512  72.722  1.00  0.00    -0.442 N  
HETATM   19  H   UNL     1     -12.613   5.824  73.207  1.00  0.00     0.000 HD 
BRANCH  18  20
HETATM   20  C   UNL     1     -10.632   6.526  72.909  1.00  0.00    -0.241 A  
HETATM   21  C   UNL     1      -9.850   5.492  72.398  1.00  0.00    -0.189 A  
HETATM   22  C   UNL     1      -8.477   5.473  72.647  1.00  0.00    -0.117 A  
HETATM   23  C   UNL     1      -7.888   6.496  73.391  1.00  0.00    -0.091 A  
HETATM   24  C   UNL     1      -8.671   7.539  73.888  1.00  0.00    -0.280 A  
HETATM   25  C   UNL     1     -10.046   7.549  73.654  1.00  0.00    -0.343 A  
ENDBRANCH  18  20
ENDBRANCH  15  18
ENDBRANCH  13  15
ENDBRANCH   8   9
ENDBRANCH   4   7
TORSDOF 5
ENDMDL
MODEL      175
REMARK 921   NORMALIZED FREE ENERGY PREDICTED BY IDOCK:   -4.96 KCAL/MOL
REMARK 922        TOTAL FREE ENERGY PREDICTED BY IDOCK:   -6.88 KCAL/MOL
REMARK 923 INTER-LIGAND FREE ENERGY PREDICTED BY IDOCK:   -6.31 KCAL/MOL
REMARK 924 INTRA-LIGAND FREE ENERGY PREDICTED BY IDOCK:   -0.57 KCAL/MOL
REMARK 927      BINDING AFFINITY PREDICTED BY RF-SCORE:    0.00 PKD
ROOT
HETATM    1  O   UNL     1      -9.354  12.103  67.172  1.00  0.00    -0.184 OA 
HETATM    2  N   UNL     1      -9.592  12.017  65.791  1.00  0.00    -0.300 N  
HETATM    3  H   UNL     1      -9.127  12.927  67.588  1.00  0.00     0.000 HD 
HETATM    4  C   UNL     1      -9.918  10.834  65.193  1.00  0.00    -0.291 C  
HETATM    5  H   UNL     1      -9.521  12.859  65.220  1.00  0.00     0.000 HD 
HETATM    6  O   UNL     1     -10.058  10.758  63.977  1.00  0.00    -0.314 OA 
ENDROOT
BRANCH   4   7
HETATM    7  C   UNL     1     -10.091   9.666  66.090  1.00  0.00    -0.328 C  
HETATM    8  C   UNL     1      -9.429   8.522  65.861  1.00  0.00    -0.207 C  
BRANCH   8   9
HETATM    9  C   UNL     1      -9.602   7.371  66.745  1.00  0.00    -0.249 A  
HETATM   10  C   UNL     1      -9.381   6.077  66.258  1.00  0.00    -0.165 A  
HETATM   11  C   UNL     1      -9.604   4.966  67.076  1.00  0.00    -0.173 A  
HETATM   12  C   UNL     1     -10.055   5.139  68.385  1.00  0.00    -0.205 A  
HETATM   13  C   UNL     1     -10.264   6.431  68.879  1.00  0.00    -0.184 A  
HETATM   14  C   UNL     1     -10.046   7.549  68.062  1.00  0.00    -0.221 A  
BRANCH  13  15
HETATM   15  S   UNL     1     -10.952   6.649  70.509  1.00  0.00    -0.310 S  
HETATM   16  O   UNL     1     -10.415   5.607  71.358  1.00  0.00    -0.222 OA 
HETATM   17  O   UNL     1     -12.382   6.819  70.353  1.00  0.00    -0.275 OA 
BRANCH  15  18
HETATM   18  N   UNL     1     -10.363   8.143  71.016  1.00  0.00    -0.194 N  
HETATM   19  H   UNL     1      -9.412   8.226  71.374  1.00  0.00     0.000 HD 
BRANCH  18  20
HETATM   20  C   UNL     1     -11.201   9.284  70.943  1.00  0.00    -0.306 A  
HETATM   21  C   UNL     1     -10.950  10.275  69.996  1.00  0.00    -0.371 A  
HETATM   22  C   UNL     1     -11.733  11.429  69.977  1.00  0.00    -0.416 A  
HETATM   23  C   UNL     1     -12.775  11.582  70.892  1.00  0.00    -0.372 A  
HETATM   24  C   UNL     1     -13.035  10.581  71.829  1.00  0.00    -0.582 A  
HETATM   25  C   UNL     1     -12.241   9.435  71.861  1.00  0.00    -0.440 A  
ENDBRANCH  18  20
ENDBRANCH  15  18
ENDBRANCH  13  15
ENDBRANCH   8   9
ENDBRANCH   4   7
TORSDOF 5
ENDMDL
MODEL      176
REMARK 921   NORMALIZED FREE ENERGY PREDICTED BY IDOCK:   -4.96 KCAL/MOL
REMARK 922        TOTAL FREE ENERGY PREDICTED BY IDOCK:   -6.87 KCAL/MOL
REMARK 923 INTER-LIGAND FREE ENERGY PREDICTED BY IDOCK:   -6.27 KCAL/MOL
REMARK 924 INTRA-LIGAND FREE ENERGY PREDICTED BY IDOCK:   -0.61 KCAL/MOL
REMARK 927      BINDING AFFINITY PREDICTED BY RF-SCORE:    0.00 PKD
ROOT
HETATM    1  O   UNL     1      -9.332   7.916  74.269  1.00  0.00    -0.346 OA 
HETATM    2  N   UNL     1     -10.561   7.327  73.930  1.00  0.00    -0.464 N  
HETATM    3  H   UNL     1      -8.870   7.683  75.067  1.00  0.00     0.000 HD 
HETATM    4  C   UNL     1     -11.223   7.661  72.785  1.00  0.00    -0.377 C  
HETATM    5  H   UNL     1     -10.968   6.632  74.556  1.00  0.00     0.000 HD 
HETATM    6  O   UNL     1     -12.327   7.190  72.533  1.00  0.00    -0.058 OA 
ENDROOT
BRANCH   4   7
HETATM    7  C   UNL     1     -10.535   8.610  71.877  1.00  0.00    -0.410 C  
HETATM    8  C   UNL     1     -11.093   8.969  70.711  1.00  0.00    -0.328 C  
BRANCH   8   9
HETATM    9  C   UNL     1     -10.413   9.904  69.816  1.00  0.00    -0.292 A  
HETATM   10  C   UNL     1      -9.022   9.846  69.671  1.00  0.00    -0.232 A  
HETATM   11  C   UNL     1      -8.355  10.774  68.866  1.00  0.00    -0.147 A  
HETATM   12  C   UNL     1      -9.073  11.772  68.207  1.00  0.00    -0.187 A  
HETATM   13  C   UNL     1     -10.465  11.825  68.339  1.00  0.00    -0.215 A  
HETATM   14  C   UNL     1     -11.138  10.899  69.147  1.00  0.00    -0.301 A  
BRANCH  13  15
HETATM   15  S   UNL     1     -11.369  13.168  67.593  1.00  0.00    -0.317 S  
HETATM   16  O   UNL     1     -11.833  14.033  68.656  1.00  0.00    -0.326 OA 
HETATM   17  O   UNL     1     -12.299  12.586  66.646  1.00  0.00    -0.483 OA 
BRANCH  15  18
HETATM   18  N   UNL     1     -10.221  13.984  66.669  1.00  0.00    -0.270 N  
HETATM   19  H   UNL     1      -9.826  13.546  65.838  1.00  0.00     0.000 HD 
BRANCH  18  20
HETATM   20  C   UNL     1      -9.810  15.284  67.056  1.00  0.00    -0.229 A  
HETATM   21  C   UNL     1      -8.845  15.443  68.048  1.00  0.00    -0.165 A  
HETATM   22  C   UNL     1      -8.497  16.726  68.476  1.00  0.00    -0.244 A  
HETATM   23  C   UNL     1      -9.102  17.843  67.899  1.00  0.00    -0.260 A  
HETATM   24  C   UNL     1     -10.056  17.680  66.894  1.00  0.00    -0.331 A  
HETATM   25  C   UNL     1     -10.417  16.398  66.479  1.00  0.00    -0.282 A  
ENDBRANCH  18  20
ENDBRANCH  15  18
ENDBRANCH  13  15
ENDBRANCH   8   9
ENDBRANCH   4   7
TORSDOF 5
ENDMDL
MODEL      177
REMARK 921   NORMALIZED FREE ENERGY PREDICTED BY IDOCK:   -4.95 KCAL/MOL
REMARK 922        TOTAL FREE ENERGY PREDICTED BY IDOCK:   -6.87 KCAL/MOL
REMARK 923 INTER-LIGAND FREE ENERGY PREDICTED BY IDOCK:   -6.21 KCAL/MOL
REMARK 924 INTRA-LIGAND FREE ENERGY PREDICTED BY IDOCK:   -0.66 KCAL/MOL
REMARK 927      BINDING AFFINITY PREDICTED BY RF-SCORE:    0.00 PKD
ROOT
HETATM    1  O   UNL     1     -14.079   8.726  71.290  1.00  0.00    -0.559 OA 
HETATM    2  N   UNL     1     -13.227   8.376  72.350  1.00  0.00    -0.565 N  
HETATM    3  H   UNL     1     -15.016   8.821  71.413  1.00  0.00     0.000 HD 
HETATM    4  C   UNL     1     -11.881   8.240  72.172  1.00  0.00    -0.369 C  
HETATM    5  H   UNL     1     -13.625   8.221  73.276  1.00  0.00     0.000 HD 
HETATM    6  O   UNL     1     -11.157   7.868  73.089  1.00  0.00    -0.382 OA 
ENDROOT
BRANCH   4   7
HETATM    7  C   UNL     1     -11.356   8.566  70.824  1.00  0.00    -0.296 C  
HETATM    8  C   UNL     1     -10.839   9.776  70.565  1.00  0.00    -0.387 C  
BRANCH   8   9
HETATM    9  C   UNL     1     -10.323  10.096  69.235  1.00  0.00    -0.242 A  
HETATM   10  C   UNL     1     -10.757   9.366  68.122  1.00  0.00    -0.230 A  
HETATM   11  C   UNL     1     -10.224   9.622  66.856  1.00  0.00    -0.304 A  
HETATM   12  C   UNL     1      -9.247  10.604  66.694  1.00  0.00    -0.184 A  
HETATM   13  C   UNL     1      -8.820  11.345  67.801  1.00  0.00    -0.143 A  
HETATM   14  C   UNL     1      -9.349  11.090  69.073  1.00  0.00    -0.105 A  
BRANCH  13  15
HETATM   15  S   UNL     1      -7.490  12.517  67.615  1.00  0.00    -0.153 S  
HETATM   16  O   UNL     1      -6.507  11.933  66.728  1.00  0.00    -0.128 OA 
HETATM   17  O   UNL     1      -7.123  12.965  68.943  1.00  0.00    -0.097 OA 
BRANCH  15  18
HETATM   18  N   UNL     1      -8.203  13.845  66.863  1.00  0.00    -0.402 N  
HETATM   19  H   UNL     1      -7.846  14.183  65.970  1.00  0.00     0.000 HD 
BRANCH  18  20
HETATM   20  C   UNL     1      -9.304  14.489  67.482  1.00  0.00    -0.193 A  
HETATM   21  C   UNL     1     -10.604  14.076  67.196  1.00  0.00    -0.274 A  
HETATM   22  C   UNL     1     -11.686  14.762  67.752  1.00  0.00    -0.368 A  
HETATM   23  C   UNL     1     -11.464  15.845  68.603  1.00  0.00    -0.391 A  
HETATM   24  C   UNL     1     -10.161  16.245  68.900  1.00  0.00    -0.251 A  
HETATM   25  C   UNL     1      -9.079  15.572  68.331  1.00  0.00    -0.190 A  
ENDBRANCH  18  20
ENDBRANCH  15  18
ENDBRANCH  13  15
ENDBRANCH   8   9
ENDBRANCH   4   7
TORSDOF 5
ENDMDL
MODEL      178
REMARK 921   NORMALIZED FREE ENERGY PREDICTED BY IDOCK:   -4.95 KCAL/MOL
REMARK 922        TOTAL FREE ENERGY PREDICTED BY IDOCK:   -6.87 KCAL/MOL
REMARK 923 INTER-LIGAND FREE ENERGY PREDICTED BY IDOCK:   -6.09 KCAL/MOL
REMARK 924 INTRA-LIGAND FREE ENERGY PREDICTED BY IDOCK:   -0.78 KCAL/MOL
REMARK 927      BINDING AFFINITY PREDICTED BY RF-SCORE:    0.00 PKD
ROOT
HETATM    1  O   UNL     1      -9.232  10.264  70.378  1.00  0.00    -0.264 OA 
HETATM    2  N   UNL     1     -10.513   9.862  70.788  1.00  0.00    -0.357 N  
HETATM    3  H   UNL     1      -8.456   9.762  70.600  1.00  0.00     0.000 HD 
HETATM    4  C   UNL     1     -11.627  10.583  70.469  1.00  0.00    -0.350 C  
HETATM    5  H   UNL     1     -10.614   9.009  71.339  1.00  0.00     0.000 HD 
HETATM    6  O   UNL     1     -12.732  10.258  70.890  1.00  0.00    -0.332 OA 
ENDROOT
BRANCH   4   7
HETATM    7  C   UNL     1     -11.422  11.762  69.593  1.00  0.00    -0.341 C  
HETATM    8  C   UNL     1     -11.986  11.818  68.378  1.00  0.00    -0.250 C  
BRANCH   8   9
HETATM    9  C   UNL     1     -11.783  12.981  67.515  1.00  0.00    -0.421 A  
HETATM   10  C   UNL     1     -11.969  12.865  66.131  1.00  0.00    -0.491 A  
HETATM   11  C   UNL     1     -11.718  13.953  65.291  1.00  0.00    -0.347 A  
HETATM   12  C   UNL     1     -11.272  15.162  65.825  1.00  0.00    -0.287 A  
HETATM   13  C   UNL     1     -11.098  15.285  67.207  1.00  0.00    -0.325 A  
HETATM   14  C   UNL     1     -11.345  14.197  68.055  1.00  0.00    -0.324 A  
BRANCH  13  15
HETATM   15  S   UNL     1     -10.417  16.790  67.877  1.00  0.00    -0.345 S  
HETATM   16  O   UNL     1     -10.646  16.781  69.306  1.00  0.00    -0.319 OA 
HETATM   17  O   UNL     1     -10.894  17.882  67.053  1.00  0.00    -0.258 OA 
BRANCH  15  18
HETATM   18  N   UNL     1      -8.764  16.674  67.575  1.00  0.00    -0.189 N  
HETATM   19  H   UNL     1      -8.321  17.294  66.899  1.00  0.00     0.000 HD 
BRANCH  18  20
HETATM   20  C   UNL     1      -7.994  15.706  68.268  1.00  0.00    -0.129 A  
HETATM   21  C   UNL     1      -7.254  16.076  69.389  1.00  0.00    -0.213 A  
HETATM   22  C   UNL     1      -6.441  15.136  70.023  1.00  0.00    -0.156 A  
HETATM   23  C   UNL     1      -6.385  13.826  69.546  1.00  0.00    -0.118 A  
HETATM   24  C   UNL     1      -7.140  13.454  68.434  1.00  0.00    -0.108 A  
HETATM   25  C   UNL     1      -7.939  14.398  67.788  1.00  0.00    -0.166 A  
ENDBRANCH  18  20
ENDBRANCH  15  18
ENDBRANCH  13  15
ENDBRANCH   8   9
ENDBRANCH   4   7
TORSDOF 5
ENDMDL
MODEL      179
REMARK 921   NORMALIZED FREE ENERGY PREDICTED BY IDOCK:   -4.95 KCAL/MOL
REMARK 922        TOTAL FREE ENERGY PREDICTED BY IDOCK:   -6.87 KCAL/MOL
REMARK 923 INTER-LIGAND FREE ENERGY PREDICTED BY IDOCK:   -6.31 KCAL/MOL
REMARK 924 INTRA-LIGAND FREE ENERGY PREDICTED BY IDOCK:   -0.56 KCAL/MOL
REMARK 927      BINDING AFFINITY PREDICTED BY RF-SCORE:    0.00 PKD
ROOT
HETATM    1  O   UNL     1      -9.968  15.153  69.958  1.00  0.00    -0.467 OA 
HETATM    2  N   UNL     1     -10.586  15.631  68.792  1.00  0.00    -0.229 N  
HETATM    3  H   UNL     1      -9.580  15.743  70.595  1.00  0.00     0.000 HD 
HETATM    4  C   UNL     1     -11.144  14.784  67.878  1.00  0.00    -0.293 C  
HETATM    5  H   UNL     1     -10.619  16.636  68.623  1.00  0.00     0.000 HD 
HETATM    6  O   UNL     1     -11.621  15.209  66.831  1.00  0.00    -0.285 OA 
ENDROOT
BRANCH   4   7
HETATM    7  C   UNL     1     -11.140  13.343  68.225  1.00  0.00    -0.289 C  
HETATM    8  C   UNL     1     -10.476  12.457  67.468  1.00  0.00    -0.229 C  
BRANCH   8   9
HETATM    9  C   UNL     1     -10.475  11.036  67.811  1.00  0.00    -0.232 A  
HETATM   10  C   UNL     1     -10.188  10.081  66.827  1.00  0.00    -0.295 A  
HETATM   11  C   UNL     1     -10.245   8.717  67.129  1.00  0.00    -0.346 A  
HETATM   12  C   UNL     1     -10.595   8.298  68.412  1.00  0.00    -0.148 A  
HETATM   13  C   UNL     1     -10.868   9.250  69.400  1.00  0.00    -0.169 A  
HETATM   14  C   UNL     1     -10.816  10.618  69.103  1.00  0.00    -0.279 A  
BRANCH  13  15
HETATM   15  S   UNL     1     -11.428   8.714  71.005  1.00  0.00    -0.283 S  
HETATM   16  O   UNL     1     -12.502   9.594  71.415  1.00  0.00    -0.325 OA 
HETATM   17  O   UNL     1     -10.253   8.537  71.834  1.00  0.00    -0.243 OA 
BRANCH  15  18
HETATM   18  N   UNL     1     -12.042   7.168  70.742  1.00  0.00    -0.499 N  
HETATM   19  H   UNL     1     -12.885   7.039  70.184  1.00  0.00     0.000 HD 
BRANCH  18  20
HETATM   20  C   UNL     1     -11.378   6.049  71.302  1.00  0.00    -0.230 A  
HETATM   21  C   UNL     1     -11.610   5.692  72.629  1.00  0.00    -0.307 A  
HETATM   22  C   UNL     1     -10.897   4.634  73.196  1.00  0.00    -0.338 A  
HETATM   23  C   UNL     1      -9.970   3.926  72.431  1.00  0.00    -0.232 A  
HETATM   24  C   UNL     1      -9.753   4.275  71.097  1.00  0.00    -0.259 A  
HETATM   25  C   UNL     1     -10.450   5.344  70.535  1.00  0.00    -0.335 A  
ENDBRANCH  18  20
ENDBRANCH  15  18
ENDBRANCH  13  15
ENDBRANCH   8   9
ENDBRANCH   4   7
TORSDOF 5
ENDMDL
MODEL      180
REMARK 921   NORMALIZED FREE ENERGY PREDICTED BY IDOCK:   -4.95 KCAL/MOL
REMARK 922        TOTAL FREE ENERGY PREDICTED BY IDOCK:   -6.87 KCAL/MOL
REMARK 923 INTER-LIGAND FREE ENERGY PREDICTED BY IDOCK:   -6.22 KCAL/MOL
REMARK 924 INTRA-LIGAND FREE ENERGY PREDICTED BY IDOCK:   -0.65 KCAL/MOL
REMARK 927      BINDING AFFINITY PREDICTED BY RF-SCORE:    0.00 PKD
ROOT
HETATM    1  O   UNL     1      -9.546   7.399  66.100  1.00  0.00    -0.386 OA 
HETATM    2  N   UNL     1      -8.477   7.455  65.192  1.00  0.00    -0.314 N  
HETATM    3  H   UNL     1      -9.733   6.614  66.603  1.00  0.00     0.000 HD 
HETATM    4  C   UNL     1      -8.208   8.582  64.471  1.00  0.00    -0.156 C  
HETATM    5  H   UNL     1      -7.886   6.633  65.068  1.00  0.00     0.000 HD 
HETATM    6  O   UNL     1      -7.314   8.598  63.631  1.00  0.00    -0.098 OA 
ENDROOT
BRANCH   4   7
HETATM    7  C   UNL     1      -9.049   9.769  64.762  1.00  0.00    -0.290 C  
HETATM    8  C   UNL     1      -9.646  10.445  63.770  1.00  0.00    -0.366 C  
BRANCH   8   9
HETATM    9  C   UNL     1     -10.474  11.616  64.058  1.00  0.00    -0.418 A  
HETATM   10  C   UNL     1     -11.620  11.865  63.294  1.00  0.00    -0.380 A  
HETATM   11  C   UNL     1     -12.384  13.014  63.520  1.00  0.00    -0.500 A  
HETATM   12  C   UNL     1     -12.004  13.925  64.505  1.00  0.00    -0.464 A  
HETATM   13  C   UNL     1     -10.867  13.671  65.280  1.00  0.00    -0.322 A  
HETATM   14  C   UNL     1     -10.095  12.523  65.056  1.00  0.00    -0.258 A  
BRANCH  13  15
HETATM   15  S   UNL     1     -10.316  14.890  66.458  1.00  0.00    -0.303 S  
HETATM   16  O   UNL     1     -10.678  14.424  67.779  1.00  0.00    -0.244 OA 
HETATM   17  O   UNL     1     -10.757  16.184  65.977  1.00  0.00    -0.308 OA 
BRANCH  15  18
HETATM   18  N   UNL     1      -8.638  14.892  66.306  1.00  0.00    -0.414 N  
HETATM   19  H   UNL     1      -8.205  14.771  65.392  1.00  0.00     0.000 HD 
BRANCH  18  20
HETATM   20  C   UNL     1      -7.834  15.062  67.461  1.00  0.00    -0.182 A  
HETATM   21  C   UNL     1      -7.086  13.994  67.954  1.00  0.00    -0.166 A  
HETATM   22  C   UNL     1      -6.354  14.147  69.132  1.00  0.00    -0.106 A  
HETATM   23  C   UNL     1      -6.357  15.370  69.803  1.00  0.00    -0.163 A  
HETATM   24  C   UNL     1      -7.093  16.443  69.298  1.00  0.00    -0.222 A  
HETATM   25  C   UNL     1      -7.840  16.285  68.130  1.00  0.00    -0.156 A  
ENDBRANCH  18  20
ENDBRANCH  15  18
ENDBRANCH  13  15
ENDBRANCH   8   9
ENDBRANCH   4   7
TORSDOF 5
ENDMDL
MODEL      181
REMARK 921   NORMALIZED FREE ENERGY PREDICTED BY IDOCK:   -4.94 KCAL/MOL
REMARK 922        TOTAL FREE ENERGY PREDICTED BY IDOCK:   -6.86 KCAL/MOL
REMARK 923 INTER-LIGAND FREE ENERGY PREDICTED BY IDOCK:   -6.31 KCAL/MOL
REMARK 924 INTRA-LIGAND FREE ENERGY PREDICTED BY IDOCK:   -0.55 KCAL/MOL
REMARK 927      BINDING AFFINITY PREDICTED BY RF-SCORE:    0.00 PKD
ROOT
HETATM    1  O   UNL     1     -12.371   7.187  70.588  1.00  0.00    -0.558 OA 
HETATM    2  N   UNL     1     -11.593   6.043  70.350  1.00  0.00    -0.186 N  
HETATM    3  H   UNL     1     -13.093   7.180  71.206  1.00  0.00     0.000 HD 
HETATM    4  C   UNL     1     -10.556   6.054  69.463  1.00  0.00    -0.296 C  
HETATM    5  H   UNL     1     -11.808   5.183  70.853  1.00  0.00     0.000 HD 
HETATM    6  O   UNL     1      -9.926   5.031  69.214  1.00  0.00    -0.183 OA 
ENDROOT
BRANCH   4   7
HETATM    7  C   UNL     1     -10.240   7.358  68.831  1.00  0.00    -0.200 C  
HETATM    8  C   UNL     1     -10.631   7.623  67.576  1.00  0.00    -0.323 C  
BRANCH   8   9
HETATM    9  C   UNL     1     -10.318   8.909  66.954  1.00  0.00    -0.332 A  
HETATM   10  C   UNL     1      -9.617   8.946  65.742  1.00  0.00    -0.245 A  
HETATM   11  C   UNL     1      -9.258  10.170  65.170  1.00  0.00    -0.262 A  
HETATM   12  C   UNL     1      -9.591  11.365  65.808  1.00  0.00    -0.260 A  
HETATM   13  C   UNL     1     -10.303  11.332  67.012  1.00  0.00    -0.227 A  
HETATM   14  C   UNL     1     -10.662  10.108  67.592  1.00  0.00    -0.339 A  
BRANCH  13  15
HETATM   15  S   UNL     1     -10.625  12.852  67.885  1.00  0.00    -0.227 S  
HETATM   16  O   UNL     1      -9.398  13.255  68.539  1.00  0.00    -0.182 OA 
HETATM   17  O   UNL     1     -11.845  12.662  68.644  1.00  0.00    -0.305 OA 
BRANCH  15  18
HETATM   18  N   UNL     1     -11.004  13.959  66.675  1.00  0.00    -0.299 N  
HETATM   19  H   UNL     1     -11.533  13.663  65.855  1.00  0.00     0.000 HD 
BRANCH  18  20
HETATM   20  C   UNL     1     -10.582  15.306  66.804  1.00  0.00    -0.304 A  
HETATM   21  C   UNL     1      -9.623  15.823  65.935  1.00  0.00    -0.382 A  
HETATM   22  C   UNL     1      -9.159  17.128  66.113  1.00  0.00    -0.214 A  
HETATM   23  C   UNL     1      -9.666  17.915  67.148  1.00  0.00    -0.289 A  
HETATM   24  C   UNL     1     -10.637  17.399  68.006  1.00  0.00    -0.389 A  
HETATM   25  C   UNL     1     -11.089  16.090  67.840  1.00  0.00    -0.307 A  
ENDBRANCH  18  20
ENDBRANCH  15  18
ENDBRANCH  13  15
ENDBRANCH   8   9
ENDBRANCH   4   7
TORSDOF 5
ENDMDL
MODEL      182
REMARK 921   NORMALIZED FREE ENERGY PREDICTED BY IDOCK:   -4.94 KCAL/MOL
REMARK 922        TOTAL FREE ENERGY PREDICTED BY IDOCK:   -6.85 KCAL/MOL
REMARK 923 INTER-LIGAND FREE ENERGY PREDICTED BY IDOCK:   -6.76 KCAL/MOL
REMARK 924 INTRA-LIGAND FREE ENERGY PREDICTED BY IDOCK:   -0.09 KCAL/MOL
REMARK 927      BINDING AFFINITY PREDICTED BY RF-SCORE:    0.00 PKD
ROOT
HETATM    1  O   UNL     1      -5.984  12.260  66.537  1.00  0.00    -0.488 OA 
HETATM    2  N   UNL     1      -5.996  10.996  65.927  1.00  0.00    -0.293 N  
HETATM    3  H   UNL     1      -5.232  12.838  66.473  1.00  0.00     0.000 HD 
HETATM    4  C   UNL     1      -7.075  10.167  66.018  1.00  0.00    -0.118 C  
HETATM    5  H   UNL     1      -5.177  10.689  65.403  1.00  0.00     0.000 HD 
HETATM    6  O   UNL     1      -7.049   9.038  65.539  1.00  0.00    -0.079 OA 
ENDROOT
BRANCH   4   7
HETATM    7  C   UNL     1      -8.266  10.706  66.719  1.00  0.00    -0.130 C  
HETATM    8  C   UNL     1      -8.558  10.320  67.970  1.00  0.00    -0.118 C  
BRANCH   8   9
HETATM    9  C   UNL     1      -9.733  10.853  68.659  1.00  0.00    -0.188 A  
HETATM   10  C   UNL     1     -10.570   9.991  69.378  1.00  0.00    -0.256 A  
HETATM   11  C   UNL     1     -11.729  10.478  69.989  1.00  0.00    -0.394 A  
HETATM   12  C   UNL     1     -12.064  11.828  69.879  1.00  0.00    -0.359 A  
HETATM   13  C   UNL     1     -11.222  12.694  69.172  1.00  0.00    -0.243 A  
HETATM   14  C   UNL     1     -10.061  12.211  68.556  1.00  0.00    -0.192 A  
BRANCH  13  15
HETATM   15  S   UNL     1     -11.708  14.392  68.933  1.00  0.00    -0.332 S  
HETATM   16  O   UNL     1     -12.173  14.531  67.569  1.00  0.00    -0.318 OA 
HETATM   17  O   UNL     1     -10.636  15.223  69.444  1.00  0.00    -0.231 OA 
BRANCH  15  18
HETATM   18  N   UNL     1     -13.002  14.611  69.989  1.00  0.00    -0.546 N  
HETATM   19  H   UNL     1     -13.959  14.479  69.664  1.00  0.00     0.000 HD 
BRANCH  18  20
HETATM   20  C   UNL     1     -12.750  14.980  71.334  1.00  0.00    -0.341 A  
HETATM   21  C   UNL     1     -13.166  14.152  72.375  1.00  0.00    -0.566 A  
HETATM   22  C   UNL     1     -12.980  14.557  73.698  1.00  0.00     0.023 A  
HETATM   23  C   UNL     1     -12.363  15.777  73.976  1.00  0.00    -0.749 A  
HETATM   24  C   UNL     1     -11.932  16.596  72.932  1.00  0.00    -0.361 A  
HETATM   25  C   UNL     1     -12.134  16.202  71.609  1.00  0.00    -0.479 A  
ENDBRANCH  18  20
ENDBRANCH  15  18
ENDBRANCH  13  15
ENDBRANCH   8   9
ENDBRANCH   4   7
TORSDOF 5
ENDMDL
MODEL      183
REMARK 921   NORMALIZED FREE ENERGY PREDICTED BY IDOCK:   -4.93 KCAL/MOL
REMARK 922        TOTAL FREE ENERGY PREDICTED BY IDOCK:   -6.85 KCAL/MOL
REMARK 923 INTER-LIGAND FREE ENERGY PREDICTED BY IDOCK:   -5.86 KCAL/MOL
REMARK 924 INTRA-LIGAND FREE ENERGY PREDICTED BY IDOCK:   -0.99 KCAL/MOL
REMARK 927      BINDING AFFINITY PREDICTED BY RF-SCORE:    0.00 PKD
ROOT
HETATM    1  O   UNL     1     -10.274  10.495  62.732  1.00  0.00    -0.706 OA 
HETATM    2  N   UNL     1     -10.732  11.814  62.885  1.00  0.00    -0.634 N  
HETATM    3  H   UNL     1     -10.021  10.150  61.884  1.00  0.00     0.000 HD 
HETATM    4  C   UNL     1     -11.095  12.310  64.103  1.00  0.00    -0.366 C  
HETATM    5  H   UNL     1     -10.795  12.416  62.064  1.00  0.00     0.000 HD 
HETATM    6  O   UNL     1     -11.557  13.440  64.213  1.00  0.00    -0.372 OA 
ENDROOT
BRANCH   4   7
HETATM    7  C   UNL     1     -10.897  11.413  65.267  1.00  0.00    -0.297 C  
HETATM    8  C   UNL     1     -11.328  11.768  66.486  1.00  0.00    -0.370 C  
BRANCH   8   9
HETATM    9  C   UNL     1     -11.131  10.883  67.634  1.00  0.00    -0.376 A  
HETATM   10  C   UNL     1     -11.126  11.412  68.930  1.00  0.00    -0.290 A  
HETATM   11  C   UNL     1     -10.877  10.586  70.030  1.00  0.00    -0.320 A  
HETATM   12  C   UNL     1     -10.624   9.227  69.841  1.00  0.00    -0.246 A  
HETATM   13  C   UNL     1     -10.642   8.693  68.548  1.00  0.00    -0.119 A  
HETATM   14  C   UNL     1     -10.888   9.517  67.442  1.00  0.00    -0.215 A  
BRANCH  13  15
HETATM   15  S   UNL     1     -10.204   6.984  68.297  1.00  0.00    -0.190 S  
HETATM   16  O   UNL     1     -11.005   6.478  67.202  1.00  0.00    -0.356 OA 
HETATM   17  O   UNL     1     -10.224   6.339  69.595  1.00  0.00    -0.169 OA 
BRANCH  15  18
HETATM   18  N   UNL     1      -8.586   7.029  67.831  1.00  0.00    -0.127 N  
HETATM   19  H   UNL     1      -7.926   6.345  68.199  1.00  0.00     0.000 HD 
BRANCH  18  20
HETATM   20  C   UNL     1      -8.149   8.025  66.923  1.00  0.00    -0.108 A  
HETATM   21  C   UNL     1      -8.412   7.892  65.561  1.00  0.00    -0.153 A  
HETATM   22  C   UNL     1      -7.916   8.839  64.664  1.00  0.00    -0.135 A  
HETATM   23  C   UNL     1      -7.175   9.925  65.133  1.00  0.00    -0.133 A  
HETATM   24  C   UNL     1      -6.928  10.065  66.499  1.00  0.00    -0.095 A  
HETATM   25  C   UNL     1      -7.407   9.109  67.394  1.00  0.00    -0.084 A  
ENDBRANCH  18  20
ENDBRANCH  15  18
ENDBRANCH  13  15
ENDBRANCH   8   9
ENDBRANCH   4   7
TORSDOF 5
ENDMDL
MODEL      184
REMARK 921   NORMALIZED FREE ENERGY PREDICTED BY IDOCK:   -4.92 KCAL/MOL
REMARK 922        TOTAL FREE ENERGY PREDICTED BY IDOCK:   -6.83 KCAL/MOL
REMARK 923 INTER-LIGAND FREE ENERGY PREDICTED BY IDOCK:   -6.29 KCAL/MOL
REMARK 924 INTRA-LIGAND FREE ENERGY PREDICTED BY IDOCK:   -0.55 KCAL/MOL
REMARK 927      BINDING AFFINITY PREDICTED BY RF-SCORE:    0.00 PKD
ROOT
HETATM    1  O   UNL     1     -12.812  15.049  74.318  1.00  0.00    -0.547 OA 
HETATM    2  N   UNL     1     -13.304  15.663  73.155  1.00  0.00    -0.548 N  
HETATM    3  H   UNL     1     -12.840  15.485  75.162  1.00  0.00     0.000 HD 
HETATM    4  C   UNL     1     -13.264  15.037  71.943  1.00  0.00    -0.363 C  
HETATM    5  H   UNL     1     -13.701  16.600  73.218  1.00  0.00     0.000 HD 
HETATM    6  O   UNL     1     -13.635  15.609  70.924  1.00  0.00    -0.568 OA 
ENDROOT
BRANCH   4   7
HETATM    7  C   UNL     1     -12.757  13.644  71.935  1.00  0.00    -0.325 C  
HETATM    8  C   UNL     1     -13.596  12.610  71.778  1.00  0.00    -0.171 C  
BRANCH   8   9
HETATM    9  C   UNL     1     -13.094  11.236  71.771  1.00  0.00    -0.527 A  
HETATM   10  C   UNL     1     -13.834  10.220  72.388  1.00  0.00     0.164 A  
HETATM   11  C   UNL     1     -13.335   8.916  72.442  1.00  0.00    -0.488 A  
HETATM   12  C   UNL     1     -12.090   8.619  71.886  1.00  0.00    -0.422 A  
HETATM   13  C   UNL     1     -11.355   9.630  71.257  1.00  0.00    -0.388 A  
HETATM   14  C   UNL     1     -11.849  10.940  71.203  1.00  0.00    -0.189 A  
BRANCH  13  15
HETATM   15  S   UNL     1      -9.716   9.277  70.652  1.00  0.00    -0.278 S  
HETATM   16  O   UNL     1      -8.852   9.085  71.798  1.00  0.00    -0.348 OA 
HETATM   17  O   UNL     1      -9.407  10.272  69.644  1.00  0.00    -0.205 OA 
BRANCH  15  18
HETATM   18  N   UNL     1      -9.878   7.820  69.824  1.00  0.00    -0.177 N  
HETATM   19  H   UNL     1     -10.367   7.789  68.930  1.00  0.00     0.000 HD 
BRANCH  18  20
HETATM   20  C   UNL     1      -9.330   6.637  70.379  1.00  0.00    -0.159 A  
HETATM   21  C   UNL     1     -10.127   5.792  71.149  1.00  0.00    -0.257 A  
HETATM   22  C   UNL     1      -9.563   4.668  71.753  1.00  0.00    -0.216 A  
HETATM   23  C   UNL     1      -8.209   4.382  71.573  1.00  0.00    -0.092 A  
HETATM   24  C   UNL     1      -7.417   5.221  70.788  1.00  0.00    -0.075 A  
HETATM   25  C   UNL     1      -7.976   6.355  70.198  1.00  0.00    -0.112 A  
ENDBRANCH  18  20
ENDBRANCH  15  18
ENDBRANCH  13  15
ENDBRANCH   8   9
ENDBRANCH   4   7
TORSDOF 5
ENDMDL
MODEL      185
REMARK 921   NORMALIZED FREE ENERGY PREDICTED BY IDOCK:   -4.92 KCAL/MOL
REMARK 922        TOTAL FREE ENERGY PREDICTED BY IDOCK:   -6.83 KCAL/MOL
REMARK 923 INTER-LIGAND FREE ENERGY PREDICTED BY IDOCK:   -6.38 KCAL/MOL
REMARK 924 INTRA-LIGAND FREE ENERGY PREDICTED BY IDOCK:   -0.46 KCAL/MOL
REMARK 927      BINDING AFFINITY PREDICTED BY RF-SCORE:    0.00 PKD
ROOT
HETATM    1  O   UNL     1     -13.089  15.473  70.657  1.00  0.00    -0.610 OA 
HETATM    2  N   UNL     1     -12.558  15.392  69.360  1.00  0.00    -0.596 N  
HETATM    3  H   UNL     1     -13.514  16.262  70.974  1.00  0.00     0.000 HD 
HETATM    4  C   UNL     1     -11.948  14.259  68.906  1.00  0.00    -0.320 C  
HETATM    5  H   UNL     1     -12.630  16.200  68.742  1.00  0.00     0.000 HD 
HETATM    6  O   UNL     1     -11.428  14.222  67.796  1.00  0.00    -0.294 OA 
ENDROOT
BRANCH   4   7
HETATM    7  C   UNL     1     -11.955  13.092  69.821  1.00  0.00    -0.377 C  
HETATM    8  C   UNL     1     -11.741  11.853  69.354  1.00  0.00    -0.401 C  
BRANCH   8   9
HETATM    9  C   UNL     1     -11.749  10.704  70.258  1.00  0.00    -0.433 A  
HETATM   10  C   UNL     1     -12.726  10.607  71.256  1.00  0.00    -0.537 A  
HETATM   11  C   UNL     1     -12.706   9.545  72.164  1.00  0.00    -0.442 A  
HETATM   12  C   UNL     1     -11.705   8.576  72.086  1.00  0.00    -0.448 A  
HETATM   13  C   UNL     1     -10.736   8.662  71.082  1.00  0.00    -0.240 A  
HETATM   14  C   UNL     1     -10.749   9.727  70.170  1.00  0.00    -0.339 A  
BRANCH  13  15
HETATM   15  S   UNL     1      -9.392   7.492  71.054  1.00  0.00    -0.155 S  
HETATM   16  O   UNL     1      -9.156   7.057  72.414  1.00  0.00    -0.133 OA 
HETATM   17  O   UNL     1      -8.328   8.077  70.263  1.00  0.00    -0.121 OA 
BRANCH  15  18
HETATM   18  N   UNL     1      -9.980   6.199  70.148  1.00  0.00    -0.170 N  
HETATM   19  H   UNL     1     -10.788   6.324  69.539  1.00  0.00     0.000 HD 
BRANCH  18  20
HETATM   20  C   UNL     1      -9.344   4.936  70.241  1.00  0.00    -0.154 A  
HETATM   21  C   UNL     1      -9.785   3.999  71.174  1.00  0.00    -0.257 A  
HETATM   22  C   UNL     1      -9.109   2.786  71.310  1.00  0.00    -0.179 A  
HETATM   23  C   UNL     1      -8.006   2.506  70.503  1.00  0.00    -0.050 A  
HETATM   24  C   UNL     1      -7.577   3.439  69.558  1.00  0.00    -0.048 A  
HETATM   25  C   UNL     1      -8.241   4.659  69.433  1.00  0.00    -0.073 A  
ENDBRANCH  18  20
ENDBRANCH  15  18
ENDBRANCH  13  15
ENDBRANCH   8   9
ENDBRANCH   4   7
TORSDOF 5
ENDMDL
MODEL      186
REMARK 921   NORMALIZED FREE ENERGY PREDICTED BY IDOCK:   -4.92 KCAL/MOL
REMARK 922        TOTAL FREE ENERGY PREDICTED BY IDOCK:   -6.83 KCAL/MOL
REMARK 923 INTER-LIGAND FREE ENERGY PREDICTED BY IDOCK:   -6.29 KCAL/MOL
REMARK 924 INTRA-LIGAND FREE ENERGY PREDICTED BY IDOCK:   -0.54 KCAL/MOL
REMARK 927      BINDING AFFINITY PREDICTED BY RF-SCORE:    0.00 PKD
ROOT
HETATM    1  O   UNL     1     -12.900  12.812  65.171  1.00  0.00    -0.726 OA 
HETATM    2  N   UNL     1     -12.886  13.938  66.009  1.00  0.00    -0.434 N  
HETATM    3  H   UNL     1     -13.537  12.719  64.471  1.00  0.00     0.000 HD 
HETATM    4  C   UNL     1     -11.971  14.072  67.013  1.00  0.00    -0.438 C  
HETATM    5  H   UNL     1     -13.576  14.674  65.864  1.00  0.00     0.000 HD 
HETATM    6  O   UNL     1     -12.010  15.027  67.781  1.00  0.00    -0.289 OA 
ENDROOT
BRANCH   4   7
HETATM    7  C   UNL     1     -10.940  13.010  67.114  1.00  0.00    -0.293 C  
HETATM    8  C   UNL     1     -11.215  11.845  67.717  1.00  0.00    -0.330 C  
BRANCH   8   9
HETATM    9  C   UNL     1     -10.198  10.799  67.817  1.00  0.00    -0.212 A  
HETATM   10  C   UNL     1      -8.849  11.148  67.964  1.00  0.00    -0.142 A  
HETATM   11  C   UNL     1      -7.863  10.159  67.998  1.00  0.00    -0.096 A  
HETATM   12  C   UNL     1      -8.215   8.815  67.877  1.00  0.00    -0.111 A  
HETATM   13  C   UNL     1      -9.562   8.462  67.743  1.00  0.00    -0.156 A  
HETATM   14  C   UNL     1     -10.555   9.449  67.705  1.00  0.00    -0.333 A  
BRANCH  13  15
HETATM   15  S   UNL     1     -10.001   6.756  67.471  1.00  0.00    -0.155 S  
HETATM   16  O   UNL     1      -9.007   6.178  66.591  1.00  0.00    -0.122 OA 
HETATM   17  O   UNL     1     -11.409   6.723  67.128  1.00  0.00    -0.330 OA 
BRANCH  15  18
HETATM   18  N   UNL     1      -9.882   6.044  68.993  1.00  0.00    -0.142 N  
HETATM   19  H   UNL     1      -9.409   5.148  69.105  1.00  0.00     0.000 HD 
BRANCH  18  20
HETATM   20  C   UNL     1     -10.444   6.701  70.116  1.00  0.00    -0.210 A  
HETATM   21  C   UNL     1     -11.782   6.497  70.446  1.00  0.00    -0.439 A  
HETATM   22  C   UNL     1     -12.349   7.202  71.509  1.00  0.00    -0.406 A  
HETATM   23  C   UNL     1     -11.572   8.094  72.248  1.00  0.00    -0.436 A  
HETATM   24  C   UNL     1     -10.228   8.284  71.926  1.00  0.00    -0.314 A  
HETATM   25  C   UNL     1      -9.665   7.593  70.853  1.00  0.00    -0.175 A  
ENDBRANCH  18  20
ENDBRANCH  15  18
ENDBRANCH  13  15
ENDBRANCH   8   9
ENDBRANCH   4   7
TORSDOF 5
ENDMDL
MODEL      187
REMARK 921   NORMALIZED FREE ENERGY PREDICTED BY IDOCK:   -4.92 KCAL/MOL
REMARK 922        TOTAL FREE ENERGY PREDICTED BY IDOCK:   -6.83 KCAL/MOL
REMARK 923 INTER-LIGAND FREE ENERGY PREDICTED BY IDOCK:   -6.26 KCAL/MOL
REMARK 924 INTRA-LIGAND FREE ENERGY PREDICTED BY IDOCK:   -0.57 KCAL/MOL
REMARK 927      BINDING AFFINITY PREDICTED BY RF-SCORE:    0.00 PKD
ROOT
HETATM    1  O   UNL     1      -8.721  14.724  69.495  1.00  0.00    -0.408 OA 
HETATM    2  N   UNL     1      -9.640  15.286  68.596  1.00  0.00    -0.199 N  
HETATM    3  H   UNL     1      -7.941  15.193  69.771  1.00  0.00     0.000 HD 
HETATM    4  C   UNL     1     -10.759  14.612  68.201  1.00  0.00    -0.242 C  
HETATM    5  H   UNL     1      -9.468  16.222  68.229  1.00  0.00     0.000 HD 
HETATM    6  O   UNL     1     -11.520  15.086  67.364  1.00  0.00    -0.341 OA 
ENDROOT
BRANCH   4   7
HETATM    7  C   UNL     1     -10.997  13.294  68.838  1.00  0.00    -0.278 C  
HETATM    8  C   UNL     1     -11.880  13.166  69.839  1.00  0.00    -0.378 C  
BRANCH   8   9
HETATM    9  C   UNL     1     -12.113  11.866  70.466  1.00  0.00    -0.422 A  
HETATM   10  C   UNL     1     -13.006  11.759  71.540  1.00  0.00    -0.446 A  
HETATM   11  C   UNL     1     -13.189  10.534  72.187  1.00  0.00    -0.398 A  
HETATM   12  C   UNL     1     -12.476   9.410  71.772  1.00  0.00    -0.471 A  
HETATM   13  C   UNL     1     -11.593   9.510  70.692  1.00  0.00    -0.283 A  
HETATM   14  C   UNL     1     -11.403  10.737  70.041  1.00  0.00    -0.397 A  
BRANCH  13  15
HETATM   15  S   UNL     1     -10.595   8.105  70.238  1.00  0.00    -0.230 S  
HETATM   16  O   UNL     1      -9.511   8.582  69.406  1.00  0.00    -0.160 OA 
HETATM   17  O   UNL     1     -11.497   7.072  69.767  1.00  0.00    -0.217 OA 
BRANCH  15  18
HETATM   18  N   UNL     1      -9.973   7.541  71.698  1.00  0.00    -0.175 N  
HETATM   19  H   UNL     1      -9.446   8.166  72.306  1.00  0.00     0.000 HD 
BRANCH  18  20
HETATM   20  C   UNL     1     -10.190   6.192  72.074  1.00  0.00    -0.194 A  
HETATM   21  C   UNL     1      -9.333   5.194  71.614  1.00  0.00    -0.183 A  
HETATM   22  C   UNL     1      -9.594   3.859  71.928  1.00  0.00    -0.217 A  
HETATM   23  C   UNL     1     -10.698   3.529  72.715  1.00  0.00    -0.128 A  
HETATM   24  C   UNL     1     -11.544   4.532  73.188  1.00  0.00    -0.221 A  
HETATM   25  C   UNL     1     -11.295   5.865  72.859  1.00  0.00    -0.266 A  
ENDBRANCH  18  20
ENDBRANCH  15  18
ENDBRANCH  13  15
ENDBRANCH   8   9
ENDBRANCH   4   7
TORSDOF 5
ENDMDL
MODEL      188
REMARK 921   NORMALIZED FREE ENERGY PREDICTED BY IDOCK:   -4.91 KCAL/MOL
REMARK 922        TOTAL FREE ENERGY PREDICTED BY IDOCK:   -6.81 KCAL/MOL
REMARK 923 INTER-LIGAND FREE ENERGY PREDICTED BY IDOCK:   -6.12 KCAL/MOL
REMARK 924 INTRA-LIGAND FREE ENERGY PREDICTED BY IDOCK:   -0.69 KCAL/MOL
REMARK 927      BINDING AFFINITY PREDICTED BY RF-SCORE:    0.00 PKD
ROOT
HETATM    1  O   UNL     1     -11.549   4.657  65.360  1.00  0.00    -1.015 OA 
HETATM    2  N   UNL     1     -10.174   4.531  65.105  1.00  0.00    -0.395 N  
HETATM    3  H   UNL     1     -12.197   4.195  64.841  1.00  0.00     0.000 HD 
HETATM    4  C   UNL     1      -9.244   5.194  65.851  1.00  0.00    -0.158 C  
HETATM    5  H   UNL     1      -9.863   3.930  64.343  1.00  0.00     0.000 HD 
HETATM    6  O   UNL     1      -8.050   5.130  65.577  1.00  0.00    -0.109 OA 
ENDROOT
BRANCH   4   7
HETATM    7  C   UNL     1      -9.756   5.983  66.998  1.00  0.00    -0.159 C  
HETATM    8  C   UNL     1      -9.945   7.306  66.891  1.00  0.00    -0.302 C  
BRANCH   8   9
HETATM    9  C   UNL     1     -10.449   8.082  68.023  1.00  0.00    -0.243 A  
HETATM   10  C   UNL     1     -10.490   9.479  67.948  1.00  0.00    -0.293 A  
HETATM   11  C   UNL     1     -10.912  10.234  69.047  1.00  0.00    -0.274 A  
HETATM   12  C   UNL     1     -11.287   9.598  70.230  1.00  0.00    -0.311 A  
HETATM   13  C   UNL     1     -11.260   8.201  70.304  1.00  0.00    -0.182 A  
HETATM   14  C   UNL     1     -10.835   7.440  69.206  1.00  0.00    -0.153 A  
BRANCH  13  15
HETATM   15  S   UNL     1     -11.626   7.394  71.850  1.00  0.00    -0.283 S  
HETATM   16  O   UNL     1     -12.726   6.481  71.623  1.00  0.00    -0.290 OA 
HETATM   17  O   UNL     1     -11.712   8.426  72.864  1.00  0.00    -0.300 OA 
BRANCH  15  18
HETATM   18  N   UNL     1     -10.234   6.515  72.206  1.00  0.00    -0.184 N  
HETATM   19  H   UNL     1      -9.323   6.972  72.199  1.00  0.00     0.000 HD 
BRANCH  18  20
HETATM   20  C   UNL     1     -10.340   5.136  72.514  1.00  0.00    -0.204 A  
HETATM   21  C   UNL     1     -10.804   4.734  73.765  1.00  0.00    -0.379 A  
HETATM   22  C   UNL     1     -10.837   3.376  74.088  1.00  0.00    -0.213 A  
HETATM   23  C   UNL     1     -10.422   2.426  73.154  1.00  0.00    -0.236 A  
HETATM   24  C   UNL     1      -9.974   2.830  71.897  1.00  0.00    -0.210 A  
HETATM   25  C   UNL     1      -9.923   4.188  71.579  1.00  0.00    -0.230 A  
ENDBRANCH  18  20
ENDBRANCH  15  18
ENDBRANCH  13  15
ENDBRANCH   8   9
ENDBRANCH   4   7
TORSDOF 5
ENDMDL
MODEL      189
REMARK 921   NORMALIZED FREE ENERGY PREDICTED BY IDOCK:   -4.90 KCAL/MOL
REMARK 922        TOTAL FREE ENERGY PREDICTED BY IDOCK:   -6.81 KCAL/MOL
REMARK 923 INTER-LIGAND FREE ENERGY PREDICTED BY IDOCK:   -7.01 KCAL/MOL
REMARK 924 INTRA-LIGAND FREE ENERGY PREDICTED BY IDOCK:    0.20 KCAL/MOL
REMARK 927      BINDING AFFINITY PREDICTED BY RF-SCORE:    0.00 PKD
ROOT
HETATM    1  O   UNL     1     -12.100  17.016  74.111  1.00  0.00    -0.383 OA 
HETATM    2  N   UNL     1     -13.220  16.188  73.938  1.00  0.00    -0.930 N  
HETATM    3  H   UNL     1     -11.978  17.533  74.900  1.00  0.00     0.000 HD 
HETATM    4  C   UNL     1     -13.394  15.446  72.806  1.00  0.00    -0.518 C  
HETATM    5  H   UNL     1     -13.920  16.139  74.677  1.00  0.00     0.000 HD 
HETATM    6  O   UNL     1     -14.409  14.779  72.637  1.00  0.00    -0.399 OA 
ENDROOT
BRANCH   4   7
HETATM    7  C   UNL     1     -12.297  15.494  71.809  1.00  0.00    -0.475 C  
HETATM    8  C   UNL     1     -12.318  14.700  70.729  1.00  0.00    -0.398 C  
BRANCH   8   9
HETATM    9  C   UNL     1     -11.236  14.748  69.747  1.00  0.00    -0.306 A  
HETATM   10  C   UNL     1     -10.673  15.978  69.387  1.00  0.00    -0.294 A  
HETATM   11  C   UNL     1      -9.681  16.042  68.405  1.00  0.00    -0.213 A  
HETATM   12  C   UNL     1      -9.249  14.877  67.769  1.00  0.00    -0.186 A  
HETATM   13  C   UNL     1      -9.800  13.645  68.136  1.00  0.00    -0.236 A  
HETATM   14  C   UNL     1     -10.797  13.575  69.118  1.00  0.00    -0.173 A  
BRANCH  13  15
HETATM   15  S   UNL     1      -9.334  12.174  67.244  1.00  0.00    -0.188 S  
HETATM   16  O   UNL     1      -8.232  11.558  67.951  1.00  0.00    -0.123 OA 
HETATM   17  O   UNL     1      -9.213  12.538  65.847  1.00  0.00    -0.105 OA 
BRANCH  15  18
HETATM   18  N   UNL     1     -10.688  11.176  67.343  1.00  0.00    -0.233 N  
HETATM   19  H   UNL     1     -11.354  11.137  66.572  1.00  0.00     0.000 HD 
BRANCH  18  20
HETATM   20  C   UNL     1     -10.894  10.393  68.506  1.00  0.00    -0.237 A  
HETATM   21  C   UNL     1     -11.651  10.897  69.562  1.00  0.00    -0.384 A  
HETATM   22  C   UNL     1     -11.789  10.151  70.733  1.00  0.00    -0.443 A  
HETATM   23  C   UNL     1     -11.186   8.897  70.838  1.00  0.00    -0.334 A  
HETATM   24  C   UNL     1     -10.442   8.388  69.773  1.00  0.00    -0.220 A  
HETATM   25  C   UNL     1     -10.289   9.141  68.609  1.00  0.00    -0.233 A  
ENDBRANCH  18  20
ENDBRANCH  15  18
ENDBRANCH  13  15
ENDBRANCH   8   9
ENDBRANCH   4   7
TORSDOF 5
ENDMDL
MODEL      190
REMARK 921   NORMALIZED FREE ENERGY PREDICTED BY IDOCK:   -4.90 KCAL/MOL
REMARK 922        TOTAL FREE ENERGY PREDICTED BY IDOCK:   -6.80 KCAL/MOL
REMARK 923 INTER-LIGAND FREE ENERGY PREDICTED BY IDOCK:   -6.26 KCAL/MOL
REMARK 924 INTRA-LIGAND FREE ENERGY PREDICTED BY IDOCK:   -0.54 KCAL/MOL
REMARK 927      BINDING AFFINITY PREDICTED BY RF-SCORE:    0.00 PKD
ROOT
HETATM    1  O   UNL     1      -9.944   9.849  65.550  1.00  0.00    -0.304 OA 
HETATM    2  N   UNL     1      -9.282   8.681  65.139  1.00  0.00    -0.431 N  
HETATM    3  H   UNL     1     -10.179  10.533  64.932  1.00  0.00     0.000 HD 
HETATM    4  C   UNL     1      -8.946   7.699  66.025  1.00  0.00    -0.139 C  
HETATM    5  H   UNL     1      -9.047   8.563  64.154  1.00  0.00     0.000 HD 
HETATM    6  O   UNL     1      -8.308   6.715  65.667  1.00  0.00    -0.135 OA 
ENDROOT
BRANCH   4   7
HETATM    7  C   UNL     1      -9.393   7.892  67.426  1.00  0.00    -0.169 C  
HETATM    8  C   UNL     1      -8.501   8.014  68.420  1.00  0.00    -0.127 C  
BRANCH   8   9
HETATM    9  C   UNL     1      -8.944   8.203  69.800  1.00  0.00    -0.144 A  
HETATM   10  C   UNL     1      -8.001   8.274  70.833  1.00  0.00    -0.101 A  
HETATM   11  C   UNL     1      -8.415   8.391  72.162  1.00  0.00    -0.245 A  
HETATM   12  C   UNL     1      -9.775   8.432  72.471  1.00  0.00    -0.359 A  
HETATM   13  C   UNL     1     -10.720   8.375  71.441  1.00  0.00    -0.237 A  
HETATM   14  C   UNL     1     -10.310   8.253  70.106  1.00  0.00    -0.212 A  
BRANCH  13  15
HETATM   15  S   UNL     1     -12.455   8.308  71.842  1.00  0.00    -0.355 S  
HETATM   16  O   UNL     1     -12.625   8.872  73.164  1.00  0.00    -0.059 OA 
HETATM   17  O   UNL     1     -12.916   6.968  71.538  1.00  0.00    -0.382 OA 
BRANCH  15  18
HETATM   18  N   UNL     1     -13.187   9.314  70.707  1.00  0.00    -0.527 N  
HETATM   19  H   UNL     1     -13.794   8.921  69.988  1.00  0.00     0.000 HD 
BRANCH  18  20
HETATM   20  C   UNL     1     -12.953  10.711  70.758  1.00  0.00    -0.311 A  
HETATM   21  C   UNL     1     -12.224  11.334  69.748  1.00  0.00    -0.343 A  
HETATM   22  C   UNL     1     -11.935  12.696  69.842  1.00  0.00    -0.365 A  
HETATM   23  C   UNL     1     -12.390  13.433  70.935  1.00  0.00    -0.436 A  
HETATM   24  C   UNL     1     -13.134  12.810  71.937  1.00  0.00    -0.474 A  
HETATM   25  C   UNL     1     -13.408  11.445  71.853  1.00  0.00    -0.409 A  
ENDBRANCH  18  20
ENDBRANCH  15  18
ENDBRANCH  13  15
ENDBRANCH   8   9
ENDBRANCH   4   7
TORSDOF 5
ENDMDL
MODEL      191
REMARK 921   NORMALIZED FREE ENERGY PREDICTED BY IDOCK:   -4.90 KCAL/MOL
REMARK 922        TOTAL FREE ENERGY PREDICTED BY IDOCK:   -6.80 KCAL/MOL
REMARK 923 INTER-LIGAND FREE ENERGY PREDICTED BY IDOCK:   -6.44 KCAL/MOL
REMARK 924 INTRA-LIGAND FREE ENERGY PREDICTED BY IDOCK:   -0.36 KCAL/MOL
REMARK 927      BINDING AFFINITY PREDICTED BY RF-SCORE:    0.00 PKD
ROOT
HETATM    1  O   UNL     1      -6.096  11.276  70.967  1.00  0.00    -0.399 OA 
HETATM    2  N   UNL     1      -5.690  10.327  70.016  1.00  0.00    -0.046 N  
HETATM    3  H   UNL     1      -5.754  11.272  71.854  1.00  0.00     0.000 HD 
HETATM    4  C   UNL     1      -6.181  10.334  68.743  1.00  0.00    -0.047 C  
HETATM    5  H   UNL     1      -5.010   9.616  70.283  1.00  0.00     0.000 HD 
HETATM    6  O   UNL     1      -5.870   9.460  67.940  1.00  0.00    -0.044 OA 
ENDROOT
BRANCH   4   7
HETATM    7  C   UNL     1      -7.097  11.446  68.393  1.00  0.00    -0.079 C  
HETATM    8  C   UNL     1      -6.632  12.695  68.242  1.00  0.00    -0.079 C  
BRANCH   8   9
HETATM    9  C   UNL     1      -7.537  13.791  67.898  1.00  0.00    -0.157 A  
HETATM   10  C   UNL     1      -7.029  14.958  67.315  1.00  0.00    -0.052 A  
HETATM   11  C   UNL     1      -7.875  16.036  67.039  1.00  0.00    -0.263 A  
HETATM   12  C   UNL     1      -9.232  15.959  67.351  1.00  0.00    -0.207 A  
HETATM   13  C   UNL     1      -9.745  14.789  67.922  1.00  0.00    -0.211 A  
HETATM   14  C   UNL     1      -8.901  13.706  68.204  1.00  0.00    -0.189 A  
BRANCH  13  15
HETATM   15  S   UNL     1     -11.453  14.733  68.428  1.00  0.00    -0.329 S  
HETATM   16  O   UNL     1     -12.143  13.807  67.555  1.00  0.00    -0.384 OA 
HETATM   17  O   UNL     1     -11.905  16.102  68.569  1.00  0.00    -0.300 OA 
BRANCH  15  18
HETATM   18  N   UNL     1     -11.408  14.101  69.989  1.00  0.00    -0.451 N  
HETATM   19  H   UNL     1     -10.871  13.258  70.186  1.00  0.00     0.000 HD 
BRANCH  18  20
HETATM   20  C   UNL     1     -12.122  14.752  71.026  1.00  0.00    -0.330 A  
HETATM   21  C   UNL     1     -11.436  15.482  71.994  1.00  0.00    -0.515 A  
HETATM   22  C   UNL     1     -12.139  16.060  73.053  1.00  0.00    -0.628 A  
HETATM   23  C   UNL     1     -13.525  15.920  73.131  1.00  0.00    -0.650 A  
HETATM   24  C   UNL     1     -14.211  15.203  72.151  1.00  0.00    -0.656 A  
HETATM   25  C   UNL     1     -13.508  14.610  71.102  1.00  0.00    -0.425 A  
ENDBRANCH  18  20
ENDBRANCH  15  18
ENDBRANCH  13  15
ENDBRANCH   8   9
ENDBRANCH   4   7
TORSDOF 5
ENDMDL
MODEL      192
REMARK 921   NORMALIZED FREE ENERGY PREDICTED BY IDOCK:   -4.88 KCAL/MOL
REMARK 922        TOTAL FREE ENERGY PREDICTED BY IDOCK:   -6.77 KCAL/MOL
REMARK 923 INTER-LIGAND FREE ENERGY PREDICTED BY IDOCK:   -6.17 KCAL/MOL
REMARK 924 INTRA-LIGAND FREE ENERGY PREDICTED BY IDOCK:   -0.60 KCAL/MOL
REMARK 927      BINDING AFFINITY PREDICTED BY RF-SCORE:    0.00 PKD
ROOT
HETATM    1  O   UNL     1      -7.597  18.828  68.849  1.00  0.00    -0.316 OA 
HETATM    2  N   UNL     1      -8.332  19.692  68.021  1.00  0.00    -0.302 N  
HETATM    3  H   UNL     1      -6.723  19.049  69.150  1.00  0.00     0.000 HD 
HETATM    4  C   UNL     1      -9.586  19.374  67.589  1.00  0.00    -0.324 C  
HETATM    5  H   UNL     1      -7.917  20.578  67.735  1.00  0.00     0.000 HD 
HETATM    6  O   UNL     1     -10.191  20.105  66.811  1.00  0.00    -0.445 OA 
ENDROOT
BRANCH   4   7
HETATM    7  C   UNL     1     -10.166  18.113  68.110  1.00  0.00    -0.400 C  
HETATM    8  C   UNL     1     -10.403  17.078  67.292  1.00  0.00    -0.311 C  
BRANCH   8   9
HETATM    9  C   UNL     1     -10.975  15.835  67.807  1.00  0.00    -0.314 A  
HETATM   10  C   UNL     1     -11.779  15.859  68.954  1.00  0.00    -0.376 A  
HETATM   11  C   UNL     1     -12.280  14.670  69.491  1.00  0.00    -0.297 A  
HETATM   12  C   UNL     1     -11.976  13.448  68.892  1.00  0.00    -0.362 A  
HETATM   13  C   UNL     1     -11.185  13.422  67.738  1.00  0.00    -0.279 A  
HETATM   14  C   UNL     1     -10.677  14.610  67.197  1.00  0.00    -0.292 A  
BRANCH  13  15
HETATM   15  S   UNL     1     -10.700  11.855  67.040  1.00  0.00    -0.252 S  
HETATM   16  O   UNL     1     -11.813  11.354  66.262  1.00  0.00    -0.256 OA 
HETATM   17  O   UNL     1     -10.124  11.067  68.111  1.00  0.00    -0.170 OA 
BRANCH  15  18
HETATM   18  N   UNL     1      -9.422  12.232  66.009  1.00  0.00    -0.340 N  
HETATM   19  H   UNL     1      -8.828  13.038  66.201  1.00  0.00     0.000 HD 
BRANCH  18  20
HETATM   20  C   UNL     1      -9.180  11.420  64.873  1.00  0.00    -0.058 A  
HETATM   21  C   UNL     1      -9.605  11.838  63.613  1.00  0.00    -0.210 A  
HETATM   22  C   UNL     1      -9.428  11.001  62.510  1.00  0.00    -0.263 A  
HETATM   23  C   UNL     1      -8.813   9.759  62.666  1.00  0.00    -0.250 A  
HETATM   24  C   UNL     1      -8.373   9.351  63.926  1.00  0.00    -0.175 A  
HETATM   25  C   UNL     1      -8.566  10.178  65.032  1.00  0.00    -0.178 A  
ENDBRANCH  18  20
ENDBRANCH  15  18
ENDBRANCH  13  15
ENDBRANCH   8   9
ENDBRANCH   4   7
TORSDOF 5
ENDMDL
MODEL      193
REMARK 921   NORMALIZED FREE ENERGY PREDICTED BY IDOCK:   -4.87 KCAL/MOL
REMARK 922        TOTAL FREE ENERGY PREDICTED BY IDOCK:   -6.77 KCAL/MOL
REMARK 923 INTER-LIGAND FREE ENERGY PREDICTED BY IDOCK:   -6.19 KCAL/MOL
REMARK 924 INTRA-LIGAND FREE ENERGY PREDICTED BY IDOCK:   -0.58 KCAL/MOL
REMARK 927      BINDING AFFINITY PREDICTED BY RF-SCORE:    0.00 PKD
ROOT
HETATM    1  O   UNL     1     -10.884  11.297  63.027  1.00  0.00    -0.778 OA 
HETATM    2  N   UNL     1     -11.421  12.593  63.035  1.00  0.00    -0.738 N  
HETATM    3  H   UNL     1     -10.777  10.805  62.221  1.00  0.00     0.000 HD 
HETATM    4  C   UNL     1     -11.574  13.299  64.193  1.00  0.00    -0.405 C  
HETATM    5  H   UNL     1     -11.705  13.019  62.152  1.00  0.00     0.000 HD 
HETATM    6  O   UNL     1     -12.106  14.404  64.195  1.00  0.00    -0.461 OA 
ENDROOT
BRANCH   4   7
HETATM    7  C   UNL     1     -11.061  12.659  65.429  1.00  0.00    -0.327 C  
HETATM    8  C   UNL     1     -11.878  11.952  66.223  1.00  0.00    -0.110 C  
BRANCH   8   9
HETATM    9  C   UNL     1     -11.371  11.323  67.442  1.00  0.00    -0.349 A  
HETATM   10  C   UNL     1     -11.838  11.747  68.692  1.00  0.00    -0.369 A  
HETATM   11  C   UNL     1     -11.316  11.196  69.866  1.00  0.00    -0.348 A  
HETATM   12  C   UNL     1     -10.318  10.223  69.799  1.00  0.00    -0.287 A  
HETATM   13  C   UNL     1      -9.859   9.788  68.551  1.00  0.00    -0.156 A  
HETATM   14  C   UNL     1     -10.377  10.339  67.371  1.00  0.00    -0.282 A  
BRANCH  13  15
HETATM   15  S   UNL     1      -8.504   8.633  68.466  1.00  0.00    -0.131 S  
HETATM   16  O   UNL     1      -7.882   8.585  69.772  1.00  0.00    -0.090 OA 
HETATM   17  O   UNL     1      -7.732   8.961  67.285  1.00  0.00    -0.092 OA 
BRANCH  15  18
HETATM   18  N   UNL     1      -9.236   7.151  68.140  1.00  0.00    -0.132 N  
HETATM   19  H   UNL     1      -9.538   6.925  67.193  1.00  0.00     0.000 HD 
BRANCH  18  20
HETATM   20  C   UNL     1      -9.428   6.222  69.193  1.00  0.00    -0.133 A  
HETATM   21  C   UNL     1     -10.611   6.235  69.929  1.00  0.00    -0.308 A  
HETATM   22  C   UNL     1     -10.764   5.366  71.010  1.00  0.00    -0.239 A  
HETATM   23  C   UNL     1      -9.742   4.475  71.341  1.00  0.00    -0.248 A  
HETATM   24  C   UNL     1      -8.565   4.453  70.592  1.00  0.00    -0.110 A  
HETATM   25  C   UNL     1      -8.404   5.333  69.522  1.00  0.00    -0.095 A  
ENDBRANCH  18  20
ENDBRANCH  15  18
ENDBRANCH  13  15
ENDBRANCH   8   9
ENDBRANCH   4   7
TORSDOF 5
ENDMDL
MODEL      194
REMARK 921   NORMALIZED FREE ENERGY PREDICTED BY IDOCK:   -4.87 KCAL/MOL
REMARK 922        TOTAL FREE ENERGY PREDICTED BY IDOCK:   -6.77 KCAL/MOL
REMARK 923 INTER-LIGAND FREE ENERGY PREDICTED BY IDOCK:   -6.27 KCAL/MOL
REMARK 924 INTRA-LIGAND FREE ENERGY PREDICTED BY IDOCK:   -0.50 KCAL/MOL
REMARK 927      BINDING AFFINITY PREDICTED BY RF-SCORE:    0.00 PKD
ROOT
HETATM    1  O   UNL     1      -7.848  18.195  65.598  1.00  0.00    -0.520 OA 
HETATM    2  N   UNL     1      -8.801  18.791  66.439  1.00  0.00    -0.310 N  
HETATM    3  H   UNL     1      -6.973  18.554  65.502  1.00  0.00     0.000 HD 
HETATM    4  C   UNL     1     -10.057  18.276  66.576  1.00  0.00    -0.385 C  
HETATM    5  H   UNL     1      -8.549  19.630  66.960  1.00  0.00     0.000 HD 
HETATM    6  O   UNL     1     -10.902  18.843  67.261  1.00  0.00    -0.458 OA 
ENDROOT
BRANCH   4   7
HETATM    7  C   UNL     1     -10.332  17.006  65.860  1.00  0.00    -0.310 C  
HETATM    8  C   UNL     1     -10.533  15.867  66.539  1.00  0.00    -0.305 C  
BRANCH   8   9
HETATM    9  C   UNL     1     -10.804  14.616  65.832  1.00  0.00    -0.312 A  
HETATM   10  C   UNL     1     -11.468  14.640  64.600  1.00  0.00    -0.389 A  
HETATM   11  C   UNL     1     -11.787  13.446  63.946  1.00  0.00    -0.492 A  
HETATM   12  C   UNL     1     -11.451  12.221  64.522  1.00  0.00    -0.401 A  
HETATM   13  C   UNL     1     -10.775  12.194  65.746  1.00  0.00    -0.267 A  
HETATM   14  C   UNL     1     -10.456  13.387  66.408  1.00  0.00    -0.286 A  
BRANCH  13  15
HETATM   15  S   UNL     1     -10.451  10.630  66.537  1.00  0.00    -0.196 S  
HETATM   16  O   UNL     1     -10.129   9.670  65.503  1.00  0.00    -0.290 OA 
HETATM   17  O   UNL     1     -11.533  10.387  67.470  1.00  0.00    -0.386 OA 
BRANCH  15  18
HETATM   18  N   UNL     1      -9.085  10.913  67.482  1.00  0.00    -0.140 N  
HETATM   19  H   UNL     1      -8.581  11.796  67.405  1.00  0.00     0.000 HD 
BRANCH  18  20
HETATM   20  C   UNL     1      -8.642   9.914  68.385  1.00  0.00    -0.116 A  
HETATM   21  C   UNL     1      -8.975   9.998  69.736  1.00  0.00    -0.209 A  
HETATM   22  C   UNL     1      -8.475   9.051  70.632  1.00  0.00    -0.229 A  
HETATM   23  C   UNL     1      -7.661   8.016  70.172  1.00  0.00    -0.081 A  
HETATM   24  C   UNL     1      -7.343   7.925  68.816  1.00  0.00    -0.086 A  
HETATM   25  C   UNL     1      -7.827   8.881  67.923  1.00  0.00    -0.102 A  
ENDBRANCH  18  20
ENDBRANCH  15  18
ENDBRANCH  13  15
ENDBRANCH   8   9
ENDBRANCH   4   7
TORSDOF 5
ENDMDL
MODEL      195
REMARK 921   NORMALIZED FREE ENERGY PREDICTED BY IDOCK:   -4.84 KCAL/MOL
REMARK 922        TOTAL FREE ENERGY PREDICTED BY IDOCK:   -6.73 KCAL/MOL
REMARK 923 INTER-LIGAND FREE ENERGY PREDICTED BY IDOCK:   -5.94 KCAL/MOL
REMARK 924 INTRA-LIGAND FREE ENERGY PREDICTED BY IDOCK:   -0.79 KCAL/MOL
REMARK 927      BINDING AFFINITY PREDICTED BY RF-SCORE:    0.00 PKD
ROOT
HETATM    1  O   UNL     1      -7.022  11.767  70.176  1.00  0.00    -0.408 OA 
HETATM    2  N   UNL     1      -7.298  12.402  68.955  1.00  0.00    -0.293 N  
HETATM    3  H   UNL     1      -6.314  12.057  70.740  1.00  0.00     0.000 HD 
HETATM    4  C   UNL     1      -8.316  11.986  68.146  1.00  0.00    -0.165 C  
HETATM    5  H   UNL     1      -6.725  13.193  68.665  1.00  0.00     0.000 HD 
HETATM    6  O   UNL     1      -8.505  12.504  67.051  1.00  0.00    -0.181 OA 
ENDROOT
BRANCH   4   7
HETATM    7  C   UNL     1      -9.167  10.888  68.666  1.00  0.00    -0.187 C  
HETATM    8  C   UNL     1      -8.966   9.622  68.274  1.00  0.00    -0.123 C  
BRANCH   8   9
HETATM    9  C   UNL     1      -9.806   8.540  68.786  1.00  0.00    -0.180 A  
HETATM   10  C   UNL     1      -9.915   7.342  68.070  1.00  0.00    -0.186 A  
HETATM   11  C   UNL     1     -10.764   6.326  68.518  1.00  0.00    -0.354 A  
HETATM   12  C   UNL     1     -11.515   6.502  69.680  1.00  0.00    -0.417 A  
HETATM   13  C   UNL     1     -11.398   7.693  70.405  1.00  0.00    -0.219 A  
HETATM   14  C   UNL     1     -10.551   8.716  69.959  1.00  0.00    -0.233 A  
BRANCH  13  15
HETATM   15  S   UNL     1     -12.443   7.965  71.823  1.00  0.00    -0.331 S  
HETATM   16  O   UNL     1     -13.622   7.140  71.668  1.00  0.00    -0.377 OA 
HETATM   17  O   UNL     1     -12.555   9.398  72.006  1.00  0.00    -0.371 OA 
BRANCH  15  18
HETATM   18  N   UNL     1     -11.536   7.405  73.127  1.00  0.00    -0.604 N  
HETATM   19  H   UNL     1     -11.572   7.889  74.023  1.00  0.00     0.000 HD 
BRANCH  18  20
HETATM   20  C   UNL     1     -10.722   6.256  72.968  1.00  0.00    -0.253 A  
HETATM   21  C   UNL     1      -9.380   6.394  72.619  1.00  0.00    -0.142 A  
HETATM   22  C   UNL     1      -8.603   5.257  72.393  1.00  0.00    -0.122 A  
HETATM   23  C   UNL     1      -9.164   3.987  72.533  1.00  0.00    -0.148 A  
HETATM   24  C   UNL     1     -10.504   3.852  72.898  1.00  0.00    -0.247 A  
HETATM   25  C   UNL     1     -11.286   4.988  73.107  1.00  0.00    -0.397 A  
ENDBRANCH  18  20
ENDBRANCH  15  18
ENDBRANCH  13  15
ENDBRANCH   8   9
ENDBRANCH   4   7
TORSDOF 5
ENDMDL
MODEL      196
REMARK 921   NORMALIZED FREE ENERGY PREDICTED BY IDOCK:   -4.83 KCAL/MOL
REMARK 922        TOTAL FREE ENERGY PREDICTED BY IDOCK:   -6.72 KCAL/MOL
REMARK 923 INTER-LIGAND FREE ENERGY PREDICTED BY IDOCK:   -6.11 KCAL/MOL
REMARK 924 INTRA-LIGAND FREE ENERGY PREDICTED BY IDOCK:   -0.61 KCAL/MOL
REMARK 927      BINDING AFFINITY PREDICTED BY RF-SCORE:    0.00 PKD
ROOT
HETATM    1  O   UNL     1     -13.044   9.568  71.604  1.00  0.00    -0.351 OA 
HETATM    2  N   UNL     1     -12.583   8.622  72.534  1.00  0.00    -0.505 N  
HETATM    3  H   UNL     1     -13.876  10.013  71.716  1.00  0.00     0.000 HD 
HETATM    4  C   UNL     1     -11.387   7.984  72.373  1.00  0.00    -0.382 C  
HETATM    5  H   UNL     1     -13.156   8.407  73.349  1.00  0.00     0.000 HD 
HETATM    6  O   UNL     1     -11.026   7.112  73.155  1.00  0.00    -0.310 OA 
ENDROOT
BRANCH   4   7
HETATM    7  C   UNL     1     -10.563   8.407  71.215  1.00  0.00    -0.279 C  
HETATM    8  C   UNL     1      -9.371   8.993  71.400  1.00  0.00    -0.310 C  
BRANCH   8   9
HETATM    9  C   UNL     1      -8.560   9.410  70.257  1.00  0.00    -0.249 A  
HETATM   10  C   UNL     1      -7.206   9.719  70.437  1.00  0.00    -0.149 A  
HETATM   11  C   UNL     1      -6.437  10.177  69.365  1.00  0.00    -0.050 A  
HETATM   12  C   UNL     1      -7.016  10.338  68.106  1.00  0.00    -0.074 A  
HETATM   13  C   UNL     1      -8.365  10.018  67.919  1.00  0.00    -0.117 A  
HETATM   14  C   UNL     1      -9.142   9.560  68.992  1.00  0.00    -0.144 A  
BRANCH  13  15
HETATM   15  S   UNL     1      -9.133  10.333  66.342  1.00  0.00    -0.156 S  
HETATM   16  O   UNL     1     -10.507   9.884  66.422  1.00  0.00    -0.205 OA 
HETATM   17  O   UNL     1      -8.241   9.826  65.320  1.00  0.00    -0.126 OA 
BRANCH  15  18
HETATM   18  N   UNL     1      -9.102  12.010  66.188  1.00  0.00    -0.352 N  
HETATM   19  H   UNL     1      -8.230  12.522  66.319  1.00  0.00     0.000 HD 
BRANCH  18  20
HETATM   20  C   UNL     1     -10.297  12.705  65.875  1.00  0.00    -0.276 A  
HETATM   21  C   UNL     1     -10.634  12.949  64.545  1.00  0.00    -0.403 A  
HETATM   22  C   UNL     1     -11.775  13.696  64.246  1.00  0.00    -0.438 A  
HETATM   23  C   UNL     1     -12.582  14.181  65.275  1.00  0.00    -0.460 A  
HETATM   24  C   UNL     1     -12.251  13.921  66.605  1.00  0.00    -0.465 A  
HETATM   25  C   UNL     1     -11.102  13.190  66.906  1.00  0.00    -0.308 A  
ENDBRANCH  18  20
ENDBRANCH  15  18
ENDBRANCH  13  15
ENDBRANCH   8   9
ENDBRANCH   4   7
TORSDOF 5
ENDMDL
MODEL      197
REMARK 921   NORMALIZED FREE ENERGY PREDICTED BY IDOCK:   -4.83 KCAL/MOL
REMARK 922        TOTAL FREE ENERGY PREDICTED BY IDOCK:   -6.72 KCAL/MOL
REMARK 923 INTER-LIGAND FREE ENERGY PREDICTED BY IDOCK:   -6.24 KCAL/MOL
REMARK 924 INTRA-LIGAND FREE ENERGY PREDICTED BY IDOCK:   -0.48 KCAL/MOL
REMARK 927      BINDING AFFINITY PREDICTED BY RF-SCORE:    0.00 PKD
ROOT
HETATM    1  O   UNL     1     -12.023  15.176  74.480  1.00  0.00    -0.689 OA 
HETATM    2  N   UNL     1     -13.107  15.611  73.701  1.00  0.00    -0.654 N  
HETATM    3  H   UNL     1     -11.753  15.642  75.263  1.00  0.00     0.000 HD 
HETATM    4  C   UNL     1     -13.495  14.943  72.576  1.00  0.00    -0.446 C  
HETATM    5  H   UNL     1     -13.618  16.447  73.983  1.00  0.00     0.000 HD 
HETATM    6  O   UNL     1     -14.400  15.369  71.868  1.00  0.00    -0.526 OA 
ENDROOT
BRANCH   4   7
HETATM    7  C   UNL     1     -12.768  13.687  72.270  1.00  0.00    -0.237 C  
HETATM    8  C   UNL     1     -13.349  12.718  71.548  1.00  0.00    -0.232 C  
BRANCH   8   9
HETATM    9  C   UNL     1     -12.632  11.479  71.248  1.00  0.00    -0.452 A  
HETATM   10  C   UNL     1     -12.787  10.363  72.080  1.00  0.00    -0.447 A  
HETATM   11  C   UNL     1     -12.059   9.195  71.838  1.00  0.00    -0.448 A  
HETATM   12  C   UNL     1     -11.165   9.136  70.768  1.00  0.00    -0.336 A  
HETATM   13  C   UNL     1     -11.018  10.245  69.928  1.00  0.00    -0.303 A  
HETATM   14  C   UNL     1     -11.743  11.420  70.167  1.00  0.00    -0.414 A  
BRANCH  13  15
HETATM   15  S   UNL     1      -9.793  10.210  68.634  1.00  0.00    -0.170 S  
HETATM   16  O   UNL     1     -10.148  11.221  67.661  1.00  0.00    -0.176 OA 
HETATM   17  O   UNL     1      -9.620   8.826  68.242  1.00  0.00    -0.143 OA 
BRANCH  15  18
HETATM   18  N   UNL     1      -8.360  10.653  69.401  1.00  0.00    -0.341 N  
HETATM   19  H   UNL     1      -8.057  11.626  69.402  1.00  0.00     0.000 HD 
BRANCH  18  20
HETATM   20  C   UNL     1      -7.579   9.662  70.046  1.00  0.00    -0.147 A  
HETATM   21  C   UNL     1      -6.569   9.004  69.346  1.00  0.00    -0.044 A  
HETATM   22  C   UNL     1      -5.852   7.978  69.964  1.00  0.00    -0.022 A  
HETATM   23  C   UNL     1      -6.135   7.626  71.284  1.00  0.00    -0.035 A  
HETATM   24  C   UNL     1      -7.135   8.297  71.988  1.00  0.00    -0.099 A  
HETATM   25  C   UNL     1      -7.864   9.310  71.365  1.00  0.00     0.124 A  
ENDBRANCH  18  20
ENDBRANCH  15  18
ENDBRANCH  13  15
ENDBRANCH   8   9
ENDBRANCH   4   7
TORSDOF 5
ENDMDL
MODEL      198
REMARK 921   NORMALIZED FREE ENERGY PREDICTED BY IDOCK:   -4.79 KCAL/MOL
REMARK 922        TOTAL FREE ENERGY PREDICTED BY IDOCK:   -6.66 KCAL/MOL
REMARK 923 INTER-LIGAND FREE ENERGY PREDICTED BY IDOCK:   -6.16 KCAL/MOL
REMARK 924 INTRA-LIGAND FREE ENERGY PREDICTED BY IDOCK:   -0.50 KCAL/MOL
REMARK 927      BINDING AFFINITY PREDICTED BY RF-SCORE:    0.00 PKD
ROOT
HETATM    1  O   UNL     1     -10.651  18.266  67.368  1.00  0.00    -0.404 OA 
HETATM    2  N   UNL     1     -10.739  17.899  68.720  1.00  0.00    -0.304 N  
HETATM    3  H   UNL     1     -10.496  19.166  67.105  1.00  0.00     0.000 HD 
HETATM    4  C   UNL     1     -10.961  16.606  69.098  1.00  0.00    -0.276 C  
HETATM    5  H   UNL     1     -10.634  18.615  69.438  1.00  0.00     0.000 HD 
HETATM    6  O   UNL     1     -11.103  16.308  70.279  1.00  0.00    -0.357 OA 
ENDROOT
BRANCH   4   7
HETATM    7  C   UNL     1     -11.016  15.600  68.010  1.00  0.00    -0.318 C  
HETATM    8  C   UNL     1      -9.928  14.890  67.678  1.00  0.00    -0.226 C  
BRANCH   8   9
HETATM    9  C   UNL     1      -9.984  13.898  66.605  1.00  0.00    -0.279 A  
HETATM   10  C   UNL     1     -10.483  14.258  65.347  1.00  0.00    -0.382 A  
HETATM   11  C   UNL     1     -10.598  13.304  64.333  1.00  0.00    -0.438 A  
HETATM   12  C   UNL     1     -10.224  11.981  64.571  1.00  0.00    -0.318 A  
HETATM   13  C   UNL     1      -9.713  11.621  65.822  1.00  0.00    -0.236 A  
HETATM   14  C   UNL     1      -9.598  12.573  66.844  1.00  0.00    -0.229 A  
BRANCH  13  15
HETATM   15  S   UNL     1      -9.345   9.911  66.163  1.00  0.00    -0.196 S  
HETATM   16  O   UNL     1      -8.232   9.873  67.088  1.00  0.00    -0.119 OA 
HETATM   17  O   UNL     1      -9.279   9.223  64.889  1.00  0.00    -0.225 OA 
BRANCH  15  18
HETATM   18  N   UNL     1     -10.727   9.328  66.929  1.00  0.00    -0.163 N  
HETATM   19  H   UNL     1     -11.613   9.824  66.836  1.00  0.00     0.000 HD 
BRANCH  18  20
HETATM   20  C   UNL     1     -10.649   8.144  67.703  1.00  0.00    -0.188 A  
HETATM   21  C   UNL     1     -10.461   8.223  69.082  1.00  0.00    -0.217 A  
HETATM   22  C   UNL     1     -10.312   7.053  69.828  1.00  0.00    -0.225 A  
HETATM   23  C   UNL     1     -10.369   5.809  69.198  1.00  0.00    -0.316 A  
HETATM   24  C   UNL     1     -10.574   5.733  67.820  1.00  0.00    -0.310 A  
HETATM   25  C   UNL     1     -10.705   6.902  67.070  1.00  0.00    -0.432 A  
ENDBRANCH  18  20
ENDBRANCH  15  18
ENDBRANCH  13  15
ENDBRANCH   8   9
ENDBRANCH   4   7
TORSDOF 5
ENDMDL
MODEL      199
REMARK 921   NORMALIZED FREE ENERGY PREDICTED BY IDOCK:   -4.78 KCAL/MOL
REMARK 922        TOTAL FREE ENERGY PREDICTED BY IDOCK:   -6.64 KCAL/MOL
REMARK 923 INTER-LIGAND FREE ENERGY PREDICTED BY IDOCK:   -5.85 KCAL/MOL
REMARK 924 INTRA-LIGAND FREE ENERGY PREDICTED BY IDOCK:   -0.80 KCAL/MOL
REMARK 927      BINDING AFFINITY PREDICTED BY RF-SCORE:    0.00 PKD
ROOT
HETATM    1  O   UNL     1     -12.487  14.518  66.683  1.00  0.00    -0.494 OA 
HETATM    2  N   UNL     1     -12.962  13.965  65.483  1.00  0.00    -0.697 N  
HETATM    3  H   UNL     1     -12.807  15.351  67.010  1.00  0.00     0.000 HD 
HETATM    4  C   UNL     1     -12.501  12.769  65.014  1.00  0.00    -0.506 C  
HETATM    5  H   UNL     1     -13.669  14.469  64.949  1.00  0.00     0.000 HD 
HETATM    6  O   UNL     1     -12.874  12.328  63.932  1.00  0.00    -0.720 OA 
ENDROOT
BRANCH   4   7
HETATM    7  C   UNL     1     -11.540  12.045  65.880  1.00  0.00    -0.364 C  
HETATM    8  C   UNL     1     -10.246  11.954  65.541  1.00  0.00    -0.290 C  
BRANCH   8   9
HETATM    9  C   UNL     1      -9.299  11.240  66.396  1.00  0.00    -0.210 A  
HETATM   10  C   UNL     1      -8.329  11.952  67.111  1.00  0.00    -0.174 A  
HETATM   11  C   UNL     1      -7.380  11.275  67.882  1.00  0.00    -0.092 A  
HETATM   12  C   UNL     1      -7.388   9.881  67.938  1.00  0.00    -0.088 A  
HETATM   13  C   UNL     1      -8.364   9.167  67.234  1.00  0.00    -0.121 A  
HETATM   14  C   UNL     1      -9.316   9.841  66.457  1.00  0.00    -0.207 A  
BRANCH  13  15
HETATM   15  S   UNL     1      -8.304   7.386  67.211  1.00  0.00    -0.119 S  
HETATM   16  O   UNL     1      -6.985   6.982  67.650  1.00  0.00    -0.077 OA 
HETATM   17  O   UNL     1      -8.828   6.955  65.931  1.00  0.00    -0.155 OA 
BRANCH  15  18
HETATM   18  N   UNL     1      -9.444   6.912  68.357  1.00  0.00    -0.129 N  
HETATM   19  H   UNL     1     -10.118   6.180  68.138  1.00  0.00     0.000 HD 
BRANCH  18  20
HETATM   20  C   UNL     1      -9.458   7.540  69.628  1.00  0.00    -0.156 A  
HETATM   21  C   UNL     1      -8.571   7.127  70.620  1.00  0.00    -0.143 A  
HETATM   22  C   UNL     1      -8.639   7.699  71.891  1.00  0.00    -0.131 A  
HETATM   23  C   UNL     1      -9.581   8.692  72.161  1.00  0.00    -0.378 A  
HETATM   24  C   UNL     1     -10.457   9.115  71.161  1.00  0.00    -0.385 A  
HETATM   25  C   UNL     1     -10.401   8.532  69.895  1.00  0.00    -0.210 A  
ENDBRANCH  18  20
ENDBRANCH  15  18
ENDBRANCH  13  15
ENDBRANCH   8   9
ENDBRANCH   4   7
TORSDOF 5
ENDMDL
MODEL      200
REMARK 921   NORMALIZED FREE ENERGY PREDICTED BY IDOCK:   -4.76 KCAL/MOL
REMARK 922        TOTAL FREE ENERGY PREDICTED BY IDOCK:   -6.62 KCAL/MOL
REMARK 923 INTER-LIGAND FREE ENERGY PREDICTED BY IDOCK:   -6.00 KCAL/MOL
REMARK 924 INTRA-LIGAND FREE ENERGY PREDICTED BY IDOCK:   -0.63 KCAL/MOL
REMARK 927      BINDING AFFINITY PREDICTED BY RF-SCORE:    0.00 PKD
ROOT
HETATM    1  O   UNL     1      -8.376  17.762  68.297  1.00  0.00    -0.259 OA 
HETATM    2  N   UNL     1      -8.915  18.715  67.418  1.00  0.00    -0.271 N  
HETATM    3  H   UNL     1      -7.698  17.988  68.924  1.00  0.00     0.000 HD 
HETATM    4  C   UNL     1      -9.888  18.390  66.518  1.00  0.00    -0.359 C  
HETATM    5  H   UNL     1      -8.570  19.674  67.453  1.00  0.00     0.000 HD 
HETATM    6  O   UNL     1     -10.303  19.214  65.710  1.00  0.00    -0.498 OA 
ENDROOT
BRANCH   4   7
HETATM    7  C   UNL     1     -10.407  17.002  66.579  1.00  0.00    -0.298 C  
HETATM    8  C   UNL     1     -10.041  16.094  65.663  1.00  0.00    -0.366 C  
BRANCH   8   9
HETATM    9  C   UNL     1     -10.555  14.726  65.724  1.00  0.00    -0.338 A  
HETATM   10  C   UNL     1     -11.806  14.475  66.299  1.00  0.00    -0.354 A  
HETATM   11  C   UNL     1     -12.280  13.165  66.418  1.00  0.00    -0.396 A  
HETATM   12  C   UNL     1     -11.502  12.096  65.970  1.00  0.00    -0.427 A  
HETATM   13  C   UNL     1     -10.257  12.345  65.383  1.00  0.00    -0.278 A  
HETATM   14  C   UNL     1      -9.777  13.656  65.264  1.00  0.00    -0.025 A  
BRANCH  13  15
HETATM   15  S   UNL     1      -9.215  10.976  64.918  1.00  0.00    -0.153 S  
HETATM   16  O   UNL     1      -8.063  10.980  65.794  1.00  0.00    -0.135 OA 
HETATM   17  O   UNL     1      -9.057  11.025  63.479  1.00  0.00    -0.203 OA 
BRANCH  15  18
HETATM   18  N   UNL     1     -10.151   9.611  65.232  1.00  0.00    -0.340 N  
HETATM   19  H   UNL     1     -10.933   9.374  64.623  1.00  0.00     0.000 HD 
BRANCH  18  20
HETATM   20  C   UNL     1      -9.842   8.795  66.349  1.00  0.00    -0.282 A  
HETATM   21  C   UNL     1      -8.981   7.709  66.203  1.00  0.00    -0.197 A  
HETATM   22  C   UNL     1      -8.738   6.867  67.289  1.00  0.00    -0.119 A  
HETATM   23  C   UNL     1      -9.342   7.123  68.521  1.00  0.00    -0.136 A  
HETATM   24  C   UNL     1     -10.190   8.220  68.668  1.00  0.00    -0.223 A  
HETATM   25  C   UNL     1     -10.448   9.052  67.578  1.00  0.00    -0.338 A  
ENDBRANCH  18  20
ENDBRANCH  15  18
ENDBRANCH  13  15
ENDBRANCH   8   9
ENDBRANCH   4   7
TORSDOF 5
ENDMDL
MODEL      201
REMARK 921   NORMALIZED FREE ENERGY PREDICTED BY IDOCK:   -4.75 KCAL/MOL
REMARK 922        TOTAL FREE ENERGY PREDICTED BY IDOCK:   -6.61 KCAL/MOL
REMARK 923 INTER-LIGAND FREE ENERGY PREDICTED BY IDOCK:   -6.07 KCAL/MOL
REMARK 924 INTRA-LIGAND FREE ENERGY PREDICTED BY IDOCK:   -0.54 KCAL/MOL
REMARK 927      BINDING AFFINITY PREDICTED BY RF-SCORE:    0.00 PKD
ROOT
HETATM    1  O   UNL     1      -9.738   9.708  62.332  1.00  0.00    -0.562 OA 
HETATM    2  N   UNL     1     -10.042  11.024  62.714  1.00  0.00    -0.690 N  
HETATM    3  H   UNL     1      -9.567   9.478  61.426  1.00  0.00     0.000 HD 
HETATM    4  C   UNL     1     -10.288  11.354  64.015  1.00  0.00    -0.362 C  
HETATM    5  H   UNL     1     -10.080  11.752  62.001  1.00  0.00     0.000 HD 
HETATM    6  O   UNL     1     -10.618  12.493  64.328  1.00  0.00    -0.320 OA 
ENDROOT
BRANCH   4   7
HETATM    7  C   UNL     1     -10.130  10.268  65.013  1.00  0.00    -0.353 C  
HETATM    8  C   UNL     1     -10.526  10.442  66.283  1.00  0.00    -0.229 C  
BRANCH   8   9
HETATM    9  C   UNL     1     -10.369   9.371  67.266  1.00  0.00    -0.325 A  
HETATM   10  C   UNL     1      -9.688   8.198  66.918  1.00  0.00    -0.291 A  
HETATM   11  C   UNL     1      -9.586   7.143  67.829  1.00  0.00    -0.146 A  
HETATM   12  C   UNL     1     -10.171   7.249  69.091  1.00  0.00    -0.197 A  
HETATM   13  C   UNL     1     -10.841   8.425  69.446  1.00  0.00    -0.082 A  
HETATM   14  C   UNL     1     -10.949   9.484  68.536  1.00  0.00    -0.109 A  
BRANCH  13  15
HETATM   15  S   UNL     1     -11.687   8.515  71.012  1.00  0.00    -0.249 S  
HETATM   16  O   UNL     1     -12.260   7.213  71.282  1.00  0.00    -0.328 OA 
HETATM   17  O   UNL     1     -12.517   9.703  70.985  1.00  0.00    -0.309 OA 
BRANCH  15  18
HETATM   18  N   UNL     1     -10.468   8.832  72.131  1.00  0.00    -0.339 N  
HETATM   19  H   UNL     1     -10.231   9.793  72.373  1.00  0.00     0.000 HD 
BRANCH  18  20
HETATM   20  C   UNL     1      -9.775   7.752  72.732  1.00  0.00    -0.232 A  
HETATM   21  C   UNL     1     -10.285   7.149  73.880  1.00  0.00    -0.358 A  
HETATM   22  C   UNL     1      -9.561   6.134  74.509  1.00  0.00    -0.248 A  
HETATM   23  C   UNL     1      -8.340   5.715  73.979  1.00  0.00    -0.108 A  
HETATM   24  C   UNL     1      -7.841   6.310  72.819  1.00  0.00    -0.105 A  
HETATM   25  C   UNL     1      -8.555   7.336  72.201  1.00  0.00    -0.126 A  
ENDBRANCH  18  20
ENDBRANCH  15  18
ENDBRANCH  13  15
ENDBRANCH   8   9
ENDBRANCH   4   7
TORSDOF 5
ENDMDL
MODEL      202
REMARK 921   NORMALIZED FREE ENERGY PREDICTED BY IDOCK:   -4.75 KCAL/MOL
REMARK 922        TOTAL FREE ENERGY PREDICTED BY IDOCK:   -6.61 KCAL/MOL
REMARK 923 INTER-LIGAND FREE ENERGY PREDICTED BY IDOCK:   -6.03 KCAL/MOL
REMARK 924 INTRA-LIGAND FREE ENERGY PREDICTED BY IDOCK:   -0.58 KCAL/MOL
REMARK 927      BINDING AFFINITY PREDICTED BY RF-SCORE:    0.00 PKD
ROOT
HETATM    1  O   UNL     1      -9.911  13.951  65.078  1.00  0.00    -0.591 OA 
HETATM    2  N   UNL     1     -10.347  13.203  63.973  1.00  0.00    -0.607 N  
HETATM    3  H   UNL     1      -9.984  14.899  65.099  1.00  0.00     0.000 HD 
HETATM    4  C   UNL     1     -10.243  11.843  63.943  1.00  0.00    -0.389 C  
HETATM    5  H   UNL     1     -10.753  13.687  63.173  1.00  0.00     0.000 HD 
HETATM    6  O   UNL     1     -10.565  11.205  62.946  1.00  0.00    -0.127 OA 
ENDROOT
BRANCH   4   7
HETATM    7  C   UNL     1      -9.726  11.192  65.172  1.00  0.00    -0.296 C  
HETATM    8  C   UNL     1     -10.028   9.916  65.450  1.00  0.00    -0.349 C  
BRANCH   8   9
HETATM    9  C   UNL     1      -9.519   9.276  66.663  1.00  0.00    -0.246 A  
HETATM   10  C   UNL     1      -8.540   9.918  67.432  1.00  0.00    -0.125 A  
HETATM   11  C   UNL     1      -8.002   9.289  68.558  1.00  0.00    -0.101 A  
HETATM   12  C   UNL     1      -8.431   8.011  68.919  1.00  0.00    -0.131 A  
HETATM   13  C   UNL     1      -9.418   7.374  68.160  1.00  0.00    -0.138 A  
HETATM   14  C   UNL     1      -9.959   7.998  67.028  1.00  0.00    -0.324 A  
BRANCH  13  15
HETATM   15  S   UNL     1      -9.882   5.698  68.551  1.00  0.00    -0.153 S  
HETATM   16  O   UNL     1      -8.753   5.067  69.201  1.00  0.00    -0.091 OA 
HETATM   17  O   UNL     1     -10.470   5.124  67.357  1.00  0.00    -0.179 OA 
BRANCH  15  18
HETATM   18  N   UNL     1     -11.144   5.858  69.654  1.00  0.00    -0.389 N  
HETATM   19  H   UNL     1     -12.062   5.467  69.445  1.00  0.00     0.000 HD 
BRANCH  18  20
HETATM   20  C   UNL     1     -10.921   6.541  70.876  1.00  0.00    -0.274 A  
HETATM   21  C   UNL     1     -10.147   5.951  71.874  1.00  0.00    -0.222 A  
HETATM   22  C   UNL     1      -9.991   6.596  73.101  1.00  0.00    -0.201 A  
HETATM   23  C   UNL     1     -10.593   7.835  73.321  1.00  0.00    -0.350 A  
HETATM   24  C   UNL     1     -11.354   8.431  72.315  1.00  0.00    -0.448 A  
HETATM   25  C   UNL     1     -11.525   7.779  71.094  1.00  0.00    -0.295 A  
ENDBRANCH  18  20
ENDBRANCH  15  18
ENDBRANCH  13  15
ENDBRANCH   8   9
ENDBRANCH   4   7
TORSDOF 5
ENDMDL
MODEL      203
REMARK 921   NORMALIZED FREE ENERGY PREDICTED BY IDOCK:   -4.75 KCAL/MOL
REMARK 922        TOTAL FREE ENERGY PREDICTED BY IDOCK:   -6.61 KCAL/MOL
REMARK 923 INTER-LIGAND FREE ENERGY PREDICTED BY IDOCK:   -5.86 KCAL/MOL
REMARK 924 INTRA-LIGAND FREE ENERGY PREDICTED BY IDOCK:   -0.75 KCAL/MOL
REMARK 927      BINDING AFFINITY PREDICTED BY RF-SCORE:    0.00 PKD
ROOT
HETATM    1  O   UNL     1     -11.715   4.467  64.833  1.00  0.00    -1.012 OA 
HETATM    2  N   UNL     1     -10.746   3.511  64.492  1.00  0.00    -0.490 N  
HETATM    3  H   UNL     1     -12.570   4.482  64.417  1.00  0.00     0.000 HD 
HETATM    4  C   UNL     1      -9.519   3.490  65.089  1.00  0.00    -0.158 C  
HETATM    5  H   UNL     1     -10.964   2.813  63.781  1.00  0.00     0.000 HD 
HETATM    6  O   UNL     1      -8.657   2.693  64.736  1.00  0.00    -0.091 OA 
ENDROOT
BRANCH   4   7
HETATM    7  C   UNL     1      -9.296   4.474  66.176  1.00  0.00    -0.156 C  
HETATM    8  C   UNL     1      -8.739   5.666  65.917  1.00  0.00    -0.147 C  
BRANCH   8   9
HETATM    9  C   UNL     1      -8.520   6.635  66.990  1.00  0.00    -0.113 A  
HETATM   10  C   UNL     1      -7.476   6.441  67.904  1.00  0.00    -0.094 A  
HETATM   11  C   UNL     1      -7.296   7.327  68.969  1.00  0.00    -0.091 A  
HETATM   12  C   UNL     1      -8.160   8.409  69.134  1.00  0.00    -0.119 A  
HETATM   13  C   UNL     1      -9.195   8.614  68.215  1.00  0.00    -0.137 A  
HETATM   14  C   UNL     1      -9.383   7.727  67.147  1.00  0.00    -0.185 A  
BRANCH  13  15
HETATM   15  S   UNL     1     -10.369   9.926  68.491  1.00  0.00    -0.205 S  
HETATM   16  O   UNL     1     -10.975  10.253  67.218  1.00  0.00    -0.275 OA 
HETATM   17  O   UNL     1      -9.702  10.941  69.281  1.00  0.00    -0.170 OA 
BRANCH  15  18
HETATM   18  N   UNL     1     -11.530   9.245  69.504  1.00  0.00    -0.427 N  
HETATM   19  H   UNL     1     -12.515   9.480  69.387  1.00  0.00     0.000 HD 
BRANCH  18  20
HETATM   20  C   UNL     1     -11.126   8.344  70.521  1.00  0.00    -0.252 A  
HETATM   21  C   UNL     1     -11.254   6.970  70.326  1.00  0.00    -0.339 A  
HETATM   22  C   UNL     1     -10.923   6.091  71.359  1.00  0.00    -0.336 A  
HETATM   23  C   UNL     1     -10.450   6.586  72.574  1.00  0.00    -0.229 A  
HETATM   24  C   UNL     1     -10.306   7.961  72.760  1.00  0.00    -0.399 A  
HETATM   25  C   UNL     1     -10.654   8.842  71.735  1.00  0.00    -0.432 A  
ENDBRANCH  18  20
ENDBRANCH  15  18
ENDBRANCH  13  15
ENDBRANCH   8   9
ENDBRANCH   4   7
TORSDOF 5
ENDMDL
MODEL      204
REMARK 921   NORMALIZED FREE ENERGY PREDICTED BY IDOCK:   -4.75 KCAL/MOL
REMARK 922        TOTAL FREE ENERGY PREDICTED BY IDOCK:   -6.61 KCAL/MOL
REMARK 923 INTER-LIGAND FREE ENERGY PREDICTED BY IDOCK:   -6.10 KCAL/MOL
REMARK 924 INTRA-LIGAND FREE ENERGY PREDICTED BY IDOCK:   -0.50 KCAL/MOL
REMARK 927      BINDING AFFINITY PREDICTED BY RF-SCORE:    0.00 PKD
ROOT
HETATM    1  O   UNL     1      -9.439   2.672  68.422  1.00  0.00    -0.201 OA 
HETATM    2  N   UNL     1      -9.699   2.998  67.081  1.00  0.00    -0.366 N  
HETATM    3  H   UNL     1      -9.291   1.775  68.698  1.00  0.00     0.000 HD 
HETATM    4  C   UNL     1      -9.912   4.286  66.685  1.00  0.00    -0.177 C  
HETATM    5  H   UNL     1      -9.729   2.252  66.386  1.00  0.00     0.000 HD 
HETATM    6  O   UNL     1     -10.204   4.551  65.524  1.00  0.00    -0.230 OA 
ENDROOT
BRANCH   4   7
HETATM    7  C   UNL     1      -9.767   5.330  67.728  1.00  0.00    -0.170 C  
HETATM    8  C   UNL     1     -10.681   6.304  67.855  1.00  0.00    -0.380 C  
BRANCH   8   9
HETATM    9  C   UNL     1     -10.536   7.333  68.883  1.00  0.00    -0.216 A  
HETATM   10  C   UNL     1     -10.050   6.990  70.151  1.00  0.00    -0.197 A  
HETATM   11  C   UNL     1      -9.966   7.954  71.160  1.00  0.00    -0.198 A  
HETATM   12  C   UNL     1     -10.375   9.265  70.912  1.00  0.00    -0.367 A  
HETATM   13  C   UNL     1     -10.848   9.613  69.642  1.00  0.00    -0.244 A  
HETATM   14  C   UNL     1     -10.937   8.651  68.628  1.00  0.00     0.114 A  
BRANCH  13  15
HETATM   15  S   UNL     1     -11.478  11.256  69.360  1.00  0.00    -0.332 S  
HETATM   16  O   UNL     1     -12.047  11.732  70.603  1.00  0.00    -0.368 OA 
HETATM   17  O   UNL     1     -12.271  11.210  68.148  1.00  0.00    -0.612 OA 
BRANCH  15  18
HETATM   18  N   UNL     1     -10.115  12.170  68.983  1.00  0.00    -0.421 N  
HETATM   19  H   UNL     1      -9.191  11.862  69.284  1.00  0.00     0.000 HD 
BRANCH  18  20
HETATM   20  C   UNL     1     -10.262  13.370  68.243  1.00  0.00    -0.250 A  
HETATM   21  C   UNL     1      -9.669  13.493  66.988  1.00  0.00    -0.251 A  
HETATM   22  C   UNL     1      -9.756  14.703  66.297  1.00  0.00    -0.329 A  
HETATM   23  C   UNL     1     -10.449  15.778  66.854  1.00  0.00    -0.315 A  
HETATM   24  C   UNL     1     -11.055  15.646  68.104  1.00  0.00    -0.330 A  
HETATM   25  C   UNL     1     -10.954  14.444  68.804  1.00  0.00    -0.264 A  
ENDBRANCH  18  20
ENDBRANCH  15  18
ENDBRANCH  13  15
ENDBRANCH   8   9
ENDBRANCH   4   7
TORSDOF 5
ENDMDL
MODEL      205
REMARK 921   NORMALIZED FREE ENERGY PREDICTED BY IDOCK:   -4.75 KCAL/MOL
REMARK 922        TOTAL FREE ENERGY PREDICTED BY IDOCK:   -6.60 KCAL/MOL
REMARK 923 INTER-LIGAND FREE ENERGY PREDICTED BY IDOCK:   -5.45 KCAL/MOL
REMARK 924 INTRA-LIGAND FREE ENERGY PREDICTED BY IDOCK:   -1.15 KCAL/MOL
REMARK 927      BINDING AFFINITY PREDICTED BY RF-SCORE:    0.00 PKD
ROOT
HETATM    1  O   UNL     1      -9.383  12.345  64.877  1.00  0.00    -0.430 OA 
HETATM    2  N   UNL     1     -10.065  13.551  65.101  1.00  0.00    -0.513 N  
HETATM    3  H   UNL     1      -8.936  12.169  64.057  1.00  0.00     0.000 HD 
HETATM    4  C   UNL     1     -10.706  13.803  66.279  1.00  0.00    -0.285 C  
HETATM    5  H   UNL     1     -10.082  14.257  64.365  1.00  0.00     0.000 HD 
HETATM    6  O   UNL     1     -11.355  14.832  66.438  1.00  0.00    -0.345 OA 
ENDROOT
BRANCH   4   7
HETATM    7  C   UNL     1     -10.570  12.775  67.339  1.00  0.00    -0.241 C  
HETATM    8  C   UNL     1     -11.608  11.996  67.676  1.00  0.00    -0.392 C  
BRANCH   8   9
HETATM    9  C   UNL     1     -11.472  10.983  68.722  1.00  0.00    -0.372 A  
HETATM   10  C   UNL     1     -11.885  11.270  70.029  1.00  0.00    -0.448 A  
HETATM   11  C   UNL     1     -11.703  10.333  71.049  1.00  0.00    -0.461 A  
HETATM   12  C   UNL     1     -11.100   9.106  70.773  1.00  0.00    -0.336 A  
HETATM   13  C   UNL     1     -10.698   8.811  69.466  1.00  0.00    -0.188 A  
HETATM   14  C   UNL     1     -10.875   9.748  68.439  1.00  0.00    -0.244 A  
BRANCH  13  15
HETATM   15  S   UNL     1      -9.823   7.293  69.136  1.00  0.00    -0.169 S  
HETATM   16  O   UNL     1      -9.954   7.006  67.723  1.00  0.00    -0.140 OA 
HETATM   17  O   UNL     1     -10.241   6.330  70.134  1.00  0.00    -0.177 OA 
BRANCH  15  18
HETATM   18  N   UNL     1      -8.215   7.651  69.487  1.00  0.00    -0.127 N  
HETATM   19  H   UNL     1      -7.637   6.977  69.987  1.00  0.00     0.000 HD 
BRANCH  18  20
HETATM   20  C   UNL     1      -7.673   8.896  69.082  1.00  0.00    -0.092 A  
HETATM   21  C   UNL     1      -7.471   9.907  70.019  1.00  0.00    -0.173 A  
HETATM   22  C   UNL     1      -7.005  11.155  69.601  1.00  0.00    -0.088 A  
HETATM   23  C   UNL     1      -6.726  11.382  68.253  1.00  0.00    -0.059 A  
HETATM   24  C   UNL     1      -6.914  10.362  67.320  1.00  0.00    -0.086 A  
HETATM   25  C   UNL     1      -7.397   9.120  67.733  1.00  0.00    -0.084 A  
ENDBRANCH  18  20
ENDBRANCH  15  18
ENDBRANCH  13  15
ENDBRANCH   8   9
ENDBRANCH   4   7
TORSDOF 5
ENDMDL
MODEL      206
REMARK 921   NORMALIZED FREE ENERGY PREDICTED BY IDOCK:   -4.74 KCAL/MOL
REMARK 922        TOTAL FREE ENERGY PREDICTED BY IDOCK:   -6.59 KCAL/MOL
REMARK 923 INTER-LIGAND FREE ENERGY PREDICTED BY IDOCK:   -6.07 KCAL/MOL
REMARK 924 INTRA-LIGAND FREE ENERGY PREDICTED BY IDOCK:   -0.52 KCAL/MOL
REMARK 927      BINDING AFFINITY PREDICTED BY RF-SCORE:    0.00 PKD
ROOT
HETATM    1  O   UNL     1      -7.813   9.435  65.496  1.00  0.00    -0.100 OA 
HETATM    2  N   UNL     1      -7.115  10.648  65.605  1.00  0.00    -0.280 N  
HETATM    3  H   UNL     1      -7.956   9.015  64.655  1.00  0.00     0.000 HD 
HETATM    4  C   UNL     1      -6.909  11.250  66.812  1.00  0.00    -0.140 C  
HETATM    5  H   UNL     1      -6.754  11.091  64.760  1.00  0.00     0.000 HD 
HETATM    6  O   UNL     1      -6.358  12.343  66.888  1.00  0.00    -0.169 OA 
ENDROOT
BRANCH   4   7
HETATM    7  C   UNL     1      -7.382  10.512  68.008  1.00  0.00    -0.089 C  
HETATM    8  C   UNL     1      -8.509  10.877  68.636  1.00  0.00    -0.152 C  
BRANCH   8   9
HETATM    9  C   UNL     1      -8.974  10.148  69.816  1.00  0.00    -0.159 A  
HETATM   10  C   UNL     1      -8.055   9.464  70.621  1.00  0.00    -0.197 A  
HETATM   11  C   UNL     1      -8.495   8.714  71.715  1.00  0.00    -0.221 A  
HETATM   12  C   UNL     1      -9.856   8.635  72.008  1.00  0.00    -0.396 A  
HETATM   13  C   UNL     1     -10.776   9.329  71.214  1.00  0.00    -0.352 A  
HETATM   14  C   UNL     1     -10.341  10.080  70.114  1.00  0.00    -0.321 A  
BRANCH  13  15
HETATM   15  S   UNL     1     -12.521   9.134  71.516  1.00  0.00    -0.364 S  
HETATM   16  O   UNL     1     -13.216  10.171  70.782  1.00  0.00    -0.379 OA 
HETATM   17  O   UNL     1     -12.696   8.989  72.947  1.00  0.00    -0.276 OA 
BRANCH  15  18
HETATM   18  N   UNL     1     -12.898   7.632  70.853  1.00  0.00    -0.557 N  
HETATM   19  H   UNL     1     -13.812   7.472  70.430  1.00  0.00     0.000 HD 
BRANCH  18  20
HETATM   20  C   UNL     1     -11.934   6.594  70.887  1.00  0.00    -0.355 A  
HETATM   21  C   UNL     1     -11.720   5.879  72.064  1.00  0.00    -0.255 A  
HETATM   22  C   UNL     1     -10.719   4.907  72.112  1.00  0.00    -0.193 A  
HETATM   23  C   UNL     1      -9.950   4.641  70.979  1.00  0.00    -0.270 A  
HETATM   24  C   UNL     1     -10.178   5.346  69.797  1.00  0.00    -0.348 A  
HETATM   25  C   UNL     1     -11.166   6.330  69.754  1.00  0.00    -0.499 A  
ENDBRANCH  18  20
ENDBRANCH  15  18
ENDBRANCH  13  15
ENDBRANCH   8   9
ENDBRANCH   4   7
TORSDOF 5
ENDMDL
MODEL      207
REMARK 921   NORMALIZED FREE ENERGY PREDICTED BY IDOCK:   -4.72 KCAL/MOL
REMARK 922        TOTAL FREE ENERGY PREDICTED BY IDOCK:   -6.57 KCAL/MOL
REMARK 923 INTER-LIGAND FREE ENERGY PREDICTED BY IDOCK:   -6.05 KCAL/MOL
REMARK 924 INTRA-LIGAND FREE ENERGY PREDICTED BY IDOCK:   -0.52 KCAL/MOL
REMARK 927      BINDING AFFINITY PREDICTED BY RF-SCORE:    0.00 PKD
ROOT
HETATM    1  O   UNL     1      -8.894   5.833  72.732  1.00  0.00    -0.122 OA 
HETATM    2  N   UNL     1      -7.951   5.749  71.696  1.00  0.00    -0.115 N  
HETATM    3  H   UNL     1      -8.796   5.338  73.537  1.00  0.00     0.000 HD 
HETATM    4  C   UNL     1      -8.092   6.460  70.540  1.00  0.00    -0.117 C  
HETATM    5  H   UNL     1      -7.140   5.141  71.809  1.00  0.00     0.000 HD 
HETATM    6  O   UNL     1      -7.298   6.328  69.614  1.00  0.00    -0.075 OA 
ENDROOT
BRANCH   4   7
HETATM    7  C   UNL     1      -9.244   7.392  70.473  1.00  0.00    -0.157 C  
HETATM    8  C   UNL     1      -9.095   8.689  70.780  1.00  0.00    -0.214 C  
BRANCH   8   9
HETATM    9  C   UNL     1     -10.232   9.606  70.715  1.00  0.00    -0.330 A  
HETATM   10  C   UNL     1     -11.295   9.466  71.616  1.00  0.00    -0.452 A  
HETATM   11  C   UNL     1     -12.414  10.297  71.524  1.00  0.00    -0.524 A  
HETATM   12  C   UNL     1     -12.484  11.269  70.526  1.00  0.00    -0.398 A  
HETATM   13  C   UNL     1     -11.418  11.421  69.632  1.00  0.00    -0.309 A  
HETATM   14  C   UNL     1     -10.294  10.588  69.718  1.00  0.00    -0.211 A  
BRANCH  13  15
HETATM   15  S   UNL     1     -11.556  12.582  68.287  1.00  0.00    -0.344 S  
HETATM   16  O   UNL     1     -12.203  13.773  68.796  1.00  0.00    -0.350 OA 
HETATM   17  O   UNL     1     -12.103  11.863  67.154  1.00  0.00    -0.590 OA 
BRANCH  15  18
HETATM   18  N   UNL     1      -9.963  12.942  67.878  1.00  0.00    -0.226 N  
HETATM   19  H   UNL     1      -9.289  12.193  67.728  1.00  0.00     0.000 HD 
BRANCH  18  20
HETATM   20  C   UNL     1      -9.566  14.296  67.744  1.00  0.00    -0.221 A  
HETATM   21  C   UNL     1      -9.612  14.917  66.497  1.00  0.00    -0.297 A  
HETATM   22  C   UNL     1      -9.151  16.227  66.358  1.00  0.00    -0.336 A  
HETATM   23  C   UNL     1      -8.664  16.918  67.468  1.00  0.00    -0.214 A  
HETATM   24  C   UNL     1      -8.636  16.300  68.718  1.00  0.00    -0.240 A  
HETATM   25  C   UNL     1      -9.079  14.984  68.855  1.00  0.00    -0.202 A  
ENDBRANCH  18  20
ENDBRANCH  15  18
ENDBRANCH  13  15
ENDBRANCH   8   9
ENDBRANCH   4   7
TORSDOF 5
ENDMDL
MODEL      208
REMARK 921   NORMALIZED FREE ENERGY PREDICTED BY IDOCK:   -4.70 KCAL/MOL
REMARK 922        TOTAL FREE ENERGY PREDICTED BY IDOCK:   -6.55 KCAL/MOL
REMARK 923 INTER-LIGAND FREE ENERGY PREDICTED BY IDOCK:   -6.03 KCAL/MOL
REMARK 924 INTRA-LIGAND FREE ENERGY PREDICTED BY IDOCK:   -0.52 KCAL/MOL
REMARK 927      BINDING AFFINITY PREDICTED BY RF-SCORE:    0.00 PKD
ROOT
HETATM    1  O   UNL     1     -11.920  14.896  73.810  1.00  0.00    -0.386 OA 
HETATM    2  N   UNL     1     -13.169  14.974  73.175  1.00  0.00    -0.489 N  
HETATM    3  H   UNL     1     -11.827  14.542  74.687  1.00  0.00     0.000 HD 
HETATM    4  C   UNL     1     -13.302  15.481  71.915  1.00  0.00    -0.477 C  
HETATM    5  H   UNL     1     -13.999  14.643  73.667  1.00  0.00     0.000 HD 
HETATM    6  O   UNL     1     -14.407  15.607  71.397  1.00  0.00    -0.524 OA 
ENDROOT
BRANCH   4   7
HETATM    7  C   UNL     1     -12.048  15.863  71.221  1.00  0.00    -0.487 C  
HETATM    8  C   UNL     1     -11.923  15.700  69.896  1.00  0.00    -0.376 C  
BRANCH   8   9
HETATM    9  C   UNL     1     -10.686  16.076  69.213  1.00  0.00    -0.275 A  
HETATM   10  C   UNL     1     -10.527  17.378  68.722  1.00  0.00    -0.333 A  
HETATM   11  C   UNL     1      -9.375  17.731  68.013  1.00  0.00    -0.276 A  
HETATM   12  C   UNL     1      -8.378  16.784  67.782  1.00  0.00    -0.193 A  
HETATM   13  C   UNL     1      -8.527  15.486  68.283  1.00  0.00    -0.156 A  
HETATM   14  C   UNL     1      -9.681  15.126  68.991  1.00  0.00    -0.234 A  
BRANCH  13  15
HETATM   15  S   UNL     1      -7.309  14.246  67.888  1.00  0.00    -0.175 S  
HETATM   16  O   UNL     1      -7.084  13.453  69.078  1.00  0.00    -0.105 OA 
HETATM   17  O   UNL     1      -6.212  14.917  67.221  1.00  0.00    -0.311 OA 
BRANCH  15  18
HETATM   18  N   UNL     1      -8.047  13.292  66.712  1.00  0.00    -0.393 N  
HETATM   19  H   UNL     1      -8.365  13.708  65.838  1.00  0.00     0.000 HD 
BRANCH  18  20
HETATM   20  C   UNL     1      -8.223  11.905  66.948  1.00  0.00    -0.157 A  
HETATM   21  C   UNL     1      -9.491  11.400  67.228  1.00  0.00    -0.176 A  
HETATM   22  C   UNL     1      -9.646  10.046  67.531  1.00  0.00    -0.178 A  
HETATM   23  C   UNL     1      -8.537   9.200  67.536  1.00  0.00    -0.116 A  
HETATM   24  C   UNL     1      -7.270   9.706  67.239  1.00  0.00    -0.087 A  
HETATM   25  C   UNL     1      -7.112  11.062  66.954  1.00  0.00    -0.125 A  
ENDBRANCH  18  20
ENDBRANCH  15  18
ENDBRANCH  13  15
ENDBRANCH   8   9
ENDBRANCH   4   7
TORSDOF 5
ENDMDL
MODEL      209
REMARK 921   NORMALIZED FREE ENERGY PREDICTED BY IDOCK:   -4.70 KCAL/MOL
REMARK 922        TOTAL FREE ENERGY PREDICTED BY IDOCK:   -6.55 KCAL/MOL
REMARK 923 INTER-LIGAND FREE ENERGY PREDICTED BY IDOCK:   -5.81 KCAL/MOL
REMARK 924 INTRA-LIGAND FREE ENERGY PREDICTED BY IDOCK:   -0.73 KCAL/MOL
REMARK 927      BINDING AFFINITY PREDICTED BY RF-SCORE:    0.00 PKD
ROOT
HETATM    1  O   UNL     1      -7.783   8.630  73.793  1.00  0.00    -0.398 OA 
HETATM    2  N   UNL     1      -9.106   8.230  73.548  1.00  0.00    -0.203 N  
HETATM    3  H   UNL     1      -7.384   8.537  74.650  1.00  0.00     0.000 HD 
HETATM    4  C   UNL     1      -9.679   8.363  72.317  1.00  0.00    -0.316 C  
HETATM    5  H   UNL     1      -9.653   7.830  74.310  1.00  0.00     0.000 HD 
HETATM    6  O   UNL     1     -10.856   8.074  72.132  1.00  0.00    -0.239 OA 
ENDROOT
BRANCH   4   7
HETATM    7  C   UNL     1      -8.803   8.869  71.232  1.00  0.00    -0.298 C  
HETATM    8  C   UNL     1      -9.318   9.550  70.198  1.00  0.00    -0.286 C  
BRANCH   8   9
HETATM    9  C   UNL     1      -8.453  10.047  69.128  1.00  0.00    -0.156 A  
HETATM   10  C   UNL     1      -7.384  10.899  69.434  1.00  0.00    -0.116 A  
HETATM   11  C   UNL     1      -6.590  11.429  68.414  1.00  0.00    -0.063 A  
HETATM   12  C   UNL     1      -6.862  11.120  67.081  1.00  0.00    -0.107 A  
HETATM   13  C   UNL     1      -7.921  10.259  66.774  1.00  0.00    -0.114 A  
HETATM   14  C   UNL     1      -8.723   9.727  67.792  1.00  0.00    -0.129 A  
BRANCH  13  15
HETATM   15  S   UNL     1      -8.342   9.957  65.068  1.00  0.00    -0.158 S  
HETATM   16  O   UNL     1      -9.482   9.065  65.045  1.00  0.00    -0.090 OA 
HETATM   17  O   UNL     1      -7.115   9.617  64.376  1.00  0.00    -0.107 OA 
BRANCH  15  18
HETATM   18  N   UNL     1      -8.801  11.466  64.476  1.00  0.00    -0.368 N  
HETATM   19  H   UNL     1      -8.112  12.079  64.042  1.00  0.00     0.000 HD 
BRANCH  18  20
HETATM   20  C   UNL     1     -10.154  11.875  64.584  1.00  0.00    -0.269 A  
HETATM   21  C   UNL     1     -10.968  11.901  63.453  1.00  0.00    -0.470 A  
HETATM   22  C   UNL     1     -12.277  12.375  63.554  1.00  0.00    -0.661 A  
HETATM   23  C   UNL     1     -12.773  12.804  64.785  1.00  0.00    -0.469 A  
HETATM   24  C   UNL     1     -11.960  12.762  65.918  1.00  0.00    -0.506 A  
HETATM   25  C   UNL     1     -10.646  12.306  65.816  1.00  0.00    -0.289 A  
ENDBRANCH  18  20
ENDBRANCH  15  18
ENDBRANCH  13  15
ENDBRANCH   8   9
ENDBRANCH   4   7
TORSDOF 5
ENDMDL
MODEL      210
REMARK 921   NORMALIZED FREE ENERGY PREDICTED BY IDOCK:   -4.70 KCAL/MOL
REMARK 922        TOTAL FREE ENERGY PREDICTED BY IDOCK:   -6.55 KCAL/MOL
REMARK 923 INTER-LIGAND FREE ENERGY PREDICTED BY IDOCK:   -5.85 KCAL/MOL
REMARK 924 INTRA-LIGAND FREE ENERGY PREDICTED BY IDOCK:   -0.70 KCAL/MOL
REMARK 927      BINDING AFFINITY PREDICTED BY RF-SCORE:    0.00 PKD
ROOT
HETATM    1  O   UNL     1     -13.462   9.347  72.269  1.00  0.00    -0.434 OA 
HETATM    2  N   UNL     1     -13.468  10.751  72.249  1.00  0.00    -0.539 N  
HETATM    3  H   UNL     1     -13.865   8.856  72.976  1.00  0.00     0.000 HD 
HETATM    4  C   UNL     1     -12.889  11.456  71.234  1.00  0.00    -0.379 C  
HETATM    5  H   UNL     1     -13.917  11.257  73.013  1.00  0.00     0.000 HD 
HETATM    6  O   UNL     1     -12.842  12.681  71.261  1.00  0.00    -0.355 OA 
ENDROOT
BRANCH   4   7
HETATM    7  C   UNL     1     -12.333  10.662  70.112  1.00  0.00    -0.370 C  
HETATM    8  C   UNL     1     -11.046  10.286  70.111  1.00  0.00    -0.385 C  
BRANCH   8   9
HETATM    9  C   UNL     1     -10.498   9.504  69.003  1.00  0.00    -0.229 A  
HETATM   10  C   UNL     1     -10.662   9.949  67.686  1.00  0.00    -0.339 A  
HETATM   11  C   UNL     1     -10.197   9.179  66.616  1.00  0.00    -0.328 A  
HETATM   12  C   UNL     1      -9.572   7.955  66.855  1.00  0.00    -0.263 A  
HETATM   13  C   UNL     1      -9.395   7.513  68.170  1.00  0.00    -0.136 A  
HETATM   14  C   UNL     1      -9.862   8.280  69.246  1.00  0.00    -0.186 A  
BRANCH  13  15
HETATM   15  S   UNL     1      -8.704   5.898  68.470  1.00  0.00    -0.112 S  
HETATM   16  O   UNL     1      -7.765   6.015  69.566  1.00  0.00    -0.093 OA 
HETATM   17  O   UNL     1      -8.291   5.362  67.189  1.00  0.00    -0.108 OA 
BRANCH  15  18
HETATM   18  N   UNL     1     -10.017   4.963  68.957  1.00  0.00    -0.183 N  
HETATM   19  H   UNL     1     -10.706   4.650  68.274  1.00  0.00     0.000 HD 
BRANCH  18  20
HETATM   20  C   UNL     1     -10.157   4.615  70.324  1.00  0.00    -0.206 A  
HETATM   21  C   UNL     1      -9.703   3.379  70.780  1.00  0.00    -0.190 A  
HETATM   22  C   UNL     1      -9.909   3.013  72.111  1.00  0.00    -0.239 A  
HETATM   23  C   UNL     1     -10.553   3.890  72.985  1.00  0.00    -0.254 A  
HETATM   24  C   UNL     1     -10.992   5.133  72.530  1.00  0.00    -0.276 A  
HETATM   25  C   UNL     1     -10.803   5.493  71.195  1.00  0.00    -0.243 A  
ENDBRANCH  18  20
ENDBRANCH  15  18
ENDBRANCH  13  15
ENDBRANCH   8   9
ENDBRANCH   4   7
TORSDOF 5
ENDMDL
MODEL      211
REMARK 921   NORMALIZED FREE ENERGY PREDICTED BY IDOCK:   -4.69 KCAL/MOL
REMARK 922        TOTAL FREE ENERGY PREDICTED BY IDOCK:   -6.53 KCAL/MOL
REMARK 923 INTER-LIGAND FREE ENERGY PREDICTED BY IDOCK:   -6.09 KCAL/MOL
REMARK 924 INTRA-LIGAND FREE ENERGY PREDICTED BY IDOCK:   -0.44 KCAL/MOL
REMARK 927      BINDING AFFINITY PREDICTED BY RF-SCORE:    0.00 PKD
ROOT
HETATM    1  O   UNL     1     -10.076   4.363  70.704  1.00  0.00    -0.205 OA 
HETATM    2  N   UNL     1     -10.565   5.011  71.850  1.00  0.00    -0.190 N  
HETATM    3  H   UNL     1      -9.742   3.474  70.738  1.00  0.00     0.000 HD 
HETATM    4  C   UNL     1     -11.044   6.287  71.802  1.00  0.00    -0.273 C  
HETATM    5  H   UNL     1     -10.562   4.514  72.741  1.00  0.00     0.000 HD 
HETATM    6  O   UNL     1     -11.406   6.866  72.820  1.00  0.00    -0.258 OA 
ENDROOT
BRANCH   4   7
HETATM    7  C   UNL     1     -11.102   6.921  70.462  1.00  0.00    -0.332 C  
HETATM    8  C   UNL     1     -10.122   7.737  70.047  1.00  0.00    -0.201 C  
BRANCH   8   9
HETATM    9  C   UNL     1     -10.181   8.362  68.726  1.00  0.00    -0.223 A  
HETATM   10  C   UNL     1      -9.699   7.674  67.606  1.00  0.00    -0.189 A  
HETATM   11  C   UNL     1      -9.693   8.286  66.350  1.00  0.00    -0.300 A  
HETATM   12  C   UNL     1     -10.162   9.591  66.204  1.00  0.00    -0.272 A  
HETATM   13  C   UNL     1     -10.658  10.276  67.319  1.00  0.00    -0.267 A  
HETATM   14  C   UNL     1     -10.663   9.669  68.582  1.00  0.00    -0.233 A  
BRANCH  13  15
HETATM   15  S   UNL     1     -11.148  11.982  67.156  1.00  0.00    -0.309 S  
HETATM   16  O   UNL     1     -11.295  12.529  68.488  1.00  0.00    -0.251 OA 
HETATM   17  O   UNL     1     -12.242  12.027  66.207  1.00  0.00    -0.548 OA 
BRANCH  15  18
HETATM   18  N   UNL     1      -9.844  12.722  66.389  1.00  0.00    -0.264 N  
HETATM   19  H   UNL     1      -9.135  12.158  65.921  1.00  0.00     0.000 HD 
BRANCH  18  20
HETATM   20  C   UNL     1      -9.739  14.135  66.398  1.00  0.00    -0.298 A  
HETATM   21  C   UNL     1      -8.894  14.767  67.308  1.00  0.00    -0.218 A  
HETATM   22  C   UNL     1      -8.851  16.161  67.361  1.00  0.00    -0.199 A  
HETATM   23  C   UNL     1      -9.638  16.918  66.493  1.00  0.00    -0.295 A  
HETATM   24  C   UNL     1     -10.471  16.283  65.571  1.00  0.00    -0.383 A  
HETATM   25  C   UNL     1     -10.529  14.890  65.530  1.00  0.00    -0.380 A  
ENDBRANCH  18  20
ENDBRANCH  15  18
ENDBRANCH  13  15
ENDBRANCH   8   9
ENDBRANCH   4   7
TORSDOF 5
ENDMDL
MODEL      212
REMARK 921   NORMALIZED FREE ENERGY PREDICTED BY IDOCK:   -4.66 KCAL/MOL
REMARK 922        TOTAL FREE ENERGY PREDICTED BY IDOCK:   -6.50 KCAL/MOL
REMARK 923 INTER-LIGAND FREE ENERGY PREDICTED BY IDOCK:   -5.92 KCAL/MOL
REMARK 924 INTRA-LIGAND FREE ENERGY PREDICTED BY IDOCK:   -0.58 KCAL/MOL
REMARK 927      BINDING AFFINITY PREDICTED BY RF-SCORE:    0.00 PKD
ROOT
HETATM    1  O   UNL     1      -7.805   4.715  72.850  1.00  0.00    -0.089 OA 
HETATM    2  N   UNL     1      -8.248   3.831  71.853  1.00  0.00    -0.074 N  
HETATM    3  H   UNL     1      -7.076   4.499  73.420  1.00  0.00     0.000 HD 
HETATM    4  C   UNL     1      -9.294   4.142  71.034  1.00  0.00    -0.149 C  
HETATM    5  H   UNL     1      -7.777   2.935  71.738  1.00  0.00     0.000 HD 
HETATM    6  O   UNL     1      -9.716   3.335  70.212  1.00  0.00    -0.164 OA 
ENDROOT
BRANCH   4   7
HETATM    7  C   UNL     1      -9.879   5.496  71.193  1.00  0.00    -0.235 C  
HETATM    8  C   UNL     1      -9.774   6.407  70.216  1.00  0.00    -0.186 C  
BRANCH   8   9
HETATM    9  C   UNL     1     -10.350   7.742  70.375  1.00  0.00    -0.212 A  
HETATM   10  C   UNL     1     -11.091   8.050  71.522  1.00  0.00    -0.290 A  
HETATM   11  C   UNL     1     -11.699   9.301  71.656  1.00  0.00    -0.462 A  
HETATM   12  C   UNL     1     -11.577  10.251  70.642  1.00  0.00    -0.435 A  
HETATM   13  C   UNL     1     -10.826   9.951  69.500  1.00  0.00    -0.246 A  
HETATM   14  C   UNL     1     -10.218   8.697  69.359  1.00  0.00    -0.211 A  
BRANCH  13  15
HETATM   15  S   UNL     1     -10.768  11.118  68.154  1.00  0.00    -0.222 S  
HETATM   16  O   UNL     1     -12.125  11.528  67.865  1.00  0.00    -0.630 OA 
HETATM   17  O   UNL     1      -9.927  10.544  67.123  1.00  0.00    -0.180 OA 
BRANCH  15  18
HETATM   18  N   UNL     1      -9.908  12.428  68.772  1.00  0.00    -0.419 N  
HETATM   19  H   UNL     1      -9.055  12.275  69.309  1.00  0.00     0.000 HD 
BRANCH  18  20
HETATM   20  C   UNL     1     -10.378  13.744  68.538  1.00  0.00    -0.244 A  
HETATM   21  C   UNL     1     -10.050  14.403  67.355  1.00  0.00    -0.243 A  
HETATM   22  C   UNL     1     -10.456  15.725  67.162  1.00  0.00    -0.309 A  
HETATM   23  C   UNL     1     -11.201  16.377  68.145  1.00  0.00    -0.273 A  
HETATM   24  C   UNL     1     -11.542  15.709  69.322  1.00  0.00    -0.375 A  
HETATM   25  C   UNL     1     -11.122  14.394  69.523  1.00  0.00    -0.267 A  
ENDBRANCH  18  20
ENDBRANCH  15  18
ENDBRANCH  13  15
ENDBRANCH   8   9
ENDBRANCH   4   7
TORSDOF 5
ENDMDL
MODEL      213
REMARK 921   NORMALIZED FREE ENERGY PREDICTED BY IDOCK:   -4.65 KCAL/MOL
REMARK 922        TOTAL FREE ENERGY PREDICTED BY IDOCK:   -6.49 KCAL/MOL
REMARK 923 INTER-LIGAND FREE ENERGY PREDICTED BY IDOCK:   -5.79 KCAL/MOL
REMARK 924 INTRA-LIGAND FREE ENERGY PREDICTED BY IDOCK:   -0.70 KCAL/MOL
REMARK 927      BINDING AFFINITY PREDICTED BY RF-SCORE:    0.00 PKD
ROOT
HETATM    1  O   UNL     1     -10.645  19.951  65.567  1.00  0.00    -0.464 OA 
HETATM    2  N   UNL     1     -10.399  19.951  66.950  1.00  0.00    -0.454 N  
HETATM    3  H   UNL     1     -10.756  20.760  65.081  1.00  0.00     0.000 HD 
HETATM    4  C   UNL     1     -10.238  18.789  67.648  1.00  0.00    -0.399 C  
HETATM    5  H   UNL     1     -10.338  20.840  67.444  1.00  0.00     0.000 HD 
HETATM    6  O   UNL     1     -10.091  18.799  68.866  1.00  0.00    -0.390 OA 
ENDROOT
BRANCH   4   7
HETATM    7  C   UNL     1     -10.250  17.535  66.857  1.00  0.00    -0.329 C  
HETATM    8  C   UNL     1     -10.881  16.443  67.313  1.00  0.00    -0.194 C  
BRANCH   8   9
HETATM    9  C   UNL     1     -10.891  15.207  66.532  1.00  0.00    -0.317 A  
HETATM   10  C   UNL     1     -11.312  15.228  65.197  1.00  0.00    -0.321 A  
HETATM   11  C   UNL     1     -11.385  14.042  64.460  1.00  0.00    -0.365 A  
HETATM   12  C   UNL     1     -11.045  12.827  65.054  1.00  0.00    -0.317 A  
HETATM   13  C   UNL     1     -10.610  12.805  66.384  1.00  0.00    -0.255 A  
HETATM   14  C   UNL     1     -10.539  13.989  67.129  1.00  0.00    -0.274 A  
BRANCH  13  15
HETATM   15  S   UNL     1     -10.288  11.241  67.178  1.00  0.00    -0.218 S  
HETATM   16  O   UNL     1      -9.387  10.492  66.329  1.00  0.00    -0.163 OA 
HETATM   17  O   UNL     1     -11.567  10.690  67.577  1.00  0.00    -0.482 OA 
BRANCH  15  18
HETATM   18  N   UNL     1      -9.499  11.651  68.608  1.00  0.00    -0.327 N  
HETATM   19  H   UNL     1     -10.033  11.949  69.422  1.00  0.00     0.000 HD 
BRANCH  18  20
HETATM   20  C   UNL     1      -8.084  11.579  68.669  1.00  0.00    -0.132 A  
HETATM   21  C   UNL     1      -7.309  12.594  68.113  1.00  0.00    -0.112 A  
HETATM   22  C   UNL     1      -5.917  12.481  68.112  1.00  0.00    -0.073 A  
HETATM   23  C   UNL     1      -5.307  11.364  68.682  1.00  0.00    -0.043 A  
HETATM   24  C   UNL     1      -6.085  10.357  69.253  1.00  0.00    -0.038 A  
HETATM   25  C   UNL     1      -7.476  10.460  69.238  1.00  0.00    -0.120 A  
ENDBRANCH  18  20
ENDBRANCH  15  18
ENDBRANCH  13  15
ENDBRANCH   8   9
ENDBRANCH   4   7
TORSDOF 5
ENDMDL
MODEL      214
REMARK 921   NORMALIZED FREE ENERGY PREDICTED BY IDOCK:   -4.65 KCAL/MOL
REMARK 922        TOTAL FREE ENERGY PREDICTED BY IDOCK:   -6.48 KCAL/MOL
REMARK 923 INTER-LIGAND FREE ENERGY PREDICTED BY IDOCK:   -6.03 KCAL/MOL
REMARK 924 INTRA-LIGAND FREE ENERGY PREDICTED BY IDOCK:   -0.46 KCAL/MOL
REMARK 927      BINDING AFFINITY PREDICTED BY RF-SCORE:    0.00 PKD
ROOT
HETATM    1  O   UNL     1      -9.595   2.242  66.901  1.00  0.00    -0.386 OA 
HETATM    2  N   UNL     1      -9.764   2.490  65.530  1.00  0.00    -0.349 N  
HETATM    3  H   UNL     1      -9.531   1.358  67.244  1.00  0.00     0.000 HD 
HETATM    4  C   UNL     1      -9.856   3.760  65.038  1.00  0.00    -0.175 C  
HETATM    5  H   UNL     1      -9.819   1.702  64.885  1.00  0.00     0.000 HD 
HETATM    6  O   UNL     1     -10.072   3.963  63.848  1.00  0.00    -0.178 OA 
ENDROOT
BRANCH   4   7
HETATM    7  C   UNL     1      -9.680   4.862  66.015  1.00  0.00    -0.200 C  
HETATM    8  C   UNL     1     -10.740   5.531  66.491  1.00  0.00    -0.309 C  
BRANCH   8   9
HETATM    9  C   UNL     1     -10.565   6.617  67.454  1.00  0.00    -0.370 A  
HETATM   10  C   UNL     1     -10.977   6.447  68.782  1.00  0.00    -0.404 A  
HETATM   11  C   UNL     1     -10.871   7.500  69.695  1.00  0.00    -0.210 A  
HETATM   12  C   UNL     1     -10.361   8.733  69.286  1.00  0.00    -0.221 A  
HETATM   13  C   UNL     1      -9.936   8.901  67.964  1.00  0.00    -0.178 A  
HETATM   14  C   UNL     1     -10.043   7.850  67.043  1.00  0.00    -0.347 A  
BRANCH  13  15
HETATM   15  S   UNL     1      -9.395  10.508  67.413  1.00  0.00    -0.142 S  
HETATM   16  O   UNL     1      -8.390  10.309  66.390  1.00  0.00    -0.126 OA 
HETATM   17  O   UNL     1      -9.109  11.294  68.596  1.00  0.00    -0.172 OA 
BRANCH  15  18
HETATM   18  N   UNL     1     -10.766  11.199  66.722  1.00  0.00    -0.267 N  
HETATM   19  H   UNL     1     -11.585  10.626  66.523  1.00  0.00     0.000 HD 
BRANCH  18  20
HETATM   20  C   UNL     1     -10.772  12.583  66.418  1.00  0.00    -0.249 A  
HETATM   21  C   UNL     1     -11.348  13.490  67.306  1.00  0.00    -0.339 A  
HETATM   22  C   UNL     1     -11.415  14.843  66.968  1.00  0.00    -0.333 A  
HETATM   23  C   UNL     1     -10.892  15.286  65.753  1.00  0.00    -0.363 A  
HETATM   24  C   UNL     1     -10.301  14.378  64.873  1.00  0.00    -0.419 A  
HETATM   25  C   UNL     1     -10.249  13.024  65.202  1.00  0.00    -0.289 A  
ENDBRANCH  18  20
ENDBRANCH  15  18
ENDBRANCH  13  15
ENDBRANCH   8   9
ENDBRANCH   4   7
TORSDOF 5
ENDMDL
MODEL      215
REMARK 921   NORMALIZED FREE ENERGY PREDICTED BY IDOCK:   -4.65 KCAL/MOL
REMARK 922        TOTAL FREE ENERGY PREDICTED BY IDOCK:   -6.48 KCAL/MOL
REMARK 923 INTER-LIGAND FREE ENERGY PREDICTED BY IDOCK:   -5.96 KCAL/MOL
REMARK 924 INTRA-LIGAND FREE ENERGY PREDICTED BY IDOCK:   -0.53 KCAL/MOL
REMARK 927      BINDING AFFINITY PREDICTED BY RF-SCORE:    0.00 PKD
ROOT
HETATM    1  O   UNL     1     -12.236  12.432  63.782  1.00  0.00    -0.453 OA 
HETATM    2  N   UNL     1     -12.554  13.729  63.347  1.00  0.00    -0.989 N  
HETATM    3  H   UNL     1     -12.433  11.666  63.255  1.00  0.00     0.000 HD 
HETATM    4  C   UNL     1     -12.270  14.828  64.104  1.00  0.00    -0.295 C  
HETATM    5  H   UNL     1     -13.009  13.852  62.442  1.00  0.00     0.000 HD 
HETATM    6  O   UNL     1     -12.614  15.949  63.744  1.00  0.00    -0.632 OA 
ENDROOT
BRANCH   4   7
HETATM    7  C   UNL     1     -11.530  14.588  65.366  1.00  0.00    -0.348 C  
HETATM    8  C   UNL     1     -10.803  15.564  65.930  1.00  0.00    -0.317 C  
BRANCH   8   9
HETATM    9  C   UNL     1     -10.074  15.326  67.175  1.00  0.00    -0.240 A  
HETATM   10  C   UNL     1     -10.636  15.708  68.399  1.00  0.00    -0.252 A  
HETATM   11  C   UNL     1      -9.922  15.542  69.588  1.00  0.00    -0.287 A  
HETATM   12  C   UNL     1      -8.636  15.000  69.563  1.00  0.00    -0.069 A  
HETATM   13  C   UNL     1      -8.077  14.605  68.343  1.00  0.00    -0.147 A  
HETATM   14  C   UNL     1      -8.787  14.772  67.147  1.00  0.00    -0.234 A  
BRANCH  13  15
HETATM   15  S   UNL     1      -6.393  14.022  68.297  1.00  0.00    -0.129 S  
HETATM   16  O   UNL     1      -6.004  13.686  69.650  1.00  0.00    -0.101 OA 
HETATM   17  O   UNL     1      -5.629  14.975  67.517  1.00  0.00    -0.326 OA 
BRANCH  15  18
HETATM   18  N   UNL     1      -6.460  12.618  67.369  1.00  0.00    -0.178 N  
HETATM   19  H   UNL     1      -5.728  12.415  66.690  1.00  0.00     0.000 HD 
BRANCH  18  20
HETATM   20  C   UNL     1      -7.543  11.720  67.540  1.00  0.00    -0.135 A  
HETATM   21  C   UNL     1      -8.268  11.281  66.434  1.00  0.00    -0.150 A  
HETATM   22  C   UNL     1      -9.378  10.455  66.616  1.00  0.00    -0.185 A  
HETATM   23  C   UNL     1      -9.749  10.056  67.900  1.00  0.00    -0.168 A  
HETATM   24  C   UNL     1      -9.012  10.483  69.005  1.00  0.00    -0.183 A  
HETATM   25  C   UNL     1      -7.913  11.324  68.826  1.00  0.00    -0.137 A  
ENDBRANCH  18  20
ENDBRANCH  15  18
ENDBRANCH  13  15
ENDBRANCH   8   9
ENDBRANCH   4   7
TORSDOF 5
ENDMDL
MODEL      216
REMARK 921   NORMALIZED FREE ENERGY PREDICTED BY IDOCK:   -4.65 KCAL/MOL
REMARK 922        TOTAL FREE ENERGY PREDICTED BY IDOCK:   -6.48 KCAL/MOL
REMARK 923 INTER-LIGAND FREE ENERGY PREDICTED BY IDOCK:   -5.94 KCAL/MOL
REMARK 924 INTRA-LIGAND FREE ENERGY PREDICTED BY IDOCK:   -0.54 KCAL/MOL
REMARK 927      BINDING AFFINITY PREDICTED BY RF-SCORE:    0.00 PKD
ROOT
HETATM    1  O   UNL     1     -12.898  13.020  64.949  1.00  0.00    -0.706 OA 
HETATM    2  N   UNL     1     -11.812  13.888  65.144  1.00  0.00    -0.345 N  
HETATM    3  H   UNL     1     -13.359  12.975  64.119  1.00  0.00     0.000 HD 
HETATM    4  C   UNL     1     -11.150  13.951  66.336  1.00  0.00    -0.309 C  
HETATM    5  H   UNL     1     -11.510  14.487  64.376  1.00  0.00     0.000 HD 
HETATM    6  O   UNL     1     -10.247  14.761  66.516  1.00  0.00    -0.264 OA 
ENDROOT
BRANCH   4   7
HETATM    7  C   UNL     1     -11.581  12.993  67.383  1.00  0.00    -0.407 C  
HETATM    8  C   UNL     1     -11.559  13.338  68.678  1.00  0.00    -0.362 C  
BRANCH   8   9
HETATM    9  C   UNL     1     -11.983  12.393  69.710  1.00  0.00    -0.359 A  
HETATM   10  C   UNL     1     -12.877  12.802  70.707  1.00  0.00    -0.109 A  
HETATM   11  C   UNL     1     -13.241  11.925  71.733  1.00  0.00    -0.426 A  
HETATM   12  C   UNL     1     -12.709  10.636  71.774  1.00  0.00    -0.489 A  
HETATM   13  C   UNL     1     -11.826  10.220  70.772  1.00  0.00    -0.365 A  
HETATM   14  C   UNL     1     -11.455  11.096  69.742  1.00  0.00    -0.388 A  
BRANCH  13  15
HETATM   15  S   UNL     1     -11.057   8.617  70.888  1.00  0.00    -0.274 S  
HETATM   16  O   UNL     1     -11.432   7.860  69.712  1.00  0.00     0.015 OA 
HETATM   17  O   UNL     1     -11.323   8.107  72.218  1.00  0.00    -0.310 OA 
BRANCH  15  18
HETATM   18  N   UNL     1      -9.404   8.940  70.842  1.00  0.00    -0.215 N  
HETATM   19  H   UNL     1      -9.059   9.784  70.387  1.00  0.00     0.000 HD 
BRANCH  18  20
HETATM   20  C   UNL     1      -8.499   8.029  71.440  1.00  0.00    -0.121 A  
HETATM   21  C   UNL     1      -8.267   6.787  70.852  1.00  0.00    -0.123 A  
HETATM   22  C   UNL     1      -7.430   5.866  71.484  1.00  0.00    -0.094 A  
HETATM   23  C   UNL     1      -6.815   6.196  72.692  1.00  0.00    -0.074 A  
HETATM   24  C   UNL     1      -7.036   7.446  73.271  1.00  0.00    -0.071 A  
HETATM   25  C   UNL     1      -7.886   8.360  72.648  1.00  0.00    -0.144 A  
ENDBRANCH  18  20
ENDBRANCH  15  18
ENDBRANCH  13  15
ENDBRANCH   8   9
ENDBRANCH   4   7
TORSDOF 5
ENDMDL
MODEL      217
REMARK 921   NORMALIZED FREE ENERGY PREDICTED BY IDOCK:   -4.64 KCAL/MOL
REMARK 922        TOTAL FREE ENERGY PREDICTED BY IDOCK:   -6.47 KCAL/MOL
REMARK 923 INTER-LIGAND FREE ENERGY PREDICTED BY IDOCK:   -5.91 KCAL/MOL
REMARK 924 INTRA-LIGAND FREE ENERGY PREDICTED BY IDOCK:   -0.56 KCAL/MOL
REMARK 927      BINDING AFFINITY PREDICTED BY RF-SCORE:    0.00 PKD
ROOT
HETATM    1  O   UNL     1      -8.501   4.723  68.381  1.00  0.00    -0.094 OA 
HETATM    2  N   UNL     1      -9.473   4.241  67.490  1.00  0.00    -0.166 N  
HETATM    3  H   UNL     1      -8.108   4.163  69.041  1.00  0.00     0.000 HD 
HETATM    4  C   UNL     1     -10.037   5.044  66.543  1.00  0.00    -0.248 C  
HETATM    5  H   UNL     1      -9.764   3.265  67.553  1.00  0.00     0.000 HD 
HETATM    6  O   UNL     1     -10.933   4.630  65.815  1.00  0.00    -0.237 OA 
ENDROOT
BRANCH   4   7
HETATM    7  C   UNL     1      -9.507   6.426  66.447  1.00  0.00    -0.169 C  
HETATM    8  C   UNL     1     -10.273   7.477  66.772  1.00  0.00    -0.324 C  
BRANCH   8   9
HETATM    9  C   UNL     1      -9.749   8.839  66.676  1.00  0.00    -0.309 A  
HETATM   10  C   UNL     1      -8.430   9.052  66.257  1.00  0.00    -0.132 A  
HETATM   11  C   UNL     1      -7.900  10.345  66.222  1.00  0.00    -0.132 A  
HETATM   12  C   UNL     1      -8.681  11.433  66.611  1.00  0.00    -0.178 A  
HETATM   13  C   UNL     1     -10.004  11.225  67.016  1.00  0.00    -0.198 A  
HETATM   14  C   UNL     1     -10.540   9.931  67.057  1.00  0.00    -0.272 A  
BRANCH  13  15
HETATM   15  S   UNL     1     -10.963  12.599  67.624  1.00  0.00    -0.253 S  
HETATM   16  O   UNL     1     -12.363  12.253  67.493  1.00  0.00    -0.330 OA 
HETATM   17  O   UNL     1     -10.432  13.799  67.011  1.00  0.00    -0.270 OA 
BRANCH  15  18
HETATM   18  N   UNL     1     -10.563  12.701  69.257  1.00  0.00    -0.436 N  
HETATM   19  H   UNL     1      -9.602  12.551  69.560  1.00  0.00     0.000 HD 
BRANCH  18  20
HETATM   20  C   UNL     1     -11.574  12.996  70.205  1.00  0.00     0.019 A  
HETATM   21  C   UNL     1     -12.209  11.963  70.892  1.00  0.00    -0.351 A  
HETATM   22  C   UNL     1     -13.254  12.256  71.771  1.00  0.00    -0.428 A  
HETATM   23  C   UNL     1     -13.647  13.579  71.973  1.00  0.00    -0.589 A  
HETATM   24  C   UNL     1     -12.998  14.612  71.296  1.00  0.00    -0.407 A  
HETATM   25  C   UNL     1     -11.966  14.319  70.404  1.00  0.00    -0.402 A  
ENDBRANCH  18  20
ENDBRANCH  15  18
ENDBRANCH  13  15
ENDBRANCH   8   9
ENDBRANCH   4   7
TORSDOF 5
ENDMDL
MODEL      218
REMARK 921   NORMALIZED FREE ENERGY PREDICTED BY IDOCK:   -4.64 KCAL/MOL
REMARK 922        TOTAL FREE ENERGY PREDICTED BY IDOCK:   -6.47 KCAL/MOL
REMARK 923 INTER-LIGAND FREE ENERGY PREDICTED BY IDOCK:   -5.85 KCAL/MOL
REMARK 924 INTRA-LIGAND FREE ENERGY PREDICTED BY IDOCK:   -0.62 KCAL/MOL
REMARK 927      BINDING AFFINITY PREDICTED BY RF-SCORE:    0.00 PKD
ROOT
HETATM    1  O   UNL     1      -9.612  13.854  65.682  1.00  0.00    -0.504 OA 
HETATM    2  N   UNL     1     -10.141  13.415  64.458  1.00  0.00    -0.634 N  
HETATM    3  H   UNL     1      -9.639  14.769  65.938  1.00  0.00     0.000 HD 
HETATM    4  C   UNL     1     -10.103  12.101  64.092  1.00  0.00    -0.308 C  
HETATM    5  H   UNL     1     -10.564  14.095  63.827  1.00  0.00     0.000 HD 
HETATM    6  O   UNL     1     -10.507  11.739  62.992  1.00  0.00    -0.322 OA 
ENDROOT
BRANCH   4   7
HETATM    7  C   UNL     1      -9.555  11.152  65.091  1.00  0.00    -0.273 C  
HETATM    8  C   UNL     1     -10.369  10.346  65.789  1.00  0.00    -0.257 C  
BRANCH   8   9
HETATM    9  C   UNL     1      -9.827   9.411  66.774  1.00  0.00    -0.280 A  
HETATM   10  C   UNL     1      -8.733   8.604  66.442  1.00  0.00    -0.150 A  
HETATM   11  C   UNL     1      -8.246   7.663  67.353  1.00  0.00    -0.116 A  
HETATM   12  C   UNL     1      -8.854   7.516  68.600  1.00  0.00    -0.127 A  
HETATM   13  C   UNL     1      -9.940   8.331  68.940  1.00  0.00    -0.186 A  
HETATM   14  C   UNL     1     -10.434   9.274  68.029  1.00  0.00    -0.275 A  
BRANCH  13  15
HETATM   15  S   UNL     1     -10.790   8.064  70.484  1.00  0.00    -0.242 S  
HETATM   16  O   UNL     1     -11.854   7.113  70.245  1.00  0.00    -0.233 OA 
HETATM   17  O   UNL     1     -11.069   9.368  71.052  1.00  0.00    -0.284 OA 
BRANCH  15  18
HETATM   18  N   UNL     1      -9.630   7.366  71.486  1.00  0.00    -0.152 N  
HETATM   19  H   UNL     1      -8.766   7.864  71.697  1.00  0.00     0.000 HD 
BRANCH  18  20
HETATM   20  C   UNL     1      -9.865   6.080  72.034  1.00  0.00    -0.156 A  
HETATM   21  C   UNL     1      -9.368   4.947  71.392  1.00  0.00    -0.199 A  
HETATM   22  C   UNL     1      -9.665   3.680  71.897  1.00  0.00    -0.236 A  
HETATM   23  C   UNL     1     -10.441   3.550  73.049  1.00  0.00    -0.251 A  
HETATM   24  C   UNL     1     -10.922   4.687  73.699  1.00  0.00    -0.392 A  
HETATM   25  C   UNL     1     -10.642   5.953  73.185  1.00  0.00    -0.270 A  
ENDBRANCH  18  20
ENDBRANCH  15  18
ENDBRANCH  13  15
ENDBRANCH   8   9
ENDBRANCH   4   7
TORSDOF 5
ENDMDL
MODEL      219
REMARK 921   NORMALIZED FREE ENERGY PREDICTED BY IDOCK:   -4.61 KCAL/MOL
REMARK 922        TOTAL FREE ENERGY PREDICTED BY IDOCK:   -6.42 KCAL/MOL
REMARK 923 INTER-LIGAND FREE ENERGY PREDICTED BY IDOCK:   -5.98 KCAL/MOL
REMARK 924 INTRA-LIGAND FREE ENERGY PREDICTED BY IDOCK:   -0.45 KCAL/MOL
REMARK 927      BINDING AFFINITY PREDICTED BY RF-SCORE:    0.00 PKD
ROOT
HETATM    1  O   UNL     1     -10.682  16.264  66.909  1.00  0.00    -0.300 OA 
HETATM    2  N   UNL     1     -11.262  16.546  68.155  1.00  0.00    -0.307 N  
HETATM    3  H   UNL     1     -10.304  16.948  66.368  1.00  0.00     0.000 HD 
HETATM    4  C   UNL     1     -11.804  15.563  68.932  1.00  0.00    -0.338 C  
HETATM    5  H   UNL     1     -11.279  17.509  68.490  1.00  0.00     0.000 HD 
HETATM    6  O   UNL     1     -12.368  15.830  69.988  1.00  0.00    -0.354 OA 
ENDROOT
BRANCH   4   7
HETATM    7  C   UNL     1     -11.669  14.174  68.430  1.00  0.00    -0.380 C  
HETATM    8  C   UNL     1     -10.694  13.374  68.884  1.00  0.00    -0.219 C  
BRANCH   8   9
HETATM    9  C   UNL     1     -10.561  12.005  68.388  1.00  0.00    -0.236 A  
HETATM   10  C   UNL     1     -10.572  11.757  67.010  1.00  0.00    -0.267 A  
HETATM   11  C   UNL     1     -10.509  10.448  66.526  1.00  0.00    -0.262 A  
HETATM   12  C   UNL     1     -10.440   9.375  67.415  1.00  0.00    -0.343 A  
HETATM   13  C   UNL     1     -10.415   9.620  68.793  1.00  0.00    -0.215 A  
HETATM   14  C   UNL     1     -10.482  10.931  69.284  1.00  0.00    -0.230 A  
BRANCH  13  15
HETATM   15  S   UNL     1     -10.446   8.248  69.930  1.00  0.00    -0.223 S  
HETATM   16  O   UNL     1     -11.384   8.569  70.985  1.00  0.00    -0.259 OA 
HETATM   17  O   UNL     1      -9.071   7.909  70.233  1.00  0.00    -0.150 OA 
BRANCH  15  18
HETATM   18  N   UNL     1     -11.046   6.963  69.021  1.00  0.00    -0.466 N  
HETATM   19  H   UNL     1     -11.899   7.075  68.474  1.00  0.00     0.000 HD 
BRANCH  18  20
HETATM   20  C   UNL     1     -10.356   5.725  69.023  1.00  0.00    -0.245 A  
HETATM   21  C   UNL     1      -9.810   5.229  67.840  1.00  0.00    -0.189 A  
HETATM   22  C   UNL     1      -9.196   3.975  67.834  1.00  0.00    -0.200 A  
HETATM   23  C   UNL     1      -9.114   3.231  69.011  1.00  0.00    -0.207 A  
HETATM   24  C   UNL     1      -9.647   3.738  70.197  1.00  0.00    -0.258 A  
HETATM   25  C   UNL     1     -10.277   4.982  70.201  1.00  0.00    -0.329 A  
ENDBRANCH  18  20
ENDBRANCH  15  18
ENDBRANCH  13  15
ENDBRANCH   8   9
ENDBRANCH   4   7
TORSDOF 5
ENDMDL
MODEL      220
REMARK 921   NORMALIZED FREE ENERGY PREDICTED BY IDOCK:   -4.58 KCAL/MOL
REMARK 922        TOTAL FREE ENERGY PREDICTED BY IDOCK:   -6.39 KCAL/MOL
REMARK 923 INTER-LIGAND FREE ENERGY PREDICTED BY IDOCK:   -6.23 KCAL/MOL
REMARK 924 INTRA-LIGAND FREE ENERGY PREDICTED BY IDOCK:   -0.16 KCAL/MOL
REMARK 927      BINDING AFFINITY PREDICTED BY RF-SCORE:    0.00 PKD
ROOT
HETATM    1  O   UNL     1      -9.594   2.382  67.478  1.00  0.00    -0.400 OA 
HETATM    2  N   UNL     1      -9.722   2.719  66.121  1.00  0.00    -0.363 N  
HETATM    3  H   UNL     1      -9.558   1.477  67.766  1.00  0.00     0.000 HD 
HETATM    4  C   UNL     1      -9.775   4.018  65.707  1.00  0.00    -0.190 C  
HETATM    5  H   UNL     1      -9.777   1.974  65.427  1.00  0.00     0.000 HD 
HETATM    6  O   UNL     1      -9.954   4.300  64.527  1.00  0.00    -0.166 OA 
ENDROOT
BRANCH   4   7
HETATM    7  C   UNL     1      -9.601   5.053  66.756  1.00  0.00    -0.164 C  
HETATM    8  C   UNL     1     -10.429   6.105  66.824  1.00  0.00    -0.316 C  
BRANCH   8   9
HETATM    9  C   UNL     1     -10.256   7.125  67.857  1.00  0.00    -0.231 A  
HETATM   10  C   UNL     1      -9.992   6.742  69.178  1.00  0.00    -0.166 A  
HETATM   11  C   UNL     1      -9.887   7.706  70.185  1.00  0.00    -0.184 A  
HETATM   12  C   UNL     1     -10.052   9.057  69.881  1.00  0.00    -0.213 A  
HETATM   13  C   UNL     1     -10.303   9.443  68.560  1.00  0.00    -0.209 A  
HETATM   14  C   UNL     1     -10.413   8.482  67.547  1.00  0.00    -0.328 A  
BRANCH  13  15
HETATM   15  S   UNL     1     -10.629  11.156  68.192  1.00  0.00    -0.208 S  
HETATM   16  O   UNL     1     -10.074  11.953  69.265  1.00  0.00     0.075 OA 
HETATM   17  O   UNL     1     -12.030  11.260  67.834  1.00  0.00    -0.630 OA 
BRANCH  15  18
HETATM   18  N   UNL     1      -9.770  11.452  66.774  1.00  0.00    -0.195 N  
HETATM   19  H   UNL     1      -8.761  11.311  66.746  1.00  0.00     0.000 HD 
BRANCH  18  20
HETATM   20  C   UNL     1     -10.460  11.900  65.620  1.00  0.00    -0.262 A  
HETATM   21  C   UNL     1     -10.229  11.291  64.388  1.00  0.00    -0.377 A  
HETATM   22  C   UNL     1     -10.857  11.784  63.243  1.00  0.00    -0.400 A  
HETATM   23  C   UNL     1     -11.727  12.871  63.336  1.00  0.00    -0.526 A  
HETATM   24  C   UNL     1     -11.969  13.468  64.574  1.00  0.00    -0.451 A  
HETATM   25  C   UNL     1     -11.328  12.988  65.716  1.00  0.00    -0.331 A  
ENDBRANCH  18  20
ENDBRANCH  15  18
ENDBRANCH  13  15
ENDBRANCH   8   9
ENDBRANCH   4   7
TORSDOF 5
ENDMDL
MODEL      221
REMARK 921   NORMALIZED FREE ENERGY PREDICTED BY IDOCK:   -4.57 KCAL/MOL
REMARK 922        TOTAL FREE ENERGY PREDICTED BY IDOCK:   -6.38 KCAL/MOL
REMARK 923 INTER-LIGAND FREE ENERGY PREDICTED BY IDOCK:   -5.79 KCAL/MOL
REMARK 924 INTRA-LIGAND FREE ENERGY PREDICTED BY IDOCK:   -0.58 KCAL/MOL
REMARK 927      BINDING AFFINITY PREDICTED BY RF-SCORE:    0.00 PKD
ROOT
HETATM    1  O   UNL     1     -13.471   9.994  72.393  1.00  0.00    -0.616 OA 
HETATM    2  N   UNL     1     -13.491  11.395  72.302  1.00  0.00    -0.518 N  
HETATM    3  H   UNL     1     -13.970   9.530  73.056  1.00  0.00     0.000 HD 
HETATM    4  C   UNL     1     -12.775  12.061  71.350  1.00  0.00    -0.275 C  
HETATM    5  H   UNL     1     -14.054  11.928  72.963  1.00  0.00     0.000 HD 
HETATM    6  O   UNL     1     -12.746  13.287  71.322  1.00  0.00    -0.359 OA 
ENDROOT
BRANCH   4   7
HETATM    7  C   UNL     1     -12.047  11.225  70.364  1.00  0.00    -0.474 C  
HETATM    8  C   UNL     1     -11.884  11.641  69.100  1.00  0.00    -0.390 C  
BRANCH   8   9
HETATM    9  C   UNL     1     -11.167  10.815  68.130  1.00  0.00    -0.365 A  
HETATM   10  C   UNL     1     -10.734  11.375  66.921  1.00  0.00    -0.308 A  
HETATM   11  C   UNL     1     -10.103  10.581  65.960  1.00  0.00    -0.317 A  
HETATM   12  C   UNL     1      -9.907   9.220  66.196  1.00  0.00    -0.363 A  
HETATM   13  C   UNL     1     -10.327   8.660  67.407  1.00  0.00    -0.284 A  
HETATM   14  C   UNL     1     -10.963   9.451  68.373  1.00  0.00    -0.079 A  
BRANCH  13  15
HETATM   15  S   UNL     1     -10.183   6.902  67.660  1.00  0.00    -0.208 S  
HETATM   16  O   UNL     1     -11.167   6.252  66.820  1.00  0.00    -0.310 OA 
HETATM   17  O   UNL     1     -10.157   6.673  69.091  1.00  0.00    -0.159 OA 
BRANCH  15  18
HETATM   18  N   UNL     1      -8.638   6.523  67.106  1.00  0.00    -0.112 N  
HETATM   19  H   UNL     1      -7.817   6.878  67.593  1.00  0.00     0.000 HD 
BRANCH  18  20
HETATM   20  C   UNL     1      -8.490   5.707  65.957  1.00  0.00    -0.132 A  
HETATM   21  C   UNL     1      -8.258   6.289  64.712  1.00  0.00    -0.100 A  
HETATM   22  C   UNL     1      -8.185   5.485  63.574  1.00  0.00    -0.106 A  
HETATM   23  C   UNL     1      -8.327   4.101  63.686  1.00  0.00    -0.097 A  
HETATM   24  C   UNL     1      -8.543   3.520  64.935  1.00  0.00    -0.109 A  
HETATM   25  C   UNL     1      -8.634   4.324  66.071  1.00  0.00    -0.113 A  
ENDBRANCH  18  20
ENDBRANCH  15  18
ENDBRANCH  13  15
ENDBRANCH   8   9
ENDBRANCH   4   7
TORSDOF 5
ENDMDL
MODEL      222
REMARK 921   NORMALIZED FREE ENERGY PREDICTED BY IDOCK:   -4.55 KCAL/MOL
REMARK 922        TOTAL FREE ENERGY PREDICTED BY IDOCK:   -6.35 KCAL/MOL
REMARK 923 INTER-LIGAND FREE ENERGY PREDICTED BY IDOCK:   -5.81 KCAL/MOL
REMARK 924 INTRA-LIGAND FREE ENERGY PREDICTED BY IDOCK:   -0.55 KCAL/MOL
REMARK 927      BINDING AFFINITY PREDICTED BY RF-SCORE:    0.00 PKD
ROOT
HETATM    1  O   UNL     1     -12.596  14.448  66.409  1.00  0.00    -0.496 OA 
HETATM    2  N   UNL     1     -12.855  14.169  65.058  1.00  0.00    -0.713 N  
HETATM    3  H   UNL     1     -12.933  15.230  66.831  1.00  0.00     0.000 HD 
HETATM    4  C   UNL     1     -12.371  13.046  64.453  1.00  0.00    -0.376 C  
HETATM    5  H   UNL     1     -13.420  14.822  64.515  1.00  0.00     0.000 HD 
HETATM    6  O   UNL     1     -12.548  12.846  63.256  1.00  0.00    -0.685 OA 
ENDROOT
BRANCH   4   7
HETATM    7  C   UNL     1     -11.633  12.094  65.318  1.00  0.00    -0.376 C  
HETATM    8  C   UNL     1     -10.310  11.925  65.177  1.00  0.00    -0.318 C  
BRANCH   8   9
HETATM    9  C   UNL     1      -9.583  10.986  66.031  1.00  0.00    -0.249 A  
HETATM   10  C   UNL     1      -8.439  11.409  66.717  1.00  0.00    -0.165 A  
HETATM   11  C   UNL     1      -7.701  10.504  67.486  1.00  0.00    -0.098 A  
HETATM   12  C   UNL     1      -8.097   9.169  67.568  1.00  0.00    -0.104 A  
HETATM   13  C   UNL     1      -9.248   8.747  66.894  1.00  0.00    -0.156 A  
HETATM   14  C   UNL     1      -9.990   9.648  66.119  1.00  0.00    -0.346 A  
BRANCH  13  15
HETATM   15  S   UNL     1      -9.688   7.019  66.904  1.00  0.00    -0.182 S  
HETATM   16  O   UNL     1     -11.128   6.930  67.023  1.00  0.00    -0.389 OA 
HETATM   17  O   UNL     1      -8.819   6.359  67.857  1.00  0.00    -0.115 OA 
BRANCH  15  18
HETATM   18  N   UNL     1      -9.217   6.458  65.387  1.00  0.00    -0.357 N  
HETATM   19  H   UNL     1      -9.268   7.070  64.574  1.00  0.00     0.000 HD 
BRANCH  18  20
HETATM   20  C   UNL     1      -8.749   5.127  65.251  1.00  0.00    -0.150 A  
HETATM   21  C   UNL     1      -7.406   4.886  64.967  1.00  0.00    -0.071 A  
HETATM   22  C   UNL     1      -6.966   3.577  64.762  1.00  0.00    -0.056 A  
HETATM   23  C   UNL     1      -7.865   2.514  64.858  1.00  0.00    -0.078 A  
HETATM   24  C   UNL     1      -9.206   2.758  65.159  1.00  0.00    -0.139 A  
HETATM   25  C   UNL     1      -9.650   4.067  65.346  1.00  0.00    -0.188 A  
ENDBRANCH  18  20
ENDBRANCH  15  18
ENDBRANCH  13  15
ENDBRANCH   8   9
ENDBRANCH   4   7
TORSDOF 5
ENDMDL
MODEL      223
REMARK 921   NORMALIZED FREE ENERGY PREDICTED BY IDOCK:   -4.55 KCAL/MOL
REMARK 922        TOTAL FREE ENERGY PREDICTED BY IDOCK:   -6.35 KCAL/MOL
REMARK 923 INTER-LIGAND FREE ENERGY PREDICTED BY IDOCK:   -5.51 KCAL/MOL
REMARK 924 INTRA-LIGAND FREE ENERGY PREDICTED BY IDOCK:   -0.84 KCAL/MOL
REMARK 927      BINDING AFFINITY PREDICTED BY RF-SCORE:    0.00 PKD
ROOT
HETATM    1  O   UNL     1     -12.596  14.448  66.409  1.00  0.00    -0.496 OA 
HETATM    2  N   UNL     1     -12.855  14.169  65.058  1.00  0.00    -0.713 N  
HETATM    3  H   UNL     1     -12.933  15.230  66.831  1.00  0.00     0.000 HD 
HETATM    4  C   UNL     1     -12.371  13.046  64.453  1.00  0.00    -0.376 C  
HETATM    5  H   UNL     1     -13.420  14.822  64.515  1.00  0.00     0.000 HD 
HETATM    6  O   UNL     1     -12.548  12.846  63.256  1.00  0.00    -0.685 OA 
ENDROOT
BRANCH   4   7
HETATM    7  C   UNL     1     -11.633  12.094  65.318  1.00  0.00    -0.376 C  
HETATM    8  C   UNL     1     -10.310  11.925  65.177  1.00  0.00    -0.318 C  
BRANCH   8   9
HETATM    9  C   UNL     1      -9.583  10.986  66.031  1.00  0.00    -0.249 A  
HETATM   10  C   UNL     1      -8.439  11.409  66.717  1.00  0.00    -0.165 A  
HETATM   11  C   UNL     1      -7.701  10.504  67.486  1.00  0.00    -0.098 A  
HETATM   12  C   UNL     1      -8.097   9.169  67.568  1.00  0.00    -0.104 A  
HETATM   13  C   UNL     1      -9.248   8.747  66.894  1.00  0.00    -0.156 A  
HETATM   14  C   UNL     1      -9.990   9.648  66.119  1.00  0.00    -0.346 A  
BRANCH  13  15
HETATM   15  S   UNL     1      -9.688   7.019  66.904  1.00  0.00    -0.182 S  
HETATM   16  O   UNL     1     -11.128   6.930  67.023  1.00  0.00    -0.389 OA 
HETATM   17  O   UNL     1      -8.819   6.359  67.857  1.00  0.00    -0.115 OA 
BRANCH  15  18
HETATM   18  N   UNL     1      -9.217   6.458  65.387  1.00  0.00    -0.357 N  
HETATM   19  H   UNL     1      -9.789   5.774  64.893  1.00  0.00     0.000 HD 
BRANCH  18  20
HETATM   20  C   UNL     1      -8.020   6.943  64.805  1.00  0.00    -0.119 A  
HETATM   21  C   UNL     1      -8.074   7.776  63.689  1.00  0.00    -0.053 A  
HETATM   22  C   UNL     1      -6.891   8.191  63.076  1.00  0.00    -0.086 A  
HETATM   23  C   UNL     1      -5.658   7.787  63.591  1.00  0.00    -0.049 A  
HETATM   24  C   UNL     1      -5.607   6.967  64.718  1.00  0.00    -0.032 A  
HETATM   25  C   UNL     1      -6.789   6.536  65.320  1.00  0.00    -0.047 A  
ENDBRANCH  18  20
ENDBRANCH  15  18
ENDBRANCH  13  15
ENDBRANCH   8   9
ENDBRANCH   4   7
TORSDOF 5
ENDMDL
MODEL      224
REMARK 921   NORMALIZED FREE ENERGY PREDICTED BY IDOCK:   -4.54 KCAL/MOL
REMARK 922        TOTAL FREE ENERGY PREDICTED BY IDOCK:   -6.33 KCAL/MOL
REMARK 923 INTER-LIGAND FREE ENERGY PREDICTED BY IDOCK:   -5.81 KCAL/MOL
REMARK 924 INTRA-LIGAND FREE ENERGY PREDICTED BY IDOCK:   -0.52 KCAL/MOL
REMARK 927      BINDING AFFINITY PREDICTED BY RF-SCORE:    0.00 PKD
ROOT
HETATM    1  O   UNL     1     -11.021  19.080  65.145  1.00  0.00    -0.471 OA 
HETATM    2  N   UNL     1     -10.019  19.430  66.063  1.00  0.00    -0.396 N  
HETATM    3  H   UNL     1     -11.275  19.662  64.437  1.00  0.00     0.000 HD 
HETATM    4  C   UNL     1      -9.655  18.595  67.079  1.00  0.00    -0.304 C  
HETATM    5  H   UNL     1      -9.552  20.332  65.970  1.00  0.00     0.000 HD 
HETATM    6  O   UNL     1      -8.826  18.939  67.915  1.00  0.00    -0.287 OA 
ENDROOT
BRANCH   4   7
HETATM    7  C   UNL     1     -10.310  17.264  67.107  1.00  0.00    -0.321 C  
HETATM    8  C   UNL     1      -9.734  16.205  66.520  1.00  0.00    -0.282 C  
BRANCH   8   9
HETATM    9  C   UNL     1     -10.381  14.894  66.549  1.00  0.00    -0.295 A  
HETATM   10  C   UNL     1     -11.324  14.602  67.542  1.00  0.00    -0.361 A  
HETATM   11  C   UNL     1     -11.902  13.332  67.616  1.00  0.00    -0.400 A  
HETATM   12  C   UNL     1     -11.538  12.342  66.703  1.00  0.00    -0.447 A  
HETATM   13  C   UNL     1     -10.606  12.635  65.701  1.00  0.00    -0.273 A  
HETATM   14  C   UNL     1     -10.020  13.906  65.624  1.00  0.00    -0.298 A  
BRANCH  13  15
HETATM   15  S   UNL     1     -10.054  11.340  64.608  1.00  0.00    -0.313 S  
HETATM   16  O   UNL     1     -10.264  11.788  63.248  1.00  0.00    -0.412 OA 
HETATM   17  O   UNL     1     -10.635  10.100  65.082  1.00  0.00    -0.069 OA 
BRANCH  15  18
HETATM   18  N   UNL     1      -8.401  11.215  64.907  1.00  0.00    -0.362 N  
HETATM   19  H   UNL     1      -7.873  12.029  65.220  1.00  0.00     0.000 HD 
BRANCH  18  20
HETATM   20  C   UNL     1      -7.750   9.970  64.719  1.00  0.00    -0.142 A  
HETATM   21  C   UNL     1      -7.578   9.460  63.434  1.00  0.00    -0.114 A  
HETATM   22  C   UNL     1      -7.002   8.200  63.260  1.00  0.00    -0.085 A  
HETATM   23  C   UNL     1      -6.584   7.464  64.369  1.00  0.00    -0.040 A  
HETATM   24  C   UNL     1      -6.741   7.986  65.654  1.00  0.00    -0.048 A  
HETATM   25  C   UNL     1      -7.334   9.236  65.829  1.00  0.00    -0.094 A  
ENDBRANCH  18  20
ENDBRANCH  15  18
ENDBRANCH  13  15
ENDBRANCH   8   9
ENDBRANCH   4   7
TORSDOF 5
ENDMDL
MODEL      225
REMARK 921   NORMALIZED FREE ENERGY PREDICTED BY IDOCK:   -4.50 KCAL/MOL
REMARK 922        TOTAL FREE ENERGY PREDICTED BY IDOCK:   -6.29 KCAL/MOL
REMARK 923 INTER-LIGAND FREE ENERGY PREDICTED BY IDOCK:   -5.71 KCAL/MOL
REMARK 924 INTRA-LIGAND FREE ENERGY PREDICTED BY IDOCK:   -0.58 KCAL/MOL
REMARK 927      BINDING AFFINITY PREDICTED BY RF-SCORE:    0.00 PKD
ROOT
HETATM    1  O   UNL     1      -9.576   9.583  62.382  1.00  0.00    -0.575 OA 
HETATM    2  N   UNL     1      -9.920  10.944  62.364  1.00  0.00    -0.654 N  
HETATM    3  H   UNL     1      -9.391   9.104  61.582  1.00  0.00     0.000 HD 
HETATM    4  C   UNL     1     -10.184  11.631  63.513  1.00  0.00    -0.436 C  
HETATM    5  H   UNL     1      -9.973  11.432  61.470  1.00  0.00     0.000 HD 
HETATM    6  O   UNL     1     -10.549  12.801  63.480  1.00  0.00    -0.350 OA 
ENDROOT
BRANCH   4   7
HETATM    7  C   UNL     1     -10.003  10.888  64.784  1.00  0.00    -0.366 C  
HETATM    8  C   UNL     1     -10.748  11.180  65.860  1.00  0.00    -0.261 C  
BRANCH   8   9
HETATM    9  C   UNL     1     -10.568  10.447  67.112  1.00  0.00    -0.319 A  
HETATM   10  C   UNL     1     -10.134  11.122  68.260  1.00  0.00    -0.196 A  
HETATM   11  C   UNL     1      -9.899  10.422  69.446  1.00  0.00    -0.235 A  
HETATM   12  C   UNL     1     -10.088   9.040  69.492  1.00  0.00    -0.199 A  
HETATM   13  C   UNL     1     -10.535   8.365  68.351  1.00  0.00    -0.164 A  
HETATM   14  C   UNL     1     -10.769   9.062  67.158  1.00  0.00    -0.206 A  
BRANCH  13  15
HETATM   15  S   UNL     1     -10.664   6.587  68.376  1.00  0.00    -0.293 S  
HETATM   16  O   UNL     1     -10.946   6.145  67.027  1.00  0.00    -0.340 OA 
HETATM   17  O   UNL     1     -11.542   6.235  69.474  1.00  0.00    -0.423 OA 
BRANCH  15  18
HETATM   18  N   UNL     1      -9.129   6.061  68.828  1.00  0.00    -0.124 N  
HETATM   19  H   UNL     1      -8.666   6.467  69.640  1.00  0.00     0.000 HD 
BRANCH  18  20
HETATM   20  C   UNL     1      -8.488   5.049  68.071  1.00  0.00    -0.103 A  
HETATM   21  C   UNL     1      -7.590   5.396  67.063  1.00  0.00    -0.092 A  
HETATM   22  C   UNL     1      -7.017   4.398  66.273  1.00  0.00    -0.066 A  
HETATM   23  C   UNL     1      -7.330   3.058  66.504  1.00  0.00    -0.074 A  
HETATM   24  C   UNL     1      -8.217   2.713  67.524  1.00  0.00    -0.083 A  
HETATM   25  C   UNL     1      -8.804   3.711  68.303  1.00  0.00    -0.151 A  
ENDBRANCH  18  20
ENDBRANCH  15  18
ENDBRANCH  13  15
ENDBRANCH   8   9
ENDBRANCH   4   7
TORSDOF 5
ENDMDL
MODEL      226
REMARK 921   NORMALIZED FREE ENERGY PREDICTED BY IDOCK:   -4.48 KCAL/MOL
REMARK 922        TOTAL FREE ENERGY PREDICTED BY IDOCK:   -6.26 KCAL/MOL
REMARK 923 INTER-LIGAND FREE ENERGY PREDICTED BY IDOCK:   -5.39 KCAL/MOL
REMARK 924 INTRA-LIGAND FREE ENERGY PREDICTED BY IDOCK:   -0.86 KCAL/MOL
REMARK 927      BINDING AFFINITY PREDICTED BY RF-SCORE:    0.00 PKD
ROOT
HETATM    1  O   UNL     1      -9.611   9.323  63.372  1.00  0.00    -0.350 OA 
HETATM    2  N   UNL     1     -10.232  10.349  62.642  1.00  0.00    -0.640 N  
HETATM    3  H   UNL     1      -9.137   8.621  62.942  1.00  0.00     0.000 HD 
HETATM    4  C   UNL     1     -10.912  11.357  63.260  1.00  0.00    -0.164 C  
HETATM    5  H   UNL     1     -10.174  10.340  61.624  1.00  0.00     0.000 HD 
HETATM    6  O   UNL     1     -11.508  12.210  62.610  1.00  0.00     0.412 OA 
ENDROOT
BRANCH   4   7
HETATM    7  C   UNL     1     -10.885  11.361  64.743  1.00  0.00    -0.339 C  
HETATM    8  C   UNL     1     -11.641  12.222  65.439  1.00  0.00    -0.412 C  
BRANCH   8   9
HETATM    9  C   UNL     1     -11.612  12.226  66.901  1.00  0.00    -0.427 A  
HETATM   10  C   UNL     1     -11.942  13.392  67.603  1.00  0.00    -0.362 A  
HETATM   11  C   UNL     1     -11.858  13.424  68.998  1.00  0.00    -0.378 A  
HETATM   12  C   UNL     1     -11.437  12.296  69.701  1.00  0.00    -0.285 A  
HETATM   13  C   UNL     1     -11.120  11.125  69.003  1.00  0.00    -0.242 A  
HETATM   14  C   UNL     1     -11.199  11.087  67.605  1.00  0.00    -0.373 A  
BRANCH  13  15
HETATM   15  S   UNL     1     -10.470   9.722  69.890  1.00  0.00    -0.281 S  
HETATM   16  O   UNL     1     -10.683   8.546  69.074  1.00  0.00    -0.193 OA 
HETATM   17  O   UNL     1     -10.984   9.793  71.243  1.00  0.00    -0.351 OA 
BRANCH  15  18
HETATM   18  N   UNL     1      -8.818  10.028  70.009  1.00  0.00    -0.363 N  
HETATM   19  H   UNL     1      -8.366  10.056  70.922  1.00  0.00     0.000 HD 
BRANCH  18  20
HETATM   20  C   UNL     1      -8.063  10.247  68.830  1.00  0.00    -0.120 A  
HETATM   21  C   UNL     1      -7.585   9.163  68.096  1.00  0.00    -0.084 A  
HETATM   22  C   UNL     1      -6.781   9.385  66.977  1.00  0.00    -0.076 A  
HETATM   23  C   UNL     1      -6.471  10.688  66.586  1.00  0.00    -0.100 A  
HETATM   24  C   UNL     1      -6.965  11.772  67.313  1.00  0.00    -0.138 A  
HETATM   25  C   UNL     1      -7.754  11.551  68.442  1.00  0.00    -0.129 A  
ENDBRANCH  18  20
ENDBRANCH  15  18
ENDBRANCH  13  15
ENDBRANCH   8   9
ENDBRANCH   4   7
TORSDOF 5
ENDMDL
MODEL      227
REMARK 921   NORMALIZED FREE ENERGY PREDICTED BY IDOCK:   -4.48 KCAL/MOL
REMARK 922        TOTAL FREE ENERGY PREDICTED BY IDOCK:   -6.25 KCAL/MOL
REMARK 923 INTER-LIGAND FREE ENERGY PREDICTED BY IDOCK:   -5.74 KCAL/MOL
REMARK 924 INTRA-LIGAND FREE ENERGY PREDICTED BY IDOCK:   -0.51 KCAL/MOL
REMARK 927      BINDING AFFINITY PREDICTED BY RF-SCORE:    0.00 PKD
ROOT
HETATM    1  O   UNL     1      -8.703   3.587  73.090  1.00  0.00    -0.088 OA 
HETATM    2  N   UNL     1      -7.379   4.049  73.022  1.00  0.00    -0.067 N  
HETATM    3  H   UNL     1      -8.925   2.772  73.526  1.00  0.00     0.000 HD 
HETATM    4  C   UNL     1      -7.060   5.219  72.396  1.00  0.00    -0.086 C  
HETATM    5  H   UNL     1      -6.637   3.497  73.452  1.00  0.00     0.000 HD 
HETATM    6  O   UNL     1      -5.893   5.579  72.284  1.00  0.00    -0.024 OA 
ENDROOT
BRANCH   4   7
HETATM    7  C   UNL     1      -8.193   6.017  71.870  1.00  0.00    -0.115 C  
HETATM    8  C   UNL     1      -8.642   7.091  72.536  1.00  0.00    -0.132 C  
BRANCH   8   9
HETATM    9  C   UNL     1      -9.761   7.877  72.016  1.00  0.00    -0.244 A  
HETATM   10  C   UNL     1     -10.992   7.865  72.684  1.00  0.00    -0.440 A  
HETATM   11  C   UNL     1     -12.085   8.563  72.162  1.00  0.00    -0.449 A  
HETATM   12  C   UNL     1     -11.958   9.271  70.967  1.00  0.00    -0.369 A  
HETATM   13  C   UNL     1     -10.726   9.295  70.305  1.00  0.00    -0.243 A  
HETATM   14  C   UNL     1      -9.627   8.595  70.821  1.00  0.00    -0.231 A  
BRANCH  13  15
HETATM   15  S   UNL     1     -10.595  10.100  68.720  1.00  0.00    -0.225 S  
HETATM   16  O   UNL     1     -10.662   9.078  67.697  1.00  0.00    -0.248 OA 
HETATM   17  O   UNL     1      -9.470  11.010  68.792  1.00  0.00    -0.189 OA 
BRANCH  15  18
HETATM   18  N   UNL     1     -11.967  11.073  68.629  1.00  0.00    -0.397 N  
HETATM   19  H   UNL     1     -12.876  10.707  68.911  1.00  0.00     0.000 HD 
BRANCH  18  20
HETATM   20  C   UNL     1     -11.849  12.404  68.156  1.00  0.00    -0.315 A  
HETATM   21  C   UNL     1     -11.726  12.650  66.790  1.00  0.00    -0.460 A  
HETATM   22  C   UNL     1     -11.537  13.957  66.337  1.00  0.00    -0.382 A  
HETATM   23  C   UNL     1     -11.489  15.013  67.248  1.00  0.00    -0.312 A  
HETATM   24  C   UNL     1     -11.629  14.764  68.613  1.00  0.00    -0.345 A  
HETATM   25  C   UNL     1     -11.800  13.457  69.069  1.00  0.00    -0.378 A  
ENDBRANCH  18  20
ENDBRANCH  15  18
ENDBRANCH  13  15
ENDBRANCH   8   9
ENDBRANCH   4   7
TORSDOF 5
ENDMDL
MODEL      228
REMARK 921   NORMALIZED FREE ENERGY PREDICTED BY IDOCK:   -4.46 KCAL/MOL
REMARK 922        TOTAL FREE ENERGY PREDICTED BY IDOCK:   -6.24 KCAL/MOL
REMARK 923 INTER-LIGAND FREE ENERGY PREDICTED BY IDOCK:   -5.52 KCAL/MOL
REMARK 924 INTRA-LIGAND FREE ENERGY PREDICTED BY IDOCK:   -0.72 KCAL/MOL
REMARK 927      BINDING AFFINITY PREDICTED BY RF-SCORE:    0.00 PKD
ROOT
HETATM    1  O   UNL     1      -9.279  13.732  65.867  1.00  0.00    -0.495 OA 
HETATM    2  N   UNL     1     -10.026  12.940  64.981  1.00  0.00    -0.493 N  
HETATM    3  H   UNL     1      -9.121  14.654  65.699  1.00  0.00     0.000 HD 
HETATM    4  C   UNL     1     -10.254  11.616  65.222  1.00  0.00    -0.272 C  
HETATM    5  H   UNL     1     -10.409  13.364  64.136  1.00  0.00     0.000 HD 
HETATM    6  O   UNL     1     -10.850  10.918  64.409  1.00  0.00    -0.299 OA 
ENDROOT
BRANCH   4   7
HETATM    7  C   UNL     1      -9.747  11.082  66.510  1.00  0.00    -0.230 C  
HETATM    8  C   UNL     1     -10.580  10.502  67.386  1.00  0.00    -0.313 C  
BRANCH   8   9
HETATM    9  C   UNL     1     -10.079   9.977  68.655  1.00  0.00    -0.187 A  
HETATM   10  C   UNL     1      -8.764  10.251  69.054  1.00  0.00    -0.164 A  
HETATM   11  C   UNL     1      -8.256   9.703  70.235  1.00  0.00    -0.217 A  
HETATM   12  C   UNL     1      -9.053   8.871  71.021  1.00  0.00    -0.303 A  
HETATM   13  C   UNL     1     -10.370   8.606  70.632  1.00  0.00    -0.202 A  
HETATM   14  C   UNL     1     -10.885   9.150  69.448  1.00  0.00    -0.165 A  
BRANCH  13  15
HETATM   15  S   UNL     1     -11.350   7.452  71.573  1.00  0.00    -0.264 S  
HETATM   16  O   UNL     1     -12.623   7.301  70.901  1.00  0.00    -0.293 OA 
HETATM   17  O   UNL     1     -11.284   7.863  72.961  1.00  0.00    -0.411 OA 
BRANCH  15  18
HETATM   18  N   UNL     1     -10.494   6.004  71.482  1.00  0.00    -0.220 N  
HETATM   19  H   UNL     1     -10.452   5.381  72.288  1.00  0.00     0.000 HD 
BRANCH  18  20
HETATM   20  C   UNL     1      -9.834   5.658  70.277  1.00  0.00    -0.194 A  
HETATM   21  C   UNL     1     -10.566   5.501  69.101  1.00  0.00    -0.300 A  
HETATM   22  C   UNL     1      -9.921   5.089  67.933  1.00  0.00    -0.193 A  
HETATM   23  C   UNL     1      -8.546   4.853  67.941  1.00  0.00    -0.103 A  
HETATM   24  C   UNL     1      -7.813   5.027  69.116  1.00  0.00    -0.080 A  
HETATM   25  C   UNL     1      -8.460   5.421  70.287  1.00  0.00    -0.119 A  
ENDBRANCH  18  20
ENDBRANCH  15  18
ENDBRANCH  13  15
ENDBRANCH   8   9
ENDBRANCH   4   7
TORSDOF 5
ENDMDL
MODEL      229
REMARK 921   NORMALIZED FREE ENERGY PREDICTED BY IDOCK:   -4.46 KCAL/MOL
REMARK 922        TOTAL FREE ENERGY PREDICTED BY IDOCK:   -6.23 KCAL/MOL
REMARK 923 INTER-LIGAND FREE ENERGY PREDICTED BY IDOCK:   -5.43 KCAL/MOL
REMARK 924 INTRA-LIGAND FREE ENERGY PREDICTED BY IDOCK:   -0.81 KCAL/MOL
REMARK 927      BINDING AFFINITY PREDICTED BY RF-SCORE:    0.00 PKD
ROOT
HETATM    1  O   UNL     1     -13.107  10.147  72.222  1.00  0.00    -0.487 OA 
HETATM    2  N   UNL     1     -13.396  11.519  72.165  1.00  0.00    -0.562 N  
HETATM    3  H   UNL     1     -13.541   9.571  72.841  1.00  0.00     0.000 HD 
HETATM    4  C   UNL     1     -12.772  12.346  71.276  1.00  0.00    -0.248 C  
HETATM    5  H   UNL     1     -14.090  11.909  72.803  1.00  0.00     0.000 HD 
HETATM    6  O   UNL     1     -12.983  13.554  71.280  1.00  0.00    -0.338 OA 
ENDROOT
BRANCH   4   7
HETATM    7  C   UNL     1     -11.840  11.704  70.318  1.00  0.00    -0.414 C  
HETATM    8  C   UNL     1     -12.140  11.633  69.013  1.00  0.00    -0.288 C  
BRANCH   8   9
HETATM    9  C   UNL     1     -11.220  10.999  68.069  1.00  0.00    -0.372 A  
HETATM   10  C   UNL     1     -10.566  11.774  67.104  1.00  0.00    -0.267 A  
HETATM   11  C   UNL     1      -9.733  11.170  66.158  1.00  0.00    -0.253 A  
HETATM   12  C   UNL     1      -9.554   9.787  66.165  1.00  0.00    -0.287 A  
HETATM   13  C   UNL     1     -10.196   9.011  67.136  1.00  0.00    -0.265 A  
HETATM   14  C   UNL     1     -11.035   9.611  68.085  1.00  0.00    -0.185 A  
BRANCH  13  15
HETATM   15  S   UNL     1     -10.061   7.235  67.073  1.00  0.00    -0.265 S  
HETATM   16  O   UNL     1      -9.185   6.897  65.972  1.00  0.00    -0.125 OA 
HETATM   17  O   UNL     1     -11.405   6.699  67.149  1.00  0.00    -0.343 OA 
BRANCH  15  18
HETATM   18  N   UNL     1      -9.318   6.819  68.527  1.00  0.00    -0.127 N  
HETATM   19  H   UNL     1      -9.562   5.948  68.997  1.00  0.00     0.000 HD 
BRANCH  18  20
HETATM   20  C   UNL     1      -8.352   7.689  69.090  1.00  0.00    -0.131 A  
HETATM   21  C   UNL     1      -8.668   8.447  70.216  1.00  0.00    -0.140 A  
HETATM   22  C   UNL     1      -7.737   9.355  70.723  1.00  0.00    -0.144 A  
HETATM   23  C   UNL     1      -6.489   9.490  70.114  1.00  0.00    -0.067 A  
HETATM   24  C   UNL     1      -6.169   8.718  68.996  1.00  0.00    -0.044 A  
HETATM   25  C   UNL     1      -7.105   7.823  68.478  1.00  0.00    -0.073 A  
ENDBRANCH  18  20
ENDBRANCH  15  18
ENDBRANCH  13  15
ENDBRANCH   8   9
ENDBRANCH   4   7
TORSDOF 5
ENDMDL
MODEL      230
REMARK 921   NORMALIZED FREE ENERGY PREDICTED BY IDOCK:   -4.45 KCAL/MOL
REMARK 922        TOTAL FREE ENERGY PREDICTED BY IDOCK:   -6.22 KCAL/MOL
REMARK 923 INTER-LIGAND FREE ENERGY PREDICTED BY IDOCK:   -5.71 KCAL/MOL
REMARK 924 INTRA-LIGAND FREE ENERGY PREDICTED BY IDOCK:   -0.51 KCAL/MOL
REMARK 927      BINDING AFFINITY PREDICTED BY RF-SCORE:    0.00 PKD
ROOT
HETATM    1  O   UNL     1     -10.274   4.814  70.448  1.00  0.00    -0.243 OA 
HETATM    2  N   UNL     1     -10.161   4.584  71.829  1.00  0.00    -0.184 N  
HETATM    3  H   UNL     1      -9.973   4.178  69.810  1.00  0.00     0.000 HD 
HETATM    4  C   UNL     1     -10.593   5.498  72.745  1.00  0.00    -0.225 C  
HETATM    5  H   UNL     1      -9.746   3.711  72.155  1.00  0.00     0.000 HD 
HETATM    6  O   UNL     1     -10.428   5.315  73.947  1.00  0.00    -0.235 OA 
ENDROOT
BRANCH   4   7
HETATM    7  C   UNL     1     -11.267   6.705  72.208  1.00  0.00    -0.303 C  
HETATM    8  C   UNL     1     -10.599   7.859  72.072  1.00  0.00    -0.296 C  
BRANCH   8   9
HETATM    9  C   UNL     1     -11.264   9.049  71.543  1.00  0.00    -0.418 A  
HETATM   10  C   UNL     1     -12.481   9.471  72.094  1.00  0.00    -0.376 A  
HETATM   11  C   UNL     1     -13.156  10.570  71.556  1.00  0.00    -0.532 A  
HETATM   12  C   UNL     1     -12.626  11.250  70.459  1.00  0.00    -0.331 A  
HETATM   13  C   UNL     1     -11.404  10.838  69.915  1.00  0.00    -0.311 A  
HETATM   14  C   UNL     1     -10.724   9.735  70.449  1.00  0.00    -0.368 A  
BRANCH  13  15
HETATM   15  S   UNL     1     -10.785  11.631  68.444  1.00  0.00    -0.229 S  
HETATM   16  O   UNL     1      -9.364  11.842  68.620  1.00  0.00    -0.173 OA 
HETATM   17  O   UNL     1     -11.671  12.738  68.147  1.00  0.00    -0.312 OA 
BRANCH  15  18
HETATM   18  N   UNL     1     -11.036  10.501  67.221  1.00  0.00    -0.285 N  
HETATM   19  H   UNL     1     -11.691  10.699  66.465  1.00  0.00     0.000 HD 
BRANCH  18  20
HETATM   20  C   UNL     1     -10.329   9.273  67.250  1.00  0.00    -0.265 A  
HETATM   21  C   UNL     1     -11.019   8.074  67.415  1.00  0.00     0.029 A  
HETATM   22  C   UNL     1     -10.311   6.875  67.515  1.00  0.00    -0.277 A  
HETATM   23  C   UNL     1      -8.919   6.877  67.434  1.00  0.00    -0.116 A  
HETATM   24  C   UNL     1      -8.231   8.078  67.252  1.00  0.00    -0.122 A  
HETATM   25  C   UNL     1      -8.936   9.278  67.169  1.00  0.00    -0.141 A  
ENDBRANCH  18  20
ENDBRANCH  15  18
ENDBRANCH  13  15
ENDBRANCH   8   9
ENDBRANCH   4   7
TORSDOF 5
ENDMDL
MODEL      231
REMARK 921   NORMALIZED FREE ENERGY PREDICTED BY IDOCK:   -4.45 KCAL/MOL
REMARK 922        TOTAL FREE ENERGY PREDICTED BY IDOCK:   -6.22 KCAL/MOL
REMARK 923 INTER-LIGAND FREE ENERGY PREDICTED BY IDOCK:   -5.13 KCAL/MOL
REMARK 924 INTRA-LIGAND FREE ENERGY PREDICTED BY IDOCK:   -1.09 KCAL/MOL
REMARK 927      BINDING AFFINITY PREDICTED BY RF-SCORE:    0.00 PKD
ROOT
HETATM    1  O   UNL     1      -8.141   2.061  70.302  1.00  0.00    -0.042 OA 
HETATM    2  N   UNL     1      -8.524   1.803  68.976  1.00  0.00    -0.052 N  
HETATM    3  H   UNL     1      -7.715   1.401  70.837  1.00  0.00     0.000 HD 
HETATM    4  C   UNL     1      -9.135   2.751  68.209  1.00  0.00    -0.177 C  
HETATM    5  H   UNL     1      -8.340   0.883  68.577  1.00  0.00     0.000 HD 
HETATM    6  O   UNL     1      -9.525   2.493  67.076  1.00  0.00    -0.080 OA 
ENDROOT
BRANCH   4   7
HETATM    7  C   UNL     1      -9.292   4.094  68.819  1.00  0.00    -0.222 C  
HETATM    8  C   UNL     1     -10.051   5.029  68.230  1.00  0.00    -0.170 C  
BRANCH   8   9
HETATM    9  C   UNL     1     -10.205   6.353  68.832  1.00  0.00    -0.215 A  
HETATM   10  C   UNL     1      -9.329   7.387  68.478  1.00  0.00    -0.141 A  
HETATM   11  C   UNL     1      -9.428   8.638  69.093  1.00  0.00    -0.157 A  
HETATM   12  C   UNL     1     -10.397   8.863  70.071  1.00  0.00    -0.219 A  
HETATM   13  C   UNL     1     -11.281   7.836  70.417  1.00  0.00    -0.237 A  
HETATM   14  C   UNL     1     -11.185   6.579  69.807  1.00  0.00    -0.456 A  
BRANCH  13  15
HETATM   15  S   UNL     1     -12.441   8.086  71.748  1.00  0.00    -0.334 S  
HETATM   16  O   UNL     1     -13.579   7.223  71.510  1.00  0.00    -0.388 OA 
HETATM   17  O   UNL     1     -12.610   9.516  71.908  1.00  0.00    -0.364 OA 
BRANCH  15  18
HETATM   18  N   UNL     1     -11.621   7.563  73.123  1.00  0.00    -0.601 N  
HETATM   19  H   UNL     1     -11.758   8.038  74.014  1.00  0.00     0.000 HD 
BRANCH  18  20
HETATM   20  C   UNL     1     -10.740   6.457  73.031  1.00  0.00    -0.259 A  
HETATM   21  C   UNL     1     -11.243   5.158  73.071  1.00  0.00    -0.390 A  
HETATM   22  C   UNL     1     -10.364   4.073  73.053  1.00  0.00    -0.240 A  
HETATM   23  C   UNL     1      -8.988   4.290  72.979  1.00  0.00    -0.116 A  
HETATM   24  C   UNL     1      -8.488   5.592  72.923  1.00  0.00    -0.119 A  
HETATM   25  C   UNL     1      -9.364   6.676  72.959  1.00  0.00    -0.149 A  
ENDBRANCH  18  20
ENDBRANCH  15  18
ENDBRANCH  13  15
ENDBRANCH   8   9
ENDBRANCH   4   7
TORSDOF 5
ENDMDL
MODEL      232
REMARK 921   NORMALIZED FREE ENERGY PREDICTED BY IDOCK:   -4.45 KCAL/MOL
REMARK 922        TOTAL FREE ENERGY PREDICTED BY IDOCK:   -6.22 KCAL/MOL
REMARK 923 INTER-LIGAND FREE ENERGY PREDICTED BY IDOCK:   -5.69 KCAL/MOL
REMARK 924 INTRA-LIGAND FREE ENERGY PREDICTED BY IDOCK:   -0.53 KCAL/MOL
REMARK 927      BINDING AFFINITY PREDICTED BY RF-SCORE:    0.00 PKD
ROOT
HETATM    1  O   UNL     1      -7.404  19.484  66.829  1.00  0.00    -0.217 OA 
HETATM    2  N   UNL     1      -6.438  18.756  67.541  1.00  0.00    -0.196 N  
HETATM    3  H   UNL     1      -7.441  20.433  66.864  1.00  0.00     0.000 HD 
HETATM    4  C   UNL     1      -6.385  17.394  67.489  1.00  0.00    -0.147 C  
HETATM    5  H   UNL     1      -5.757  19.259  68.110  1.00  0.00     0.000 HD 
HETATM    6  O   UNL     1      -5.579  16.766  68.168  1.00  0.00    -0.111 OA 
ENDROOT
BRANCH   4   7
HETATM    7  C   UNL     1      -7.344  16.729  66.574  1.00  0.00    -0.306 C  
HETATM    8  C   UNL     1      -8.642  16.629  66.898  1.00  0.00    -0.240 C  
BRANCH   8   9
HETATM    9  C   UNL     1      -9.587  15.972  65.995  1.00  0.00    -0.385 A  
HETATM   10  C   UNL     1     -10.551  16.732  65.322  1.00  0.00    -0.185 A  
HETATM   11  C   UNL     1     -11.498  16.108  64.505  1.00  0.00    -0.233 A  
HETATM   12  C   UNL     1     -11.494  14.721  64.362  1.00  0.00    -0.261 A  
HETATM   13  C   UNL     1     -10.523  13.960  65.023  1.00  0.00    -0.410 A  
HETATM   14  C   UNL     1      -9.573  14.580  65.845  1.00  0.00    -0.281 A  
BRANCH  13  15
HETATM   15  S   UNL     1     -10.589  12.181  64.934  1.00  0.00    -0.306 S  
HETATM   16  O   UNL     1      -9.371  11.664  65.520  1.00  0.00    -0.222 OA 
HETATM   17  O   UNL     1     -10.972  11.832  63.580  1.00  0.00    -0.378 OA 
BRANCH  15  18
HETATM   18  N   UNL     1     -11.899  11.760  65.905  1.00  0.00    -0.042 N  
HETATM   19  H   UNL     1     -12.800  11.538  65.483  1.00  0.00     0.000 HD 
BRANCH  18  20
HETATM   20  C   UNL     1     -11.739  11.717  67.312  1.00  0.00    -0.217 A  
HETATM   21  C   UNL     1     -11.503  10.501  67.951  1.00  0.00    -0.190 A  
HETATM   22  C   UNL     1     -11.419  10.456  69.343  1.00  0.00    -0.292 A  
HETATM   23  C   UNL     1     -11.553  11.626  70.091  1.00  0.00    -0.303 A  
HETATM   24  C   UNL     1     -11.773  12.845  69.447  1.00  0.00    -0.382 A  
HETATM   25  C   UNL     1     -11.875  12.889  68.057  1.00  0.00    -0.390 A  
ENDBRANCH  18  20
ENDBRANCH  15  18
ENDBRANCH  13  15
ENDBRANCH   8   9
ENDBRANCH   4   7
TORSDOF 5
ENDMDL
MODEL      233
REMARK 921   NORMALIZED FREE ENERGY PREDICTED BY IDOCK:   -4.45 KCAL/MOL
REMARK 922        TOTAL FREE ENERGY PREDICTED BY IDOCK:   -6.22 KCAL/MOL
REMARK 923 INTER-LIGAND FREE ENERGY PREDICTED BY IDOCK:   -5.38 KCAL/MOL
REMARK 924 INTRA-LIGAND FREE ENERGY PREDICTED BY IDOCK:   -0.84 KCAL/MOL
REMARK 927      BINDING AFFINITY PREDICTED BY RF-SCORE:    0.00 PKD
ROOT
HETATM    1  O   UNL     1      -9.145   2.946  67.879  1.00  0.00    -0.142 OA 
HETATM    2  N   UNL     1      -9.822   3.239  66.684  1.00  0.00    -0.373 N  
HETATM    3  H   UNL     1      -8.823   2.072  68.069  1.00  0.00     0.000 HD 
HETATM    4  C   UNL     1     -10.284   4.493  66.412  1.00  0.00    -0.217 C  
HETATM    5  H   UNL     1      -9.971   2.495  66.003  1.00  0.00     0.000 HD 
HETATM    6  O   UNL     1     -10.933   4.722  65.397  1.00  0.00    -0.192 OA 
ENDROOT
BRANCH   4   7
HETATM    7  C   UNL     1      -9.957   5.548  67.403  1.00  0.00    -0.189 C  
HETATM    8  C   UNL     1     -10.877   5.971  68.281  1.00  0.00    -0.366 C  
BRANCH   8   9
HETATM    9  C   UNL     1     -10.554   7.011  69.257  1.00  0.00    -0.240 A  
HETATM   10  C   UNL     1     -11.475   7.339  70.259  1.00  0.00    -0.242 A  
HETATM   11  C   UNL     1     -11.203   8.374  71.158  1.00  0.00    -0.307 A  
HETATM   12  C   UNL     1     -10.012   9.093  71.058  1.00  0.00    -0.367 A  
HETATM   13  C   UNL     1      -9.084   8.759  70.067  1.00  0.00    -0.160 A  
HETATM   14  C   UNL     1      -9.353   7.725  69.160  1.00  0.00    -0.151 A  
BRANCH  13  15
HETATM   15  S   UNL     1      -7.617   9.752  69.865  1.00  0.00    -0.167 S  
HETATM   16  O   UNL     1      -6.855   9.197  68.767  1.00  0.00    -0.059 OA 
HETATM   17  O   UNL     1      -7.024   9.915  71.177  1.00  0.00    -0.338 OA 
BRANCH  15  18
HETATM   18  N   UNL     1      -8.196  11.273  69.430  1.00  0.00    -0.366 N  
HETATM   19  H   UNL     1      -7.854  12.107  69.905  1.00  0.00     0.000 HD 
BRANCH  18  20
HETATM   20  C   UNL     1      -9.164  11.383  68.400  1.00  0.00    -0.183 A  
HETATM   21  C   UNL     1     -10.477  11.730  68.711  1.00  0.00    -0.221 A  
HETATM   22  C   UNL     1     -11.441  11.766  67.701  1.00  0.00    -0.370 A  
HETATM   23  C   UNL     1     -11.085  11.472  66.385  1.00  0.00    -0.328 A  
HETATM   24  C   UNL     1      -9.765  11.140  66.075  1.00  0.00    -0.263 A  
HETATM   25  C   UNL     1      -8.805  11.087  67.085  1.00  0.00    -0.140 A  
ENDBRANCH  18  20
ENDBRANCH  15  18
ENDBRANCH  13  15
ENDBRANCH   8   9
ENDBRANCH   4   7
TORSDOF 5
ENDMDL
MODEL      234
REMARK 921   NORMALIZED FREE ENERGY PREDICTED BY IDOCK:   -4.43 KCAL/MOL
REMARK 922        TOTAL FREE ENERGY PREDICTED BY IDOCK:   -6.19 KCAL/MOL
REMARK 923 INTER-LIGAND FREE ENERGY PREDICTED BY IDOCK:   -5.73 KCAL/MOL
REMARK 924 INTRA-LIGAND FREE ENERGY PREDICTED BY IDOCK:   -0.47 KCAL/MOL
REMARK 927      BINDING AFFINITY PREDICTED BY RF-SCORE:    0.00 PKD
ROOT
HETATM    1  O   UNL     1      -8.479  10.882  64.939  1.00  0.00    -0.338 OA 
HETATM    2  N   UNL     1      -9.241  11.548  63.967  1.00  0.00    -0.432 N  
HETATM    3  H   UNL     1      -7.703  10.384  64.710  1.00  0.00     0.000 HD 
HETATM    4  C   UNL     1     -10.355  12.263  64.296  1.00  0.00    -0.348 C  
HETATM    5  H   UNL     1      -8.955  11.496  62.989  1.00  0.00     0.000 HD 
HETATM    6  O   UNL     1     -11.051  12.785  63.431  1.00  0.00    -0.408 OA 
ENDROOT
BRANCH   4   7
HETATM    7  C   UNL     1     -10.667  12.373  65.742  1.00  0.00    -0.301 C  
HETATM    8  C   UNL     1     -11.189  11.334  66.410  1.00  0.00    -0.190 C  
BRANCH   8   9
HETATM    9  C   UNL     1     -11.497  11.443  67.836  1.00  0.00    -0.361 A  
HETATM   10  C   UNL     1     -11.731  12.701  68.405  1.00  0.00    -0.377 A  
HETATM   11  C   UNL     1     -11.965  12.823  69.777  1.00  0.00    -0.362 A  
HETATM   12  C   UNL     1     -11.958  11.691  70.592  1.00  0.00    -0.356 A  
HETATM   13  C   UNL     1     -11.737  10.432  70.025  1.00  0.00    -0.286 A  
HETATM   14  C   UNL     1     -11.500  10.303  68.650  1.00  0.00    -0.178 A  
BRANCH  13  15
HETATM   15  S   UNL     1     -11.613   9.001  71.080  1.00  0.00    -0.326 S  
HETATM   16  O   UNL     1     -11.541   7.830  70.232  1.00  0.00    -0.181 OA 
HETATM   17  O   UNL     1     -12.640   9.124  72.095  1.00  0.00    -0.369 OA 
BRANCH  15  18
HETATM   18  N   UNL     1     -10.146   9.200  71.885  1.00  0.00    -0.254 N  
HETATM   19  H   UNL     1     -10.039   9.934  72.583  1.00  0.00     0.000 HD 
BRANCH  18  20
HETATM   20  C   UNL     1      -9.063   8.337  71.583  1.00  0.00    -0.185 A  
HETATM   21  C   UNL     1      -8.901   7.146  72.288  1.00  0.00    -0.142 A  
HETATM   22  C   UNL     1      -7.792   6.337  72.036  1.00  0.00    -0.097 A  
HETATM   23  C   UNL     1      -6.859   6.712  71.069  1.00  0.00    -0.062 A  
HETATM   24  C   UNL     1      -7.032   7.897  70.353  1.00  0.00    -0.045 A  
HETATM   25  C   UNL     1      -8.130   8.715  70.617  1.00  0.00    -0.127 A  
ENDBRANCH  18  20
ENDBRANCH  15  18
ENDBRANCH  13  15
ENDBRANCH   8   9
ENDBRANCH   4   7
TORSDOF 5
ENDMDL
MODEL      235
REMARK 921   NORMALIZED FREE ENERGY PREDICTED BY IDOCK:   -4.43 KCAL/MOL
REMARK 922        TOTAL FREE ENERGY PREDICTED BY IDOCK:   -6.19 KCAL/MOL
REMARK 923 INTER-LIGAND FREE ENERGY PREDICTED BY IDOCK:   -5.51 KCAL/MOL
REMARK 924 INTRA-LIGAND FREE ENERGY PREDICTED BY IDOCK:   -0.68 KCAL/MOL
REMARK 927      BINDING AFFINITY PREDICTED BY RF-SCORE:    0.00 PKD
ROOT
HETATM    1  O   UNL     1      -8.455   6.418  65.260  1.00  0.00    -0.188 OA 
HETATM    2  N   UNL     1      -8.175   6.926  63.982  1.00  0.00    -0.329 N  
HETATM    3  H   UNL     1      -8.353   5.495  65.464  1.00  0.00     0.000 HD 
HETATM    4  C   UNL     1      -8.321   8.251  63.689  1.00  0.00    -0.016 C  
HETATM    5  H   UNL     1      -7.854   6.289  63.253  1.00  0.00     0.000 HD 
HETATM    6  O   UNL     1      -8.138   8.672  62.552  1.00  0.00    -0.150 OA 
ENDROOT
BRANCH   4   7
HETATM    7  C   UNL     1      -8.705   9.137  64.814  1.00  0.00    -0.208 C  
HETATM    8  C   UNL     1      -8.553  10.466  64.722  1.00  0.00    -0.190 C  
BRANCH   8   9
HETATM    9  C   UNL     1      -8.931  11.339  65.832  1.00  0.00    -0.206 A  
HETATM   10  C   UNL     1      -8.277  11.224  67.065  1.00  0.00    -0.151 A  
HETATM   11  C   UNL     1      -8.673  12.010  68.151  1.00  0.00    -0.177 A  
HETATM   12  C   UNL     1      -9.729  12.911  68.016  1.00  0.00    -0.224 A  
HETATM   13  C   UNL     1     -10.376  13.038  66.781  1.00  0.00    -0.254 A  
HETATM   14  C   UNL     1      -9.986  12.250  65.690  1.00  0.00    -0.271 A  
BRANCH  13  15
HETATM   15  S   UNL     1     -11.799  14.102  66.640  1.00  0.00    -0.438 S  
HETATM   16  O   UNL     1     -12.250  14.418  67.978  1.00  0.00    -0.281 OA 
HETATM   17  O   UNL     1     -12.694  13.495  65.675  1.00  0.00    -0.480 OA 
BRANCH  15  18
HETATM   18  N   UNL     1     -11.208  15.497  65.905  1.00  0.00    -0.195 N  
HETATM   19  H   UNL     1     -11.621  15.834  65.036  1.00  0.00     0.000 HD 
BRANCH  18  20
HETATM   20  C   UNL     1     -10.133  16.199  66.503  1.00  0.00    -0.291 A  
HETATM   21  C   UNL     1      -8.833  16.015  66.036  1.00  0.00    -0.314 A  
HETATM   22  C   UNL     1      -7.769  16.653  66.677  1.00  0.00    -0.316 A  
HETATM   23  C   UNL     1      -8.011  17.486  67.770  1.00  0.00    -0.210 A  
HETATM   24  C   UNL     1      -9.315  17.681  68.226  1.00  0.00    -0.290 A  
HETATM   25  C   UNL     1     -10.376  17.030  67.597  1.00  0.00    -0.332 A  
ENDBRANCH  18  20
ENDBRANCH  15  18
ENDBRANCH  13  15
ENDBRANCH   8   9
ENDBRANCH   4   7
TORSDOF 5
ENDMDL
MODEL      236
REMARK 921   NORMALIZED FREE ENERGY PREDICTED BY IDOCK:   -4.41 KCAL/MOL
REMARK 922        TOTAL FREE ENERGY PREDICTED BY IDOCK:   -6.17 KCAL/MOL
REMARK 923 INTER-LIGAND FREE ENERGY PREDICTED BY IDOCK:   -5.73 KCAL/MOL
REMARK 924 INTRA-LIGAND FREE ENERGY PREDICTED BY IDOCK:   -0.44 KCAL/MOL
REMARK 927      BINDING AFFINITY PREDICTED BY RF-SCORE:    0.00 PKD
ROOT
HETATM    1  O   UNL     1     -11.464  10.086  67.603  1.00  0.00    -0.546 OA 
HETATM    2  N   UNL     1     -11.946  10.234  68.913  1.00  0.00    -0.477 N  
HETATM    3  H   UNL     1     -11.623   9.296  67.099  1.00  0.00     0.000 HD 
HETATM    4  C   UNL     1     -11.717  11.369  69.636  1.00  0.00    -0.345 C  
HETATM    5  H   UNL     1     -12.480   9.475  69.335  1.00  0.00     0.000 HD 
HETATM    6  O   UNL     1     -12.084  11.460  70.802  1.00  0.00    -0.363 OA 
ENDROOT
BRANCH   4   7
HETATM    7  C   UNL     1     -11.010  12.468  68.935  1.00  0.00    -0.272 C  
HETATM    8  C   UNL     1      -9.671  12.517  68.911  1.00  0.00     0.169 C  
BRANCH   8   9
HETATM    9  C   UNL     1      -8.975  13.602  68.220  1.00  0.00    -0.187 A  
HETATM   10  C   UNL     1      -7.575  13.633  68.200  1.00  0.00    -0.137 A  
HETATM   11  C   UNL     1      -6.901  14.697  67.597  1.00  0.00    -0.204 A  
HETATM   12  C   UNL     1      -7.619  15.742  67.015  1.00  0.00    -0.257 A  
HETATM   13  C   UNL     1      -9.018  15.707  67.022  1.00  0.00    -0.222 A  
HETATM   14  C   UNL     1      -9.700  14.644  67.629  1.00  0.00    -0.214 A  
BRANCH  13  15
HETATM   15  S   UNL     1      -9.935  17.096  66.384  1.00  0.00    -0.311 S  
HETATM   16  O   UNL     1      -8.984  18.125  66.021  1.00  0.00    -0.503 OA 
HETATM   17  O   UNL     1     -11.007  17.369  67.320  1.00  0.00    -0.190 OA 
BRANCH  15  18
HETATM   18  N   UNL     1     -10.678  16.506  64.993  1.00  0.00    -0.305 N  
HETATM   19  H   UNL     1     -10.694  17.066  64.142  1.00  0.00     0.000 HD 
BRANCH  18  20
HETATM   20  C   UNL     1     -11.281  15.223  65.015  1.00  0.00    -0.403 A  
HETATM   21  C   UNL     1     -12.350  14.969  65.872  1.00  0.00     0.310 A  
HETATM   22  C   UNL     1     -12.892  13.685  65.941  1.00  0.00    -0.328 A  
HETATM   23  C   UNL     1     -12.375  12.664  65.143  1.00  0.00    -0.547 A  
HETATM   24  C   UNL     1     -11.315  12.925  64.274  1.00  0.00    -0.417 A  
HETATM   25  C   UNL     1     -10.761  14.204  64.217  1.00  0.00     0.016 A  
ENDBRANCH  18  20
ENDBRANCH  15  18
ENDBRANCH  13  15
ENDBRANCH   8   9
ENDBRANCH   4   7
TORSDOF 5
ENDMDL
MODEL      237
REMARK 921   NORMALIZED FREE ENERGY PREDICTED BY IDOCK:   -4.41 KCAL/MOL
REMARK 922        TOTAL FREE ENERGY PREDICTED BY IDOCK:   -6.17 KCAL/MOL
REMARK 923 INTER-LIGAND FREE ENERGY PREDICTED BY IDOCK:   -5.46 KCAL/MOL
REMARK 924 INTRA-LIGAND FREE ENERGY PREDICTED BY IDOCK:   -0.71 KCAL/MOL
REMARK 927      BINDING AFFINITY PREDICTED BY RF-SCORE:    0.00 PKD
ROOT
HETATM    1  O   UNL     1      -7.273  11.009  70.249  1.00  0.00    -0.452 OA 
HETATM    2  N   UNL     1      -7.874   9.801  69.861  1.00  0.00    -0.144 N  
HETATM    3  H   UNL     1      -6.485  11.026  70.781  1.00  0.00     0.000 HD 
HETATM    4  C   UNL     1      -9.005   9.777  69.097  1.00  0.00    -0.161 C  
HETATM    5  H   UNL     1      -7.456   8.920  70.157  1.00  0.00     0.000 HD 
HETATM    6  O   UNL     1      -9.559   8.719  68.821  1.00  0.00    -0.154 OA 
ENDROOT
BRANCH   4   7
HETATM    7  C   UNL     1      -9.512  11.089  68.626  1.00  0.00    -0.197 C  
HETATM    8  C   UNL     1      -9.522  11.390  67.320  1.00  0.00    -0.176 C  
BRANCH   8   9
HETATM    9  C   UNL     1     -10.022  12.684  66.857  1.00  0.00    -0.232 A  
HETATM   10  C   UNL     1     -10.211  12.910  65.488  1.00  0.00    -0.299 A  
HETATM   11  C   UNL     1     -10.628  14.163  65.030  1.00  0.00    -0.436 A  
HETATM   12  C   UNL     1     -10.854  15.200  65.935  1.00  0.00    -0.342 A  
HETATM   13  C   UNL     1     -10.679  14.973  67.304  1.00  0.00    -0.298 A  
HETATM   14  C   UNL     1     -10.257  13.721  67.769  1.00  0.00    -0.241 A  
BRANCH  13  15
HETATM   15  S   UNL     1     -10.853  16.328  68.449  1.00  0.00    -0.347 S  
HETATM   16  O   UNL     1     -11.729  15.895  69.517  1.00  0.00    -0.342 OA 
HETATM   17  O   UNL     1     -11.156  17.512  67.671  1.00  0.00    -0.209 OA 
BRANCH  15  18
HETATM   18  N   UNL     1      -9.301  16.564  69.059  1.00  0.00    -0.256 N  
HETATM   19  H   UNL     1      -9.141  16.573  70.066  1.00  0.00     0.000 HD 
BRANCH  18  20
HETATM   20  C   UNL     1      -8.219  16.749  68.163  1.00  0.00    -0.199 A  
HETATM   21  C   UNL     1      -7.170  15.833  68.137  1.00  0.00    -0.124 A  
HETATM   22  C   UNL     1      -6.073  16.059  67.304  1.00  0.00    -0.133 A  
HETATM   23  C   UNL     1      -6.037  17.190  66.487  1.00  0.00    -0.237 A  
HETATM   24  C   UNL     1      -7.098  18.097  66.503  1.00  0.00    -0.260 A  
HETATM   25  C   UNL     1      -8.186  17.881  67.348  1.00  0.00    -0.224 A  
ENDBRANCH  18  20
ENDBRANCH  15  18
ENDBRANCH  13  15
ENDBRANCH   8   9
ENDBRANCH   4   7
TORSDOF 5
ENDMDL
MODEL      238
REMARK 921   NORMALIZED FREE ENERGY PREDICTED BY IDOCK:   -4.40 KCAL/MOL
REMARK 922        TOTAL FREE ENERGY PREDICTED BY IDOCK:   -6.15 KCAL/MOL
REMARK 923 INTER-LIGAND FREE ENERGY PREDICTED BY IDOCK:   -5.36 KCAL/MOL
REMARK 924 INTRA-LIGAND FREE ENERGY PREDICTED BY IDOCK:   -0.79 KCAL/MOL
REMARK 927      BINDING AFFINITY PREDICTED BY RF-SCORE:    0.00 PKD
ROOT
HETATM    1  O   UNL     1      -7.548  19.491  66.619  1.00  0.00    -0.236 OA 
HETATM    2  N   UNL     1      -6.919  19.431  67.872  1.00  0.00    -0.241 N  
HETATM    3  H   UNL     1      -7.543  20.285  66.095  1.00  0.00     0.000 HD 
HETATM    4  C   UNL     1      -6.926  18.292  68.623  1.00  0.00    -0.261 C  
HETATM    5  H   UNL     1      -6.445  20.260  68.231  1.00  0.00     0.000 HD 
HETATM    6  O   UNL     1      -6.432  18.271  69.745  1.00  0.00    -0.189 OA 
ENDROOT
BRANCH   4   7
HETATM    7  C   UNL     1      -7.555  17.098  68.007  1.00  0.00    -0.192 C  
HETATM    8  C   UNL     1      -8.859  16.844  68.182  1.00  0.00    -0.223 C  
BRANCH   8   9
HETATM    9  C   UNL     1      -9.478  15.666  67.575  1.00  0.00    -0.214 A  
HETATM   10  C   UNL     1      -9.582  15.572  66.182  1.00  0.00    -0.362 A  
HETATM   11  C   UNL     1     -10.226  14.481  65.593  1.00  0.00    -0.379 A  
HETATM   12  C   UNL     1     -10.778  13.479  66.392  1.00  0.00    -0.287 A  
HETATM   13  C   UNL     1     -10.664  13.564  67.784  1.00  0.00    -0.252 A  
HETATM   14  C   UNL     1     -10.022  14.657  68.380  1.00  0.00    -0.227 A  
BRANCH  13  15
HETATM   15  S   UNL     1     -11.469  12.347  68.807  1.00  0.00    -0.327 S  
HETATM   16  O   UNL     1     -12.339  11.560  67.958  1.00  0.00    -0.445 OA 
HETATM   17  O   UNL     1     -11.989  13.038  69.970  1.00  0.00    -0.330 OA 
BRANCH  15  18
HETATM   18  N   UNL     1     -10.214  11.376  69.372  1.00  0.00    -0.433 N  
HETATM   19  H   UNL     1     -10.208  11.057  70.340  1.00  0.00     0.000 HD 
BRANCH  18  20
HETATM   20  C   UNL     1      -9.167  11.007  68.491  1.00  0.00    -0.177 A  
HETATM   21  C   UNL     1      -9.409  10.100  67.461  1.00  0.00    -0.168 A  
HETATM   22  C   UNL     1      -8.357   9.685  66.643  1.00  0.00    -0.123 A  
HETATM   23  C   UNL     1      -7.073  10.191  66.845  1.00  0.00    -0.091 A  
HETATM   24  C   UNL     1      -6.837  11.112  67.867  1.00  0.00    -0.068 A  
HETATM   25  C   UNL     1      -7.884  11.513  68.697  1.00  0.00    -0.137 A  
ENDBRANCH  18  20
ENDBRANCH  15  18
ENDBRANCH  13  15
ENDBRANCH   8   9
ENDBRANCH   4   7
TORSDOF 5
ENDMDL
MODEL      239
REMARK 921   NORMALIZED FREE ENERGY PREDICTED BY IDOCK:   -4.36 KCAL/MOL
REMARK 922        TOTAL FREE ENERGY PREDICTED BY IDOCK:   -6.11 KCAL/MOL
REMARK 923 INTER-LIGAND FREE ENERGY PREDICTED BY IDOCK:   -5.60 KCAL/MOL
REMARK 924 INTRA-LIGAND FREE ENERGY PREDICTED BY IDOCK:   -0.51 KCAL/MOL
REMARK 927      BINDING AFFINITY PREDICTED BY RF-SCORE:    0.00 PKD
ROOT
HETATM    1  O   UNL     1     -12.715  14.241  73.929  1.00  0.00    -0.292 OA 
HETATM    2  N   UNL     1     -12.914  14.906  72.708  1.00  0.00    -0.410 N  
HETATM    3  H   UNL     1     -12.868  14.672  74.762  1.00  0.00     0.000 HD 
HETATM    4  C   UNL     1     -12.695  14.288  71.512  1.00  0.00    -0.350 C  
HETATM    5  H   UNL     1     -13.230  15.875  72.716  1.00  0.00     0.000 HD 
HETATM    6  O   UNL     1     -12.807  14.898  70.454  1.00  0.00    -0.338 OA 
ENDROOT
BRANCH   4   7
HETATM    7  C   UNL     1     -12.322  12.853  71.568  1.00  0.00     0.017 C  
HETATM    8  C   UNL     1     -13.265  11.899  71.548  1.00  0.00    -0.283 C  
BRANCH   8   9
HETATM    9  C   UNL     1     -12.896  10.485  71.603  1.00  0.00    -0.581 A  
HETATM   10  C   UNL     1     -13.628   9.604  72.409  1.00  0.00    -0.397 A  
HETATM   11  C   UNL     1     -13.246   8.264  72.518  1.00  0.00    -0.104 A  
HETATM   12  C   UNL     1     -12.126   7.797  71.830  1.00  0.00    -0.341 A  
HETATM   13  C   UNL     1     -11.401   8.671  71.014  1.00  0.00    -0.274 A  
HETATM   14  C   UNL     1     -11.777  10.017  70.903  1.00  0.00    -0.462 A  
BRANCH  13  15
HETATM   15  S   UNL     1      -9.905   8.104  70.229  1.00  0.00    -0.185 S  
HETATM   16  O   UNL     1     -10.281   7.365  69.042  1.00  0.00    -0.188 OA 
HETATM   17  O   UNL     1      -9.084   7.496  71.256  1.00  0.00    -0.141 OA 
BRANCH  15  18
HETATM   18  N   UNL     1      -9.106   9.517  69.777  1.00  0.00    -0.188 N  
HETATM   19  H   UNL     1      -8.534  10.021  70.453  1.00  0.00     0.000 HD 
BRANCH  18  20
HETATM   20  C   UNL     1      -9.236   9.998  68.451  1.00  0.00    -0.131 A  
HETATM   21  C   UNL     1      -8.278   9.669  67.493  1.00  0.00    -0.114 A  
HETATM   22  C   UNL     1      -8.372  10.205  66.207  1.00  0.00    -0.130 A  
HETATM   23  C   UNL     1      -9.431  11.053  65.879  1.00  0.00    -0.244 A  
HETATM   24  C   UNL     1     -10.397  11.366  66.836  1.00  0.00    -0.262 A  
HETATM   25  C   UNL     1     -10.294  10.846  68.126  1.00  0.00    -0.202 A  
ENDBRANCH  18  20
ENDBRANCH  15  18
ENDBRANCH  13  15
ENDBRANCH   8   9
ENDBRANCH   4   7
TORSDOF 5
ENDMDL
MODEL      240
REMARK 921   NORMALIZED FREE ENERGY PREDICTED BY IDOCK:   -4.35 KCAL/MOL
REMARK 922        TOTAL FREE ENERGY PREDICTED BY IDOCK:   -6.09 KCAL/MOL
REMARK 923 INTER-LIGAND FREE ENERGY PREDICTED BY IDOCK:   -5.85 KCAL/MOL
REMARK 924 INTRA-LIGAND FREE ENERGY PREDICTED BY IDOCK:   -0.25 KCAL/MOL
REMARK 927      BINDING AFFINITY PREDICTED BY RF-SCORE:    0.00 PKD
ROOT
HETATM    1  O   UNL     1     -11.651   6.359  72.846  1.00  0.00    -0.475 OA 
HETATM    2  N   UNL     1     -11.161   5.723  71.695  1.00  0.00    -0.254 N  
HETATM    3  H   UNL     1     -11.729   5.901  73.675  1.00  0.00     0.000 HD 
HETATM    4  C   UNL     1     -11.049   6.381  70.505  1.00  0.00    -0.328 C  
HETATM    5  H   UNL     1     -10.881   4.744  71.749  1.00  0.00     0.000 HD 
HETATM    6  O   UNL     1     -10.684   5.797  69.490  1.00  0.00    -0.291 OA 
ENDROOT
BRANCH   4   7
HETATM    7  C   UNL     1     -11.389   7.825  70.514  1.00  0.00    -0.253 C  
HETATM    8  C   UNL     1     -11.149   8.591  69.440  1.00  0.00     0.086 C  
BRANCH   8   9
HETATM    9  C   UNL     1     -11.484  10.015  69.450  1.00  0.00    -0.139 A  
HETATM   10  C   UNL     1     -11.999  10.602  70.613  1.00  0.00    -0.466 A  
HETATM   11  C   UNL     1     -12.381  11.947  70.615  1.00  0.00    -0.405 A  
HETATM   12  C   UNL     1     -12.258  12.712  69.455  1.00  0.00    -0.149 A  
HETATM   13  C   UNL     1     -11.731  12.131  68.297  1.00  0.00    -0.342 A  
HETATM   14  C   UNL     1     -11.350  10.783  68.287  1.00  0.00    -0.376 A  
BRANCH  13  15
HETATM   15  S   UNL     1     -11.683  13.074  66.785  1.00  0.00    -0.388 S  
HETATM   16  O   UNL     1     -12.355  14.333  67.027  1.00  0.00    -0.386 OA 
HETATM   17  O   UNL     1     -12.111  12.195  65.716  1.00  0.00    -0.572 OA 
BRANCH  15  18
HETATM   18  N   UNL     1     -10.044  13.357  66.519  1.00  0.00    -0.274 N  
HETATM   19  H   UNL     1      -9.741  14.201  66.033  1.00  0.00     0.000 HD 
BRANCH  18  20
HETATM   20  C   UNL     1      -9.090  12.414  66.976  1.00  0.00    -0.207 A  
HETATM   21  C   UNL     1      -8.616  12.479  68.285  1.00  0.00    -0.173 A  
HETATM   22  C   UNL     1      -7.623  11.593  68.706  1.00  0.00    -0.119 A  
HETATM   23  C   UNL     1      -7.121  10.636  67.825  1.00  0.00    -0.083 A  
HETATM   24  C   UNL     1      -7.609  10.563  66.520  1.00  0.00    -0.128 A  
HETATM   25  C   UNL     1      -8.588  11.459  66.092  1.00  0.00    -0.128 A  
ENDBRANCH  18  20
ENDBRANCH  15  18
ENDBRANCH  13  15
ENDBRANCH   8   9
ENDBRANCH   4   7
TORSDOF 5
ENDMDL
MODEL      241
REMARK 921   NORMALIZED FREE ENERGY PREDICTED BY IDOCK:   -4.33 KCAL/MOL
REMARK 922        TOTAL FREE ENERGY PREDICTED BY IDOCK:   -6.06 KCAL/MOL
REMARK 923 INTER-LIGAND FREE ENERGY PREDICTED BY IDOCK:   -5.89 KCAL/MOL
REMARK 924 INTRA-LIGAND FREE ENERGY PREDICTED BY IDOCK:   -0.18 KCAL/MOL
REMARK 927      BINDING AFFINITY PREDICTED BY RF-SCORE:    0.00 PKD
ROOT
HETATM    1  O   UNL     1     -11.247  19.357  67.442  1.00  0.00    -0.348 OA 
HETATM    2  N   UNL     1     -10.007  19.550  66.812  1.00  0.00    -0.363 N  
HETATM    3  H   UNL     1     -11.759  20.087  67.770  1.00  0.00     0.000 HD 
HETATM    4  C   UNL     1      -9.272  18.501  66.341  1.00  0.00    -0.277 C  
HETATM    5  H   UNL     1      -9.648  20.498  66.702  1.00  0.00     0.000 HD 
HETATM    6  O   UNL     1      -8.161  18.676  65.853  1.00  0.00    -0.483 OA 
ENDROOT
BRANCH   4   7
HETATM    7  C   UNL     1      -9.891  17.158  66.452  1.00  0.00    -0.312 C  
HETATM    8  C   UNL     1     -10.182  16.445  65.354  1.00  0.00    -0.218 C  
BRANCH   8   9
HETATM    9  C   UNL     1     -10.793  15.121  65.464  1.00  0.00    -0.373 A  
HETATM   10  C   UNL     1     -12.089  14.907  64.978  1.00  0.00    -0.216 A  
HETATM   11  C   UNL     1     -12.706  13.663  65.134  1.00  0.00    -0.443 A  
HETATM   12  C   UNL     1     -12.036  12.626  65.783  1.00  0.00    -0.503 A  
HETATM   13  C   UNL     1     -10.736  12.833  66.258  1.00  0.00    -0.270 A  
HETATM   14  C   UNL     1     -10.114  14.079  66.107  1.00  0.00    -0.319 A  
BRANCH  13  15
HETATM   15  S   UNL     1      -9.925  11.547  67.189  1.00  0.00    -0.201 S  
HETATM   16  O   UNL     1      -8.806  11.071  66.404  1.00  0.00    -0.165 OA 
HETATM   17  O   UNL     1     -10.953  10.636  67.650  1.00  0.00    -0.270 OA 
BRANCH  15  18
HETATM   18  N   UNL     1      -9.350  12.326  68.567  1.00  0.00    -0.361 N  
HETATM   19  H   UNL     1      -9.776  12.145  69.475  1.00  0.00     0.000 HD 
BRANCH  18  20
HETATM   20  C   UNL     1      -8.269  13.235  68.454  1.00  0.00    -0.134 A  
HETATM   21  C   UNL     1      -7.008  12.777  68.076  1.00  0.00    -0.107 A  
HETATM   22  C   UNL     1      -5.931  13.665  68.038  1.00  0.00    -0.133 A  
HETATM   23  C   UNL     1      -6.122  15.009  68.360  1.00  0.00    -0.105 A  
HETATM   24  C   UNL     1      -7.389  15.468  68.722  1.00  0.00    -0.141 A  
HETATM   25  C   UNL     1      -8.462  14.578  68.778  1.00  0.00    -0.145 A  
ENDBRANCH  18  20
ENDBRANCH  15  18
ENDBRANCH  13  15
ENDBRANCH   8   9
ENDBRANCH   4   7
TORSDOF 5
ENDMDL
MODEL      242
REMARK 921   NORMALIZED FREE ENERGY PREDICTED BY IDOCK:   -4.33 KCAL/MOL
REMARK 922        TOTAL FREE ENERGY PREDICTED BY IDOCK:   -6.06 KCAL/MOL
REMARK 923 INTER-LIGAND FREE ENERGY PREDICTED BY IDOCK:   -5.47 KCAL/MOL
REMARK 924 INTRA-LIGAND FREE ENERGY PREDICTED BY IDOCK:   -0.59 KCAL/MOL
REMARK 927      BINDING AFFINITY PREDICTED BY RF-SCORE:    0.00 PKD
ROOT
HETATM    1  O   UNL     1     -11.653   4.779  65.249  1.00  0.00    -1.065 OA 
HETATM    2  N   UNL     1     -10.259   4.624  65.323  1.00  0.00    -0.407 N  
HETATM    3  H   UNL     1     -12.210   4.112  64.865  1.00  0.00     0.000 HD 
HETATM    4  C   UNL     1      -9.460   5.582  65.874  1.00  0.00    -0.096 C  
HETATM    5  H   UNL     1      -9.834   3.773  64.956  1.00  0.00     0.000 HD 
HETATM    6  O   UNL     1      -8.239   5.465  65.872  1.00  0.00    -0.112 OA 
ENDROOT
BRANCH   4   7
HETATM    7  C   UNL     1     -10.147   6.754  66.469  1.00  0.00    -0.136 C  
HETATM    8  C   UNL     1      -9.443   7.781  66.967  1.00  0.00    -0.210 C  
BRANCH   8   9
HETATM    9  C   UNL     1     -10.121   8.935  67.554  1.00  0.00    -0.285 A  
HETATM   10  C   UNL     1     -10.551   8.890  68.886  1.00  0.00    -0.188 A  
HETATM   11  C   UNL     1     -11.255   9.963  69.438  1.00  0.00    -0.196 A  
HETATM   12  C   UNL     1     -11.542  11.086  68.662  1.00  0.00    -0.385 A  
HETATM   13  C   UNL     1     -11.103  11.140  67.335  1.00  0.00    -0.307 A  
HETATM   14  C   UNL     1     -10.399  10.066  66.775  1.00  0.00    -0.283 A  
BRANCH  13  15
HETATM   15  S   UNL     1     -11.569  12.522  66.310  1.00  0.00    -0.400 S  
HETATM   16  O   UNL     1     -12.398  13.403  67.105  1.00  0.00    -0.295 OA 
HETATM   17  O   UNL     1     -12.047  11.982  65.053  1.00  0.00    -0.322 OA 
BRANCH  15  18
HETATM   18  N   UNL     1     -10.114  13.292  65.956  1.00  0.00    -0.294 N  
HETATM   19  H   UNL     1     -10.028  13.867  65.118  1.00  0.00     0.000 HD 
BRANCH  18  20
HETATM   20  C   UNL     1      -9.010  13.135  66.831  1.00  0.00    -0.209 A  
HETATM   21  C   UNL     1      -8.939  13.883  68.005  1.00  0.00    -0.184 A  
HETATM   22  C   UNL     1      -7.815  13.777  68.826  1.00  0.00    -0.059 A  
HETATM   23  C   UNL     1      -6.776  12.913  68.481  1.00  0.00    -0.091 A  
HETATM   24  C   UNL     1      -6.858  12.154  67.313  1.00  0.00    -0.149 A  
HETATM   25  C   UNL     1      -7.972  12.272  66.483  1.00  0.00     0.202 A  
ENDBRANCH  18  20
ENDBRANCH  15  18
ENDBRANCH  13  15
ENDBRANCH   8   9
ENDBRANCH   4   7
TORSDOF 5
ENDMDL
MODEL      243
REMARK 921   NORMALIZED FREE ENERGY PREDICTED BY IDOCK:   -4.31 KCAL/MOL
REMARK 922        TOTAL FREE ENERGY PREDICTED BY IDOCK:   -6.04 KCAL/MOL
REMARK 923 INTER-LIGAND FREE ENERGY PREDICTED BY IDOCK:   -5.64 KCAL/MOL
REMARK 924 INTRA-LIGAND FREE ENERGY PREDICTED BY IDOCK:   -0.40 KCAL/MOL
REMARK 927      BINDING AFFINITY PREDICTED BY RF-SCORE:    0.00 PKD
ROOT
HETATM    1  O   UNL     1     -13.311   7.357  70.741  1.00  0.00    -0.600 OA 
HETATM    2  N   UNL     1     -12.774   6.960  71.977  1.00  0.00    -0.531 N  
HETATM    3  H   UNL     1     -14.105   7.876  70.686  1.00  0.00     0.000 HD 
HETATM    4  C   UNL     1     -11.634   6.216  72.056  1.00  0.00    -0.310 C  
HETATM    5  H   UNL     1     -13.249   7.236  72.836  1.00  0.00     0.000 HD 
HETATM    6  O   UNL     1     -11.212   5.818  73.137  1.00  0.00    -0.265 OA 
ENDROOT
BRANCH   4   7
HETATM    7  C   UNL     1     -10.944   5.924  70.776  1.00  0.00    -0.343 C  
HETATM    8  C   UNL     1      -9.767   6.496  70.487  1.00  0.00    -0.186 C  
BRANCH   8   9
HETATM    9  C   UNL     1      -9.088   6.208  69.224  1.00  0.00    -0.129 A  
HETATM   10  C   UNL     1      -8.357   5.022  69.078  1.00  0.00    -0.086 A  
HETATM   11  C   UNL     1      -7.654   4.765  67.898  1.00  0.00    -0.082 A  
HETATM   12  C   UNL     1      -7.669   5.695  66.858  1.00  0.00    -0.100 A  
HETATM   13  C   UNL     1      -8.409   6.874  66.995  1.00  0.00    -0.121 A  
HETATM   14  C   UNL     1      -9.114   7.138  68.177  1.00  0.00    -0.133 A  
BRANCH  13  15
HETATM   15  S   UNL     1      -8.334   8.113  65.716  1.00  0.00    -0.142 S  
HETATM   16  O   UNL     1      -8.156   7.432  64.451  1.00  0.00    -0.134 OA 
HETATM   17  O   UNL     1      -7.397   9.128  66.154  1.00  0.00    -0.092 OA 
BRANCH  15  18
HETATM   18  N   UNL     1      -9.852   8.843  65.749  1.00  0.00    -0.465 N  
HETATM   19  H   UNL     1     -10.622   8.404  66.252  1.00  0.00     0.000 HD 
BRANCH  18  20
HETATM   20  C   UNL     1     -10.049  10.072  65.070  1.00  0.00    -0.157 A  
HETATM   21  C   UNL     1      -9.553  10.244  63.779  1.00  0.00    -0.344 A  
HETATM   22  C   UNL     1      -9.688  11.480  63.145  1.00  0.00    -0.412 A  
HETATM   23  C   UNL     1     -10.332  12.533  63.795  1.00  0.00    -0.418 A  
HETATM   24  C   UNL     1     -10.842  12.352  65.082  1.00  0.00    -0.333 A  
HETATM   25  C   UNL     1     -10.693  11.123  65.723  1.00  0.00    -0.252 A  
ENDBRANCH  18  20
ENDBRANCH  15  18
ENDBRANCH  13  15
ENDBRANCH   8   9
ENDBRANCH   4   7
TORSDOF 5
ENDMDL
MODEL      244
REMARK 921   NORMALIZED FREE ENERGY PREDICTED BY IDOCK:   -4.31 KCAL/MOL
REMARK 922        TOTAL FREE ENERGY PREDICTED BY IDOCK:   -6.04 KCAL/MOL
REMARK 923 INTER-LIGAND FREE ENERGY PREDICTED BY IDOCK:   -5.50 KCAL/MOL
REMARK 924 INTRA-LIGAND FREE ENERGY PREDICTED BY IDOCK:   -0.54 KCAL/MOL
REMARK 927      BINDING AFFINITY PREDICTED BY RF-SCORE:    0.00 PKD
ROOT
HETATM    1  O   UNL     1     -11.925   7.282  69.859  1.00  0.00    -0.515 OA 
HETATM    2  N   UNL     1     -11.317   6.219  70.544  1.00  0.00    -0.358 N  
HETATM    3  H   UNL     1     -12.554   7.855  70.283  1.00  0.00     0.000 HD 
HETATM    4  C   UNL     1     -10.414   5.397  69.935  1.00  0.00    -0.308 C  
HETATM    5  H   UNL     1     -11.557   6.056  71.522  1.00  0.00     0.000 HD 
HETATM    6  O   UNL     1      -9.941   4.430  70.524  1.00  0.00    -0.217 OA 
ENDROOT
BRANCH   4   7
HETATM    7  C   UNL     1     -10.044   5.740  68.541  1.00  0.00    -0.226 C  
HETATM    8  C   UNL     1      -8.794   6.121  68.238  1.00  0.00    -0.112 C  
BRANCH   8   9
HETATM    9  C   UNL     1      -8.430   6.460  66.863  1.00  0.00    -0.110 A  
HETATM   10  C   UNL     1      -7.604   5.600  66.128  1.00  0.00    -0.091 A  
HETATM   11  C   UNL     1      -7.200   5.944  64.835  1.00  0.00    -0.066 A  
HETATM   12  C   UNL     1      -7.611   7.152  64.270  1.00  0.00    -0.112 A  
HETATM   13  C   UNL     1      -8.447   8.006  64.998  1.00  0.00    -0.071 A  
HETATM   14  C   UNL     1      -8.853   7.668  66.295  1.00  0.00    -0.182 A  
BRANCH  13  15
HETATM   15  S   UNL     1      -8.876   9.600  64.324  1.00  0.00    -0.224 S  
HETATM   16  O   UNL     1      -9.047   9.444  62.895  1.00  0.00    -0.234 OA 
HETATM   17  O   UNL     1      -7.934  10.561  64.861  1.00  0.00    -0.143 OA 
BRANCH  15  18
HETATM   18  N   UNL     1     -10.361   9.967  65.029  1.00  0.00    -0.184 N  
HETATM   19  H   UNL     1     -10.871   9.256  65.551  1.00  0.00     0.000 HD 
BRANCH  18  20
HETATM   20  C   UNL     1     -10.895  11.273  64.889  1.00  0.00    -0.229 A  
HETATM   21  C   UNL     1     -11.542  11.639  63.711  1.00  0.00    -0.430 A  
HETATM   22  C   UNL     1     -12.001  12.948  63.551  1.00  0.00    -0.629 A  
HETATM   23  C   UNL     1     -11.828  13.879  64.576  1.00  0.00    -0.449 A  
HETATM   24  C   UNL     1     -11.194  13.504  65.761  1.00  0.00    -0.308 A  
HETATM   25  C   UNL     1     -10.719  12.202  65.914  1.00  0.00    -0.302 A  
ENDBRANCH  18  20
ENDBRANCH  15  18
ENDBRANCH  13  15
ENDBRANCH   8   9
ENDBRANCH   4   7
TORSDOF 5
ENDMDL
MODEL      245
REMARK 921   NORMALIZED FREE ENERGY PREDICTED BY IDOCK:   -4.31 KCAL/MOL
REMARK 922        TOTAL FREE ENERGY PREDICTED BY IDOCK:   -6.04 KCAL/MOL
REMARK 923 INTER-LIGAND FREE ENERGY PREDICTED BY IDOCK:   -6.39 KCAL/MOL
REMARK 924 INTRA-LIGAND FREE ENERGY PREDICTED BY IDOCK:    0.35 KCAL/MOL
REMARK 927      BINDING AFFINITY PREDICTED BY RF-SCORE:    0.00 PKD
ROOT
HETATM    1  O   UNL     1     -13.145  12.445  64.497  1.00  0.00    -0.823 OA 
HETATM    2  N   UNL     1     -12.207  11.857  63.634  1.00  0.00    -0.504 N  
HETATM    3  H   UNL     1     -14.071  12.238  64.443  1.00  0.00     0.000 HD 
HETATM    4  C   UNL     1     -10.877  12.154  63.712  1.00  0.00    -0.432 C  
HETATM    5  H   UNL     1     -12.527  11.191  62.932  1.00  0.00     0.000 HD 
HETATM    6  O   UNL     1     -10.076  11.686  62.910  1.00  0.00    -0.325 OA 
ENDROOT
BRANCH   4   7
HETATM    7  C   UNL     1     -10.466  13.061  64.811  1.00  0.00    -0.382 C  
HETATM    8  C   UNL     1     -11.363  13.507  65.703  1.00  0.00    -0.312 C  
BRANCH   8   9
HETATM    9  C   UNL     1     -10.956  14.402  66.786  1.00  0.00    -0.314 A  
HETATM   10  C   UNL     1     -11.655  14.392  68.000  1.00  0.00    -0.357 A  
HETATM   11  C   UNL     1     -11.314  15.286  69.018  1.00  0.00    -0.311 A  
HETATM   12  C   UNL     1     -10.280  16.202  68.829  1.00  0.00    -0.238 A  
HETATM   13  C   UNL     1      -9.572  16.206  67.622  1.00  0.00    -0.222 A  
HETATM   14  C   UNL     1      -9.910  15.314  66.596  1.00  0.00    -0.263 A  
BRANCH  13  15
HETATM   15  S   UNL     1      -8.330  17.452  67.336  1.00  0.00    -0.208 S  
HETATM   16  O   UNL     1      -8.277  18.302  68.507  1.00  0.00    -0.306 OA 
HETATM   17  O   UNL     1      -8.574  18.009  66.021  1.00  0.00    -0.500 OA 
BRANCH  15  18
HETATM   18  N   UNL     1      -6.890  16.588  67.208  1.00  0.00    -0.159 N  
HETATM   19  H   UNL     1      -6.177  16.874  66.538  1.00  0.00     0.000 HD 
BRANCH  18  20
HETATM   20  C   UNL     1      -6.677  15.460  68.040  1.00  0.00    -0.144 A  
HETATM   21  C   UNL     1      -6.573  14.189  67.478  1.00  0.00    -0.098 A  
HETATM   22  C   UNL     1      -6.437  13.074  68.308  1.00  0.00    -0.093 A  
HETATM   23  C   UNL     1      -6.387  13.236  69.693  1.00  0.00    -0.089 A  
HETATM   24  C   UNL     1      -6.474  14.512  70.251  1.00  0.00    -0.144 A  
HETATM   25  C   UNL     1      -6.629  15.624  69.424  1.00  0.00    -0.166 A  
ENDBRANCH  18  20
ENDBRANCH  15  18
ENDBRANCH  13  15
ENDBRANCH   8   9
ENDBRANCH   4   7
TORSDOF 5
ENDMDL
MODEL      246
REMARK 921   NORMALIZED FREE ENERGY PREDICTED BY IDOCK:   -4.30 KCAL/MOL
REMARK 922        TOTAL FREE ENERGY PREDICTED BY IDOCK:   -6.03 KCAL/MOL
REMARK 923 INTER-LIGAND FREE ENERGY PREDICTED BY IDOCK:   -5.43 KCAL/MOL
REMARK 924 INTRA-LIGAND FREE ENERGY PREDICTED BY IDOCK:   -0.60 KCAL/MOL
REMARK 927      BINDING AFFINITY PREDICTED BY RF-SCORE:    0.00 PKD
ROOT
HETATM    1  O   UNL     1     -10.827  19.551  65.662  1.00  0.00    -0.458 OA 
HETATM    2  N   UNL     1      -9.813  20.429  66.078  1.00  0.00    -0.643 N  
HETATM    3  H   UNL     1     -11.567  19.851  65.147  1.00  0.00     0.000 HD 
HETATM    4  C   UNL     1      -8.751  19.997  66.818  1.00  0.00    -0.333 C  
HETATM    5  H   UNL     1      -9.873  21.414  65.821  1.00  0.00     0.000 HD 
HETATM    6  O   UNL     1      -7.907  20.785  67.232  1.00  0.00    -0.337 OA 
ENDROOT
BRANCH   4   7
HETATM    7  C   UNL     1      -8.678  18.540  67.082  1.00  0.00    -0.274 C  
HETATM    8  C   UNL     1      -7.848  18.054  68.016  1.00  0.00    -0.257 C  
BRANCH   8   9
HETATM    9  C   UNL     1      -7.777  16.616  68.276  1.00  0.00    -0.183 A  
HETATM   10  C   UNL     1      -6.598  16.056  68.783  1.00  0.00    -0.126 A  
HETATM   11  C   UNL     1      -6.498  14.676  68.976  1.00  0.00    -0.097 A  
HETATM   12  C   UNL     1      -7.571  13.844  68.656  1.00  0.00    -0.130 A  
HETATM   13  C   UNL     1      -8.755  14.402  68.162  1.00  0.00    -0.175 A  
HETATM   14  C   UNL     1      -8.860  15.785  67.963  1.00  0.00    -0.176 A  
BRANCH  13  15
HETATM   15  S   UNL     1     -10.082  13.331  67.644  1.00  0.00    -0.233 S  
HETATM   16  O   UNL     1      -9.600  12.531  66.539  1.00  0.00    -0.232 OA 
HETATM   17  O   UNL     1     -11.268  14.152  67.507  1.00  0.00    -0.285 OA 
BRANCH  15  18
HETATM   18  N   UNL     1     -10.363  12.337  68.975  1.00  0.00    -0.423 N  
HETATM   19  H   UNL     1     -10.757  12.725  69.831  1.00  0.00     0.000 HD 
BRANCH  18  20
HETATM   20  C   UNL     1     -10.047  10.958  68.894  1.00  0.00    -0.198 A  
HETATM   21  C   UNL     1      -8.798  10.503  69.312  1.00  0.00    -0.135 A  
HETATM   22  C   UNL     1      -8.466   9.155  69.162  1.00  0.00    -0.132 A  
HETATM   23  C   UNL     1      -9.389   8.265  68.611  1.00  0.00    -0.143 A  
HETATM   24  C   UNL     1     -10.645   8.721  68.209  1.00  0.00    -0.194 A  
HETATM   25  C   UNL     1     -10.971  10.071  68.342  1.00  0.00    -0.266 A  
ENDBRANCH  18  20
ENDBRANCH  15  18
ENDBRANCH  13  15
ENDBRANCH   8   9
ENDBRANCH   4   7
TORSDOF 5
ENDMDL
MODEL      247
REMARK 921   NORMALIZED FREE ENERGY PREDICTED BY IDOCK:   -4.29 KCAL/MOL
REMARK 922        TOTAL FREE ENERGY PREDICTED BY IDOCK:   -6.01 KCAL/MOL
REMARK 923 INTER-LIGAND FREE ENERGY PREDICTED BY IDOCK:   -5.22 KCAL/MOL
REMARK 924 INTRA-LIGAND FREE ENERGY PREDICTED BY IDOCK:   -0.79 KCAL/MOL
REMARK 927      BINDING AFFINITY PREDICTED BY RF-SCORE:    0.00 PKD
ROOT
HETATM    1  O   UNL     1     -10.318  10.234  65.794  1.00  0.00    -0.239 OA 
HETATM    2  N   UNL     1      -9.547   9.535  64.851  1.00  0.00    -0.446 N  
HETATM    3  H   UNL     1     -10.935  10.908  65.533  1.00  0.00     0.000 HD 
HETATM    4  C   UNL     1      -8.662   8.566  65.226  1.00  0.00    -0.140 C  
HETATM    5  H   UNL     1      -9.651   9.757  63.861  1.00  0.00     0.000 HD 
HETATM    6  O   UNL     1      -7.945   8.010  64.401  1.00  0.00    -0.139 OA 
ENDROOT
BRANCH   4   7
HETATM    7  C   UNL     1      -8.623   8.230  66.670  1.00  0.00    -0.135 C  
HETATM    8  C   UNL     1      -7.642   7.465  67.169  1.00  0.00    -0.107 C  
BRANCH   8   9
HETATM    9  C   UNL     1      -7.605   7.133  68.593  1.00  0.00    -0.111 A  
HETATM   10  C   UNL     1      -6.384   7.137  69.279  1.00  0.00    -0.035 A  
HETATM   11  C   UNL     1      -6.328   6.761  70.624  1.00  0.00    -0.043 A  
HETATM   12  C   UNL     1      -7.490   6.372  71.291  1.00  0.00    -0.089 A  
HETATM   13  C   UNL     1      -8.713   6.381  70.612  1.00  0.00    -0.144 A  
HETATM   14  C   UNL     1      -8.774   6.753  69.262  1.00  0.00    -0.135 A  
BRANCH  13  15
HETATM   15  S   UNL     1     -10.176   5.773  71.428  1.00  0.00    -0.224 S  
HETATM   16  O   UNL     1     -10.175   6.289  72.781  1.00  0.00    -0.178 OA 
HETATM   17  O   UNL     1     -10.250   4.348  71.175  1.00  0.00    -0.157 OA 
BRANCH  15  18
HETATM   18  N   UNL     1     -11.452   6.459  70.569  1.00  0.00    -0.373 N  
HETATM   19  H   UNL     1     -11.806   6.007  69.727  1.00  0.00     0.000 HD 
BRANCH  18  20
HETATM   20  C   UNL     1     -12.030   7.670  71.027  1.00  0.00    -0.273 A  
HETATM   21  C   UNL     1     -13.251   7.651  71.696  1.00  0.00    -0.395 A  
HETATM   22  C   UNL     1     -13.850   8.852  72.080  1.00  0.00    -0.511 A  
HETATM   23  C   UNL     1     -13.218  10.066  71.808  1.00  0.00    -0.540 A  
HETATM   24  C   UNL     1     -11.986  10.081  71.152  1.00  0.00    -0.484 A  
HETATM   25  C   UNL     1     -11.396   8.882  70.752  1.00  0.00    -0.325 A  
ENDBRANCH  18  20
ENDBRANCH  15  18
ENDBRANCH  13  15
ENDBRANCH   8   9
ENDBRANCH   4   7
TORSDOF 5
ENDMDL
MODEL      248
REMARK 921   NORMALIZED FREE ENERGY PREDICTED BY IDOCK:   -4.25 KCAL/MOL
REMARK 922        TOTAL FREE ENERGY PREDICTED BY IDOCK:   -5.96 KCAL/MOL
REMARK 923 INTER-LIGAND FREE ENERGY PREDICTED BY IDOCK:   -5.16 KCAL/MOL
REMARK 924 INTRA-LIGAND FREE ENERGY PREDICTED BY IDOCK:   -0.80 KCAL/MOL
REMARK 927      BINDING AFFINITY PREDICTED BY RF-SCORE:    0.00 PKD
ROOT
HETATM    1  O   UNL     1      -9.555  14.604  68.857  1.00  0.00    -0.212 OA 
HETATM    2  N   UNL     1     -10.526  14.914  67.891  1.00  0.00    -0.248 N  
HETATM    3  H   UNL     1      -8.865  15.218  69.085  1.00  0.00     0.000 HD 
HETATM    4  C   UNL     1     -11.516  14.033  67.563  1.00  0.00    -0.343 C  
HETATM    5  H   UNL     1     -10.491  15.819  67.423  1.00  0.00     0.000 HD 
HETATM    6  O   UNL     1     -12.318  14.287  66.671  1.00  0.00    -0.446 OA 
ENDROOT
BRANCH   4   7
HETATM    7  C   UNL     1     -11.563  12.772  68.342  1.00  0.00    -0.365 C  
HETATM    8  C   UNL     1     -12.273  12.695  69.477  1.00  0.00    -0.149 C  
BRANCH   8   9
HETATM    9  C   UNL     1     -12.319  11.451  70.245  1.00  0.00    -0.379 A  
HETATM   10  C   UNL     1     -12.841  11.451  71.544  1.00  0.00    -0.508 A  
HETATM   11  C   UNL     1     -12.832  10.282  72.310  1.00  0.00    -0.211 A  
HETATM   12  C   UNL     1     -12.295   9.106  71.786  1.00  0.00    -0.444 A  
HETATM   13  C   UNL     1     -11.785   9.099  70.483  1.00  0.00    -0.152 A  
HETATM   14  C   UNL     1     -11.788  10.269  69.712  1.00  0.00    -0.217 A  
BRANCH  13  15
HETATM   15  S   UNL     1     -10.994   7.630  69.856  1.00  0.00    -0.149 S  
HETATM   16  O   UNL     1     -10.729   7.837  68.448  1.00  0.00    -0.150 OA 
HETATM   17  O   UNL     1     -11.773   6.496  70.309  1.00  0.00    -0.404 OA 
BRANCH  15  18
HETATM   18  N   UNL     1      -9.535   7.549  70.694  1.00  0.00    -0.164 N  
HETATM   19  H   UNL     1      -9.477   7.041  71.576  1.00  0.00     0.000 HD 
BRANCH  18  20
HETATM   20  C   UNL     1      -8.389   8.192  70.163  1.00  0.00    -0.125 A  
HETATM   21  C   UNL     1      -8.248   9.574  70.279  1.00  0.00    -0.209 A  
HETATM   22  C   UNL     1      -7.154  10.210  69.691  1.00  0.00    -0.115 A  
HETATM   23  C   UNL     1      -6.197   9.463  69.004  1.00  0.00    -0.042 A  
HETATM   24  C   UNL     1      -6.332   8.077  68.904  1.00  0.00    -0.040 A  
HETATM   25  C   UNL     1      -7.435   7.443  69.476  1.00  0.00    -0.090 A  
ENDBRANCH  18  20
ENDBRANCH  15  18
ENDBRANCH  13  15
ENDBRANCH   8   9
ENDBRANCH   4   7
TORSDOF 5
ENDMDL
MODEL      249
REMARK 921   NORMALIZED FREE ENERGY PREDICTED BY IDOCK:   -4.25 KCAL/MOL
REMARK 922        TOTAL FREE ENERGY PREDICTED BY IDOCK:   -5.96 KCAL/MOL
REMARK 923 INTER-LIGAND FREE ENERGY PREDICTED BY IDOCK:   -5.18 KCAL/MOL
REMARK 924 INTRA-LIGAND FREE ENERGY PREDICTED BY IDOCK:   -0.78 KCAL/MOL
REMARK 927      BINDING AFFINITY PREDICTED BY RF-SCORE:    0.00 PKD
ROOT
HETATM    1  O   UNL     1      -9.267   7.893  66.608  1.00  0.00    -0.157 OA 
HETATM    2  N   UNL     1      -9.098   8.099  65.229  1.00  0.00    -0.394 N  
HETATM    3  H   UNL     1      -9.259   7.021  66.987  1.00  0.00     0.000 HD 
HETATM    4  C   UNL     1      -9.109   9.351  64.686  1.00  0.00    -0.173 C  
HETATM    5  H   UNL     1      -8.962   7.294  64.619  1.00  0.00     0.000 HD 
HETATM    6  O   UNL     1      -9.028   9.514  63.473  1.00  0.00    -0.233 OA 
ENDROOT
BRANCH   4   7
HETATM    7  C   UNL     1      -9.221  10.483  65.637  1.00  0.00    -0.221 C  
HETATM    8  C   UNL     1      -8.281  11.438  65.679  1.00  0.00     0.230 C  
BRANCH   8   9
HETATM    9  C   UNL     1      -8.392  12.554  66.617  1.00  0.00     0.040 A  
HETATM   10  C   UNL     1      -7.585  12.587  67.761  1.00  0.00    -0.138 A  
HETATM   11  C   UNL     1      -7.726  13.616  68.696  1.00  0.00    -0.107 A  
HETATM   12  C   UNL     1      -8.680  14.615  68.499  1.00  0.00    -0.176 A  
HETATM   13  C   UNL     1      -9.479  14.591  67.351  1.00  0.00    -0.202 A  
HETATM   14  C   UNL     1      -9.344  13.560  66.412  1.00  0.00    -0.191 A  
BRANCH  13  15
HETATM   15  S   UNL     1     -10.776  15.799  67.157  1.00  0.00    -0.287 S  
HETATM   16  O   UNL     1     -10.852  16.145  65.754  1.00  0.00    -0.290 OA 
HETATM   17  O   UNL     1     -10.568  16.818  68.166  1.00  0.00    -0.319 OA 
BRANCH  15  18
HETATM   18  N   UNL     1     -12.179  14.984  67.609  1.00  0.00    -0.399 N  
HETATM   19  H   UNL     1     -13.082  15.269  67.232  1.00  0.00     0.000 HD 
BRANCH  18  20
HETATM   20  C   UNL     1     -12.094  13.900  68.518  1.00  0.00    -0.296 A  
HETATM   21  C   UNL     1     -11.965  12.597  68.040  1.00  0.00    -0.300 A  
HETATM   22  C   UNL     1     -11.956  11.528  68.937  1.00  0.00    -0.364 A  
HETATM   23  C   UNL     1     -12.057  11.765  70.308  1.00  0.00    -0.426 A  
HETATM   24  C   UNL     1     -12.169  13.072  70.785  1.00  0.00    -0.359 A  
HETATM   25  C   UNL     1     -12.197  14.140  69.888  1.00  0.00    -0.416 A  
ENDBRANCH  18  20
ENDBRANCH  15  18
ENDBRANCH  13  15
ENDBRANCH   8   9
ENDBRANCH   4   7
TORSDOF 5
ENDMDL
MODEL      250
REMARK 921   NORMALIZED FREE ENERGY PREDICTED BY IDOCK:   -4.21 KCAL/MOL
REMARK 922        TOTAL FREE ENERGY PREDICTED BY IDOCK:   -5.92 KCAL/MOL
REMARK 923 INTER-LIGAND FREE ENERGY PREDICTED BY IDOCK:   -5.53 KCAL/MOL
REMARK 924 INTRA-LIGAND FREE ENERGY PREDICTED BY IDOCK:   -0.38 KCAL/MOL
REMARK 927      BINDING AFFINITY PREDICTED BY RF-SCORE:    0.00 PKD
ROOT
HETATM    1  O   UNL     1      -8.945   5.358  72.544  1.00  0.00    -0.133 OA 
HETATM    2  N   UNL     1      -7.951   5.283  71.556  1.00  0.00    -0.112 N  
HETATM    3  H   UNL     1      -8.905   4.831  73.334  1.00  0.00     0.000 HD 
HETATM    4  C   UNL     1      -8.008   6.041  70.423  1.00  0.00    -0.107 C  
HETATM    5  H   UNL     1      -7.166   4.646  71.688  1.00  0.00     0.000 HD 
HETATM    6  O   UNL     1      -7.170   5.918  69.536  1.00  0.00    -0.066 OA 
ENDROOT
BRANCH   4   7
HETATM    7  C   UNL     1      -9.127   7.010  70.332  1.00  0.00    -0.156 C  
HETATM    8  C   UNL     1      -9.101   8.154  71.031  1.00  0.00    -0.176 C  
BRANCH   8   9
HETATM    9  C   UNL     1     -10.205   9.108  70.941  1.00  0.00    -0.351 A  
HETATM   10  C   UNL     1     -11.380   8.887  71.671  1.00  0.00    -0.407 A  
HETATM   11  C   UNL     1     -12.465   9.759  71.545  1.00  0.00    -0.495 A  
HETATM   12  C   UNL     1     -12.387  10.854  70.683  1.00  0.00    -0.470 A  
HETATM   13  C   UNL     1     -11.210  11.085  69.964  1.00  0.00    -0.224 A  
HETATM   14  C   UNL     1     -10.120  10.212  70.084  1.00  0.00    -0.197 A  
BRANCH  13  15
HETATM   15  S   UNL     1     -11.151  12.414  68.777  1.00  0.00    -0.272 S  
HETATM   16  O   UNL     1      -9.764  12.789  68.601  1.00  0.00    -0.162 OA 
HETATM   17  O   UNL     1     -12.142  13.392  69.178  1.00  0.00    -0.317 OA 
BRANCH  15  18
HETATM   18  N   UNL     1     -11.731  11.730  67.351  1.00  0.00    -0.278 N  
HETATM   19  H   UNL     1     -12.357  10.926  67.385  1.00  0.00     0.000 HD 
BRANCH  18  20
HETATM   20  C   UNL     1     -11.342  12.280  66.105  1.00  0.00    -0.353 A  
HETATM   21  C   UNL     1     -11.774  13.553  65.739  1.00  0.00    -0.371 A  
HETATM   22  C   UNL     1     -11.448  14.060  64.480  1.00  0.00    -0.380 A  
HETATM   23  C   UNL     1     -10.677  13.301  63.599  1.00  0.00     0.226 A  
HETATM   24  C   UNL     1     -10.231  12.033  63.975  1.00  0.00    -0.391 A  
HETATM   25  C   UNL     1     -10.572  11.518  65.226  1.00  0.00    -0.339 A  
ENDBRANCH  18  20
ENDBRANCH  15  18
ENDBRANCH  13  15
ENDBRANCH   8   9
ENDBRANCH   4   7
TORSDOF 5
ENDMDL
MODEL      251
REMARK 921   NORMALIZED FREE ENERGY PREDICTED BY IDOCK:   -4.21 KCAL/MOL
REMARK 922        TOTAL FREE ENERGY PREDICTED BY IDOCK:   -5.91 KCAL/MOL
REMARK 923 INTER-LIGAND FREE ENERGY PREDICTED BY IDOCK:   -5.25 KCAL/MOL
REMARK 924 INTRA-LIGAND FREE ENERGY PREDICTED BY IDOCK:   -0.66 KCAL/MOL
REMARK 927      BINDING AFFINITY PREDICTED BY RF-SCORE:    0.00 PKD
ROOT
HETATM    1  O   UNL     1     -12.279   7.615  70.575  1.00  0.00    -0.507 OA 
HETATM    2  N   UNL     1     -11.782   6.643  69.691  1.00  0.00    -0.657 N  
HETATM    3  H   UNL     1     -13.024   7.442  71.138  1.00  0.00     0.000 HD 
HETATM    4  C   UNL     1     -10.711   6.892  68.882  1.00  0.00    -0.222 C  
HETATM    5  H   UNL     1     -12.232   5.729  69.653  1.00  0.00     0.000 HD 
HETATM    6  O   UNL     1     -10.328   6.059  68.067  1.00  0.00    -0.160 OA 
ENDROOT
BRANCH   4   7
HETATM    7  C   UNL     1     -10.047   8.207  69.050  1.00  0.00    -0.211 C  
HETATM    8  C   UNL     1      -8.818   8.422  68.559  1.00  0.00    -0.136 C  
BRANCH   8   9
HETATM    9  C   UNL     1      -8.165   9.719  68.725  1.00  0.00    -0.108 A  
HETATM   10  C   UNL     1      -6.980   9.814  69.466  1.00  0.00    -0.064 A  
HETATM   11  C   UNL     1      -6.381  11.058  69.683  1.00  0.00    -0.106 A  
HETATM   12  C   UNL     1      -6.964  12.216  69.169  1.00  0.00    -0.053 A  
HETATM   13  C   UNL     1      -8.140  12.123  68.417  1.00  0.00    -0.149 A  
HETATM   14  C   UNL     1      -8.747  10.879  68.198  1.00  0.00    -0.133 A  
BRANCH  13  15
HETATM   15  S   UNL     1      -8.948  13.611  67.860  1.00  0.00    -0.205 S  
HETATM   16  O   UNL     1      -8.484  13.890  66.517  1.00  0.00     0.046 OA 
HETATM   17  O   UNL     1      -8.812  14.595  68.915  1.00  0.00    -0.179 OA 
BRANCH  15  18
HETATM   18  N   UNL     1     -10.583  13.209  67.814  1.00  0.00    -0.230 N  
HETATM   19  H   UNL     1     -11.098  13.055  68.680  1.00  0.00     0.000 HD 
BRANCH  18  20
HETATM   20  C   UNL     1     -11.236  13.087  66.563  1.00  0.00    -0.302 A  
HETATM   21  C   UNL     1     -11.067  11.935  65.797  1.00  0.00    -0.367 A  
HETATM   22  C   UNL     1     -11.655  11.851  64.533  1.00  0.00    -0.344 A  
HETATM   23  C   UNL     1     -12.422  12.910  64.048  1.00  0.00    -0.407 A  
HETATM   24  C   UNL     1     -12.603  14.055  64.824  1.00  0.00    -0.326 A  
HETATM   25  C   UNL     1     -12.002  14.147  66.079  1.00  0.00    -0.427 A  
ENDBRANCH  18  20
ENDBRANCH  15  18
ENDBRANCH  13  15
ENDBRANCH   8   9
ENDBRANCH   4   7
TORSDOF 5
ENDMDL
MODEL      252
REMARK 921   NORMALIZED FREE ENERGY PREDICTED BY IDOCK:   -4.16 KCAL/MOL
REMARK 922        TOTAL FREE ENERGY PREDICTED BY IDOCK:   -5.85 KCAL/MOL
REMARK 923 INTER-LIGAND FREE ENERGY PREDICTED BY IDOCK:   -5.18 KCAL/MOL
REMARK 924 INTRA-LIGAND FREE ENERGY PREDICTED BY IDOCK:   -0.67 KCAL/MOL
REMARK 927      BINDING AFFINITY PREDICTED BY RF-SCORE:    0.00 PKD
ROOT
HETATM    1  O   UNL     1     -12.842  12.200  62.936  1.00  0.00    -0.652 OA 
HETATM    2  N   UNL     1     -12.464  13.242  63.797  1.00  0.00    -0.711 N  
HETATM    3  H   UNL     1     -13.693  12.185  62.513  1.00  0.00     0.000 HD 
HETATM    4  C   UNL     1     -11.242  13.262  64.404  1.00  0.00    -0.381 C  
HETATM    5  H   UNL     1     -13.119  14.003  63.974  1.00  0.00     0.000 HD 
HETATM    6  O   UNL     1     -10.949  14.142  65.206  1.00  0.00    -0.307 OA 
ENDROOT
BRANCH   4   7
HETATM    7  C   UNL     1     -10.304  12.174  64.037  1.00  0.00    -0.412 C  
HETATM    8  C   UNL     1     -10.148  11.106  64.834  1.00  0.00    -0.345 C  
BRANCH   8   9
HETATM    9  C   UNL     1      -9.222  10.034  64.471  1.00  0.00    -0.313 A  
HETATM   10  C   UNL     1      -8.487  10.119  63.282  1.00  0.00    -0.184 A  
HETATM   11  C   UNL     1      -7.646   9.072  62.895  1.00  0.00    -0.107 A  
HETATM   12  C   UNL     1      -7.539   7.930  63.689  1.00  0.00    -0.130 A  
HETATM   13  C   UNL     1      -8.262   7.848  64.884  1.00  0.00    -0.124 A  
HETATM   14  C   UNL     1      -9.110   8.893  65.275  1.00  0.00    -0.196 A  
BRANCH  13  15
HETATM   15  S   UNL     1      -8.217   6.342  65.837  1.00  0.00    -0.136 S  
HETATM   16  O   UNL     1      -6.967   6.317  66.565  1.00  0.00    -0.063 OA 
HETATM   17  O   UNL     1      -8.583   5.259  64.948  1.00  0.00    -0.147 OA 
BRANCH  15  18
HETATM   18  N   UNL     1      -9.494   6.496  66.925  1.00  0.00    -0.147 N  
HETATM   19  H   UNL     1     -10.457   6.479  66.591  1.00  0.00     0.000 HD 
BRANCH  18  20
HETATM   20  C   UNL     1      -9.219   6.648  68.307  1.00  0.00    -0.121 A  
HETATM   21  C   UNL     1      -9.089   5.525  69.120  1.00  0.00    -0.127 A  
HETATM   22  C   UNL     1      -8.890   5.683  70.493  1.00  0.00    -0.145 A  
HETATM   23  C   UNL     1      -8.806   6.962  71.044  1.00  0.00    -0.140 A  
HETATM   24  C   UNL     1      -8.921   8.085  70.224  1.00  0.00    -0.147 A  
HETATM   25  C   UNL     1      -9.137   7.928  68.855  1.00  0.00    -0.141 A  
ENDBRANCH  18  20
ENDBRANCH  15  18
ENDBRANCH  13  15
ENDBRANCH   8   9
ENDBRANCH   4   7
TORSDOF 5
ENDMDL
MODEL      253
REMARK 921   NORMALIZED FREE ENERGY PREDICTED BY IDOCK:   -4.16 KCAL/MOL
REMARK 922        TOTAL FREE ENERGY PREDICTED BY IDOCK:   -5.84 KCAL/MOL
REMARK 923 INTER-LIGAND FREE ENERGY PREDICTED BY IDOCK:   -5.29 KCAL/MOL
REMARK 924 INTRA-LIGAND FREE ENERGY PREDICTED BY IDOCK:   -0.56 KCAL/MOL
REMARK 927      BINDING AFFINITY PREDICTED BY RF-SCORE:    0.00 PKD
ROOT
HETATM    1  O   UNL     1     -13.165  12.410  64.107  1.00  0.00    -0.761 OA 
HETATM    2  N   UNL     1     -13.034  13.544  64.924  1.00  0.00    -0.721 N  
HETATM    3  H   UNL     1     -13.858  12.339  63.460  1.00  0.00     0.000 HD 
HETATM    4  C   UNL     1     -12.039  13.646  65.853  1.00  0.00    -0.439 C  
HETATM    5  H   UNL     1     -13.699  14.310  64.822  1.00  0.00     0.000 HD 
HETATM    6  O   UNL     1     -11.975  14.611  66.607  1.00  0.00    -0.368 OA 
ENDROOT
BRANCH   4   7
HETATM    7  C   UNL     1     -11.055  12.538  65.892  1.00  0.00    -0.334 C  
HETATM    8  C   UNL     1     -11.175  11.546  66.786  1.00  0.00    -0.350 C  
BRANCH   8   9
HETATM    9  C   UNL     1     -10.203  10.454  66.823  1.00  0.00    -0.282 A  
HETATM   10  C   UNL     1      -8.854  10.710  66.547  1.00  0.00    -0.160 A  
HETATM   11  C   UNL     1      -7.927   9.664  66.519  1.00  0.00    -0.112 A  
HETATM   12  C   UNL     1      -8.342   8.354  66.759  1.00  0.00    -0.109 A  
HETATM   13  C   UNL     1      -9.686   8.097  67.048  1.00  0.00    -0.212 A  
HETATM   14  C   UNL     1     -10.621   9.141  67.075  1.00  0.00    -0.266 A  
BRANCH  13  15
HETATM   15  S   UNL     1     -10.238   6.413  67.239  1.00  0.00    -0.219 S  
HETATM   16  O   UNL     1      -9.247   5.551  66.629  1.00  0.00    -0.127 OA 
HETATM   17  O   UNL     1     -11.625   6.364  66.823  1.00  0.00     0.048 OA 
BRANCH  15  18
HETATM   18  N   UNL     1     -10.248   6.161  68.905  1.00  0.00    -0.171 N  
HETATM   19  H   UNL     1     -10.917   6.654  69.494  1.00  0.00     0.000 HD 
BRANCH  18  20
HETATM   20  C   UNL     1      -9.319   5.257  69.479  1.00  0.00    -0.130 A  
HETATM   21  C   UNL     1      -8.094   5.724  69.953  1.00  0.00    -0.107 A  
HETATM   22  C   UNL     1      -7.155   4.819  70.451  1.00  0.00    -0.049 A  
HETATM   23  C   UNL     1      -7.449   3.456  70.489  1.00  0.00    -0.040 A  
HETATM   24  C   UNL     1      -8.683   2.994  70.030  1.00  0.00    -0.129 A  
HETATM   25  C   UNL     1      -9.615   3.895  69.515  1.00  0.00    -0.248 A  
ENDBRANCH  18  20
ENDBRANCH  15  18
ENDBRANCH  13  15
ENDBRANCH   8   9
ENDBRANCH   4   7
TORSDOF 5
ENDMDL
MODEL      254
REMARK 921   NORMALIZED FREE ENERGY PREDICTED BY IDOCK:   -4.15 KCAL/MOL
REMARK 922        TOTAL FREE ENERGY PREDICTED BY IDOCK:   -5.84 KCAL/MOL
REMARK 923 INTER-LIGAND FREE ENERGY PREDICTED BY IDOCK:   -5.35 KCAL/MOL
REMARK 924 INTRA-LIGAND FREE ENERGY PREDICTED BY IDOCK:   -0.49 KCAL/MOL
REMARK 927      BINDING AFFINITY PREDICTED BY RF-SCORE:    0.00 PKD
ROOT
HETATM    1  O   UNL     1     -12.876  14.246  66.650  1.00  0.00    -0.438 OA 
HETATM    2  N   UNL     1     -13.171  13.868  65.331  1.00  0.00    -0.697 N  
HETATM    3  H   UNL     1     -13.378  14.916  67.102  1.00  0.00     0.000 HD 
HETATM    4  C   UNL     1     -12.450  12.907  64.684  1.00  0.00    -0.434 C  
HETATM    5  H   UNL     1     -13.943  14.322  64.844  1.00  0.00     0.000 HD 
HETATM    6  O   UNL     1     -12.673  12.632  63.509  1.00  0.00    -0.719 OA 
ENDROOT
BRANCH   4   7
HETATM    7  C   UNL     1     -11.399  12.223  65.475  1.00  0.00    -0.394 C  
HETATM    8  C   UNL     1     -10.127  12.203  65.052  1.00  0.00    -0.289 C  
BRANCH   8   9
HETATM    9  C   UNL     1      -9.091  11.529  65.833  1.00  0.00    -0.186 A  
HETATM   10  C   UNL     1      -8.614  12.113  67.013  1.00  0.00    -0.191 A  
HETATM   11  C   UNL     1      -7.581  11.508  67.734  1.00  0.00    -0.111 A  
HETATM   12  C   UNL     1      -7.012  10.319  67.278  1.00  0.00    -0.086 A  
HETATM   13  C   UNL     1      -7.495   9.725  66.107  1.00  0.00    -0.101 A  
HETATM   14  C   UNL     1      -8.529  10.329  65.378  1.00  0.00    -0.166 A  
BRANCH  13  15
HETATM   15  S   UNL     1      -6.692   8.271  65.462  1.00  0.00    -0.055 S  
HETATM   16  O   UNL     1      -5.263   8.463  65.588  1.00  0.00    -0.031 OA 
HETATM   17  O   UNL     1      -7.294   7.981  64.177  1.00  0.00    -0.085 OA 
BRANCH  15  18
HETATM   18  N   UNL     1      -7.182   7.030  66.490  1.00  0.00    -0.080 N  
HETATM   19  H   UNL     1      -6.493   6.403  66.904  1.00  0.00     0.000 HD 
BRANCH  18  20
HETATM   20  C   UNL     1      -8.561   6.864  66.775  1.00  0.00    -0.120 A  
HETATM   21  C   UNL     1      -9.185   7.689  67.708  1.00  0.00    -0.141 A  
HETATM   22  C   UNL     1     -10.524   7.472  68.037  1.00  0.00    -0.253 A  
HETATM   23  C   UNL     1     -11.238   6.445  67.421  1.00  0.00    -0.283 A  
HETATM   24  C   UNL     1     -10.615   5.631  66.474  1.00  0.00    -0.320 A  
HETATM   25  C   UNL     1      -9.272   5.835  66.157  1.00  0.00    -0.169 A  
ENDBRANCH  18  20
ENDBRANCH  15  18
ENDBRANCH  13  15
ENDBRANCH   8   9
ENDBRANCH   4   7
TORSDOF 5
ENDMDL
MODEL      255
REMARK 921   NORMALIZED FREE ENERGY PREDICTED BY IDOCK:   -4.13 KCAL/MOL
REMARK 922        TOTAL FREE ENERGY PREDICTED BY IDOCK:   -5.81 KCAL/MOL
REMARK 923 INTER-LIGAND FREE ENERGY PREDICTED BY IDOCK:   -5.65 KCAL/MOL
REMARK 924 INTRA-LIGAND FREE ENERGY PREDICTED BY IDOCK:   -0.16 KCAL/MOL
REMARK 927      BINDING AFFINITY PREDICTED BY RF-SCORE:    0.00 PKD
ROOT
HETATM    1  O   UNL     1     -12.530  14.355  68.621  1.00  0.00    -0.583 OA 
HETATM    2  N   UNL     1     -11.546  15.270  68.214  1.00  0.00    -0.344 N  
HETATM    3  H   UNL     1     -13.434  14.618  68.749  1.00  0.00     0.000 HD 
HETATM    4  C   UNL     1     -10.248  14.891  68.030  1.00  0.00    -0.228 C  
HETATM    5  H   UNL     1     -11.808  16.242  68.052  1.00  0.00     0.000 HD 
HETATM    6  O   UNL     1      -9.384  15.713  67.740  1.00  0.00    -0.200 OA 
ENDROOT
BRANCH   4   7
HETATM    7  C   UNL     1      -9.950  13.448  68.196  1.00  0.00    -0.237 C  
HETATM    8  C   UNL     1     -10.265  12.569  67.234  1.00  0.00    -0.222 C  
BRANCH   8   9
HETATM    9  C   UNL     1      -9.972  11.146  67.399  1.00  0.00    -0.204 A  
HETATM   10  C   UNL     1     -10.627  10.201  66.599  1.00  0.00    -0.214 A  
HETATM   11  C   UNL     1     -10.400   8.835  66.791  1.00  0.00    -0.328 A  
HETATM   12  C   UNL     1      -9.525   8.403  67.787  1.00  0.00    -0.171 A  
HETATM   13  C   UNL     1      -8.860   9.345  68.579  1.00  0.00    -0.128 A  
HETATM   14  C   UNL     1      -9.085  10.716  68.394  1.00  0.00    -0.156 A  
BRANCH  13  15
HETATM   15  S   UNL     1      -7.833   8.793  69.927  1.00  0.00    -0.099 S  
HETATM   16  O   UNL     1      -7.833   9.829  70.937  1.00  0.00    -0.299 OA 
HETATM   17  O   UNL     1      -6.592   8.311  69.354  1.00  0.00    -0.040 OA 
BRANCH  15  18
HETATM   18  N   UNL     1      -8.622   7.430  70.525  1.00  0.00    -0.137 N  
HETATM   19  H   UNL     1      -8.128   6.541  70.597  1.00  0.00     0.000 HD 
BRANCH  18  20
HETATM   20  C   UNL     1      -9.978   7.528  70.926  1.00  0.00    -0.180 A  
HETATM   21  C   UNL     1     -10.332   8.355  71.990  1.00  0.00    -0.374 A  
HETATM   22  C   UNL     1     -11.658   8.391  72.427  1.00  0.00    -0.450 A  
HETATM   23  C   UNL     1     -12.626   7.617  71.787  1.00  0.00    -0.359 A  
HETATM   24  C   UNL     1     -12.271   6.803  70.711  1.00  0.00    -0.353 A  
HETATM   25  C   UNL     1     -10.943   6.752  70.285  1.00  0.00    -0.339 A  
ENDBRANCH  18  20
ENDBRANCH  15  18
ENDBRANCH  13  15
ENDBRANCH   8   9
ENDBRANCH   4   7
TORSDOF 5
ENDMDL
MODEL      256
REMARK 921   NORMALIZED FREE ENERGY PREDICTED BY IDOCK:   -4.06 KCAL/MOL
REMARK 922        TOTAL FREE ENERGY PREDICTED BY IDOCK:   -5.72 KCAL/MOL
REMARK 923 INTER-LIGAND FREE ENERGY PREDICTED BY IDOCK:   -5.09 KCAL/MOL
REMARK 924 INTRA-LIGAND FREE ENERGY PREDICTED BY IDOCK:   -0.64 KCAL/MOL
REMARK 927      BINDING AFFINITY PREDICTED BY RF-SCORE:    0.00 PKD
ROOT
HETATM    1  O   UNL     1     -13.225  12.008  72.022  1.00  0.00    -0.499 OA 
HETATM    2  N   UNL     1     -13.855  13.171  72.492  1.00  0.00    -0.520 N  
HETATM    3  H   UNL     1     -13.494  11.143  72.310  1.00  0.00     0.000 HD 
HETATM    4  C   UNL     1     -13.468  14.413  72.079  1.00  0.00    -0.402 C  
HETATM    5  H   UNL     1     -14.622  13.086  73.159  1.00  0.00     0.000 HD 
HETATM    6  O   UNL     1     -13.980  15.424  72.547  1.00  0.00    -0.519 OA 
ENDROOT
BRANCH   4   7
HETATM    7  C   UNL     1     -12.407  14.464  71.043  1.00  0.00    -0.427 C  
HETATM    8  C   UNL     1     -11.602  15.530  70.939  1.00  0.00    -0.410 C  
BRANCH   8   9
HETATM    9  C   UNL     1     -10.558  15.580  69.917  1.00  0.00    -0.322 A  
HETATM   10  C   UNL     1     -10.078  16.816  69.468  1.00  0.00    -0.107 A  
HETATM   11  C   UNL     1      -9.125  16.877  68.447  1.00  0.00    -0.243 A  
HETATM   12  C   UNL     1      -8.650  15.702  67.863  1.00  0.00    -0.163 A  
HETATM   13  C   UNL     1      -9.117  14.465  68.318  1.00  0.00    -0.193 A  
HETATM   14  C   UNL     1     -10.075  14.399  69.339  1.00  0.00     0.041 A  
BRANCH  13  15
HETATM   15  S   UNL     1      -8.600  12.972  67.494  1.00  0.00    -0.204 S  
HETATM   16  O   UNL     1      -7.160  13.019  67.356  1.00  0.00    -0.157 OA 
HETATM   17  O   UNL     1      -9.454  12.802  66.336  1.00  0.00    -0.246 OA 
BRANCH  15  18
HETATM   18  N   UNL     1      -9.019  11.737  68.559  1.00  0.00    -0.292 N  
HETATM   19  H   UNL     1      -9.926  11.746  69.025  1.00  0.00     0.000 HD 
BRANCH  18  20
HETATM   20  C   UNL     1      -8.101  10.685  68.804  1.00  0.00    -0.139 A  
HETATM   21  C   UNL     1      -7.943   9.665  67.867  1.00  0.00    -0.098 A  
HETATM   22  C   UNL     1      -7.092   8.594  68.146  1.00  0.00    -0.082 A  
HETATM   23  C   UNL     1      -6.390   8.556  69.351  1.00  0.00    -0.037 A  
HETATM   24  C   UNL     1      -6.538   9.587  70.279  1.00  0.00    -0.077 A  
HETATM   25  C   UNL     1      -7.402  10.648  70.009  1.00  0.00     0.013 A  
ENDBRANCH  18  20
ENDBRANCH  15  18
ENDBRANCH  13  15
ENDBRANCH   8   9
ENDBRANCH   4   7
TORSDOF 5
ENDMDL
MODEL      257
REMARK 921   NORMALIZED FREE ENERGY PREDICTED BY IDOCK:   -3.99 KCAL/MOL
REMARK 922        TOTAL FREE ENERGY PREDICTED BY IDOCK:   -5.62 KCAL/MOL
REMARK 923 INTER-LIGAND FREE ENERGY PREDICTED BY IDOCK:   -5.16 KCAL/MOL
REMARK 924 INTRA-LIGAND FREE ENERGY PREDICTED BY IDOCK:   -0.46 KCAL/MOL
REMARK 927      BINDING AFFINITY PREDICTED BY RF-SCORE:    0.00 PKD
ROOT
HETATM    1  O   UNL     1      -7.995   4.904  72.995  1.00  0.00    -0.099 OA 
HETATM    2  N   UNL     1      -7.882   4.166  71.806  1.00  0.00    -0.073 N  
HETATM    3  H   UNL     1      -7.393   4.777  73.720  1.00  0.00     0.000 HD 
HETATM    4  C   UNL     1      -8.746   4.348  70.766  1.00  0.00    -0.092 C  
HETATM    5  H   UNL     1      -7.136   3.476  71.718  1.00  0.00     0.000 HD 
HETATM    6  O   UNL     1      -8.680   3.651  69.759  1.00  0.00    -0.066 OA 
ENDROOT
BRANCH   4   7
HETATM    7  C   UNL     1      -9.753   5.426  70.923  1.00  0.00    -0.237 C  
HETATM    8  C   UNL     1      -9.652   6.565  70.223  1.00  0.00    -0.172 C  
BRANCH   8   9
HETATM    9  C   UNL     1     -10.644   7.627  70.380  1.00  0.00    -0.233 A  
HETATM   10  C   UNL     1     -11.801   7.396  71.134  1.00  0.00    -0.330 A  
HETATM   11  C   UNL     1     -12.785   8.382  71.239  1.00  0.00    -0.208 A  
HETATM   12  C   UNL     1     -12.624   9.604  70.585  1.00  0.00    -0.125 A  
HETATM   13  C   UNL     1     -11.463   9.843  69.842  1.00  0.00    -0.179 A  
HETATM   14  C   UNL     1     -10.475   8.857  69.730  1.00  0.00    -0.217 A  
BRANCH  13  15
HETATM   15  S   UNL     1     -11.311  11.356  68.912  1.00  0.00    -0.301 S  
HETATM   16  O   UNL     1     -12.604  11.653  68.335  1.00  0.00    -0.043 OA 
HETATM   17  O   UNL     1     -10.133  11.232  68.078  1.00  0.00    -0.169 OA 
BRANCH  15  18
HETATM   18  N   UNL     1     -10.934  12.523  70.068  1.00  0.00    -0.122 N  
HETATM   19  H   UNL     1      -9.984  12.598  70.430  1.00  0.00     0.000 HD 
BRANCH  18  20
HETATM   20  C   UNL     1     -11.947  13.398  70.532  1.00  0.00    -0.255 A  
HETATM   21  C   UNL     1     -11.887  14.757  70.231  1.00  0.00    -0.357 A  
HETATM   22  C   UNL     1     -12.848  15.625  70.752  1.00  0.00    -0.457 A  
HETATM   23  C   UNL     1     -13.875  15.129  71.556  1.00  0.00    -0.597 A  
HETATM   24  C   UNL     1     -13.942  13.765  71.842  1.00  0.00    -0.464 A  
HETATM   25  C   UNL     1     -12.972  12.900  71.337  1.00  0.00    -0.362 A  
ENDBRANCH  18  20
ENDBRANCH  15  18
ENDBRANCH  13  15
ENDBRANCH   8   9
ENDBRANCH   4   7
TORSDOF 5
ENDMDL
MODEL      258
REMARK 921   NORMALIZED FREE ENERGY PREDICTED BY IDOCK:   -3.95 KCAL/MOL
REMARK 922        TOTAL FREE ENERGY PREDICTED BY IDOCK:   -5.57 KCAL/MOL
REMARK 923 INTER-LIGAND FREE ENERGY PREDICTED BY IDOCK:   -4.87 KCAL/MOL
REMARK 924 INTRA-LIGAND FREE ENERGY PREDICTED BY IDOCK:   -0.71 KCAL/MOL
REMARK 927      BINDING AFFINITY PREDICTED BY RF-SCORE:    0.00 PKD
ROOT
HETATM    1  O   UNL     1     -12.398  10.128  71.077  1.00  0.00    -0.316 OA 
HETATM    2  N   UNL     1     -13.214  11.077  71.713  1.00  0.00    -0.437 N  
HETATM    3  H   UNL     1     -12.533   9.194  71.196  1.00  0.00     0.000 HD 
HETATM    4  C   UNL     1     -13.021  12.417  71.541  1.00  0.00    -0.285 C  
HETATM    5  H   UNL     1     -13.970  10.757  72.319  1.00  0.00     0.000 HD 
HETATM    6  O   UNL     1     -13.697  13.237  72.154  1.00  0.00    -0.507 OA 
ENDROOT
BRANCH   4   7
HETATM    7  C   UNL     1     -11.964  12.815  70.580  1.00  0.00    -0.277 C  
HETATM    8  C   UNL     1     -12.285  13.296  69.370  1.00  0.00    -0.210 C  
BRANCH   8   9
HETATM    9  C   UNL     1     -11.241  13.688  68.423  1.00  0.00    -0.306 A  
HETATM   10  C   UNL     1     -11.586  14.357  67.242  1.00  0.00    -0.401 A  
HETATM   11  C   UNL     1     -10.604  14.680  66.301  1.00  0.00    -0.306 A  
HETATM   12  C   UNL     1      -9.273  14.330  66.529  1.00  0.00    -0.259 A  
HETATM   13  C   UNL     1      -8.924  13.674  67.714  1.00  0.00    -0.196 A  
HETATM   14  C   UNL     1      -9.904  13.344  68.660  1.00  0.00    -0.116 A  
BRANCH  13  15
HETATM   15  S   UNL     1      -7.246  13.124  67.953  1.00  0.00    -0.153 S  
HETATM   16  O   UNL     1      -6.439  14.285  68.261  1.00  0.00    -0.093 OA 
HETATM   17  O   UNL     1      -6.913  12.261  66.837  1.00  0.00    -0.082 OA 
BRANCH  15  18
HETATM   18  N   UNL     1      -7.321  12.120  69.304  1.00  0.00    -0.330 N  
HETATM   19  H   UNL     1      -7.305  12.520  70.241  1.00  0.00     0.000 HD 
BRANCH  18  20
HETATM   20  C   UNL     1      -7.406  10.717  69.126  1.00  0.00    -0.111 A  
HETATM   21  C   UNL     1      -6.244   9.949  69.063  1.00  0.00    -0.040 A  
HETATM   22  C   UNL     1      -6.332   8.578  68.816  1.00  0.00    -0.049 A  
HETATM   23  C   UNL     1      -7.580   7.977  68.649  1.00  0.00    -0.100 A  
HETATM   24  C   UNL     1      -8.742   8.745  68.729  1.00  0.00    -0.137 A  
HETATM   25  C   UNL     1      -8.655  10.118  68.959  1.00  0.00    -0.156 A  
ENDBRANCH  18  20
ENDBRANCH  15  18
ENDBRANCH  13  15
ENDBRANCH   8   9
ENDBRANCH   4   7
TORSDOF 5
ENDMDL
MODEL      259
REMARK 921   NORMALIZED FREE ENERGY PREDICTED BY IDOCK:   -3.92 KCAL/MOL
REMARK 922        TOTAL FREE ENERGY PREDICTED BY IDOCK:   -5.54 KCAL/MOL
REMARK 923 INTER-LIGAND FREE ENERGY PREDICTED BY IDOCK:   -4.82 KCAL/MOL
REMARK 924 INTRA-LIGAND FREE ENERGY PREDICTED BY IDOCK:   -0.72 KCAL/MOL
REMARK 927      BINDING AFFINITY PREDICTED BY RF-SCORE:    0.00 PKD
ROOT
HETATM    1  O   UNL     1     -12.835   9.022  72.353  1.00  0.00    -0.401 OA 
HETATM    2  N   UNL     1     -13.211  10.372  72.263  1.00  0.00    -0.569 N  
HETATM    3  H   UNL     1     -13.271   8.422  72.947  1.00  0.00     0.000 HD 
HETATM    4  C   UNL     1     -12.585  11.234  71.410  1.00  0.00    -0.351 C  
HETATM    5  H   UNL     1     -13.970  10.717  72.850  1.00  0.00     0.000 HD 
HETATM    6  O   UNL     1     -12.876  12.426  71.389  1.00  0.00    -0.367 OA 
ENDROOT
BRANCH   4   7
HETATM    7  C   UNL     1     -11.550  10.651  70.522  1.00  0.00    -0.444 C  
HETATM    8  C   UNL     1     -11.898   9.950  69.433  1.00  0.00     0.170 C  
BRANCH   8   9
HETATM    9  C   UNL     1     -10.876   9.375  68.559  1.00  0.00    -0.149 A  
HETATM   10  C   UNL     1     -10.028   8.372  69.043  1.00  0.00    -0.194 A  
HETATM   11  C   UNL     1      -9.008   7.859  68.237  1.00  0.00    -0.132 A  
HETATM   12  C   UNL     1      -8.824   8.350  66.944  1.00  0.00    -0.157 A  
HETATM   13  C   UNL     1      -9.678   9.344  66.453  1.00  0.00    -0.250 A  
HETATM   14  C   UNL     1     -10.700   9.864  67.258  1.00  0.00    -0.304 A  
BRANCH  13  15
HETATM   15  S   UNL     1      -9.370  10.053  64.848  1.00  0.00    -0.286 S  
HETATM   16  O   UNL     1     -10.528  10.842  64.483  1.00  0.00    -0.346 OA 
HETATM   17  O   UNL     1      -8.896   8.986  63.990  1.00  0.00    -0.152 OA 
BRANCH  15  18
HETATM   18  N   UNL     1      -8.051  11.073  65.085  1.00  0.00    -0.364 N  
HETATM   19  H   UNL     1      -7.447  11.323  64.303  1.00  0.00     0.000 HD 
BRANCH  18  20
HETATM   20  C   UNL     1      -7.787  11.582  66.382  1.00  0.00    -0.020 A  
HETATM   21  C   UNL     1      -8.555  12.628  66.890  1.00  0.00    -0.151 A  
HETATM   22  C   UNL     1      -8.244  13.173  68.137  1.00  0.00    -0.160 A  
HETATM   23  C   UNL     1      -7.179  12.659  68.878  1.00  0.00    -0.045 A  
HETATM   24  C   UNL     1      -6.422  11.601  68.373  1.00  0.00    -0.052 A  
HETATM   25  C   UNL     1      -6.721  11.068  67.119  1.00  0.00    -0.096 A  
ENDBRANCH  18  20
ENDBRANCH  15  18
ENDBRANCH  13  15
ENDBRANCH   8   9
ENDBRANCH   4   7
TORSDOF 5
ENDMDL
MODEL      260
REMARK 921   NORMALIZED FREE ENERGY PREDICTED BY IDOCK:   -3.91 KCAL/MOL
REMARK 922        TOTAL FREE ENERGY PREDICTED BY IDOCK:   -5.52 KCAL/MOL
REMARK 923 INTER-LIGAND FREE ENERGY PREDICTED BY IDOCK:   -4.81 KCAL/MOL
REMARK 924 INTRA-LIGAND FREE ENERGY PREDICTED BY IDOCK:   -0.71 KCAL/MOL
REMARK 927      BINDING AFFINITY PREDICTED BY RF-SCORE:    0.00 PKD
ROOT
HETATM    1  O   UNL     1     -13.308  10.838  71.377  1.00  0.00    -0.310 OA 
HETATM    2  N   UNL     1     -13.596  11.981  72.139  1.00  0.00    -0.452 N  
HETATM    3  H   UNL     1     -13.685   9.991  71.586  1.00  0.00     0.000 HD 
HETATM    4  C   UNL     1     -13.055  13.197  71.838  1.00  0.00    -0.385 C  
HETATM    5  H   UNL     1     -14.226  11.901  72.937  1.00  0.00     0.000 HD 
HETATM    6  O   UNL     1     -13.260  14.175  72.550  1.00  0.00    -0.435 OA 
ENDROOT
BRANCH   4   7
HETATM    7  C   UNL     1     -12.218  13.264  70.616  1.00  0.00    -0.417 C  
HETATM    8  C   UNL     1     -11.670  14.424  70.224  1.00  0.00    -0.355 C  
BRANCH   8   9
HETATM    9  C   UNL     1     -10.846  14.489  69.017  1.00  0.00    -0.265 A  
HETATM   10  C   UNL     1      -9.479  14.193  69.089  1.00  0.00     0.162 A  
HETATM   11  C   UNL     1      -8.670  14.312  67.956  1.00  0.00    -0.177 A  
HETATM   12  C   UNL     1      -9.219  14.735  66.745  1.00  0.00    -0.282 A  
HETATM   13  C   UNL     1     -10.587  15.018  66.667  1.00  0.00    -0.301 A  
HETATM   14  C   UNL     1     -11.402  14.903  67.801  1.00  0.00    -0.341 A  
BRANCH  13  15
HETATM   15  S   UNL     1     -11.265  15.668  65.152  1.00  0.00    -0.234 S  
HETATM   16  O   UNL     1     -12.635  15.212  65.049  1.00  0.00     0.017 OA 
HETATM   17  O   UNL     1     -10.307  15.396  64.100  1.00  0.00     0.422 OA 
BRANCH  15  18
HETATM   18  N   UNL     1     -11.248  17.339  65.368  1.00  0.00     0.224 N  
HETATM   19  H   UNL     1     -11.843  17.937  64.796  1.00  0.00     0.000 HD 
BRANCH  18  20
HETATM   20  C   UNL     1     -10.400  17.906  66.352  1.00  0.00    -0.365 A  
HETATM   21  C   UNL     1      -9.070  18.188  66.049  1.00  0.00    -0.003 A  
HETATM   22  C   UNL     1      -8.221  18.678  67.043  1.00  0.00    -0.259 A  
HETATM   23  C   UNL     1      -8.710  18.902  68.331  1.00  0.00    -0.380 A  
HETATM   24  C   UNL     1     -10.047  18.635  68.627  1.00  0.00    -0.412 A  
HETATM   25  C   UNL     1     -10.891  18.127  67.639  1.00  0.00    -0.260 A  
ENDBRANCH  18  20
ENDBRANCH  15  18
ENDBRANCH  13  15
ENDBRANCH   8   9
ENDBRANCH   4   7
TORSDOF 5
ENDMDL
MODEL      261
REMARK 921   NORMALIZED FREE ENERGY PREDICTED BY IDOCK:   -3.91 KCAL/MOL
REMARK 922        TOTAL FREE ENERGY PREDICTED BY IDOCK:   -5.52 KCAL/MOL
REMARK 923 INTER-LIGAND FREE ENERGY PREDICTED BY IDOCK:   -4.96 KCAL/MOL
REMARK 924 INTRA-LIGAND FREE ENERGY PREDICTED BY IDOCK:   -0.56 KCAL/MOL
REMARK 927      BINDING AFFINITY PREDICTED BY RF-SCORE:    0.00 PKD
ROOT
HETATM    1  O   UNL     1     -11.781  17.259  73.638  1.00  0.00    -0.058 OA 
HETATM    2  N   UNL     1     -12.673  16.184  73.778  1.00  0.00    -0.587 N  
HETATM    3  H   UNL     1     -11.652  17.894  74.333  1.00  0.00     0.000 HD 
HETATM    4  C   UNL     1     -12.858  15.273  72.780  1.00  0.00    -0.413 C  
HETATM    5  H   UNL     1     -13.195  16.081  74.649  1.00  0.00     0.000 HD 
HETATM    6  O   UNL     1     -13.689  14.376  72.888  1.00  0.00    -0.598 OA 
ENDROOT
BRANCH   4   7
HETATM    7  C   UNL     1     -12.006  15.427  71.577  1.00  0.00    -0.443 C  
HETATM    8  C   UNL     1     -12.477  15.123  70.359  1.00  0.00    -0.416 C  
BRANCH   8   9
HETATM    9  C   UNL     1     -11.635  15.276  69.173  1.00  0.00    -0.349 A  
HETATM   10  C   UNL     1     -12.178  15.064  67.900  1.00  0.00     0.150 A  
HETATM   11  C   UNL     1     -11.367  15.146  66.764  1.00  0.00    -0.248 A  
HETATM   12  C   UNL     1     -10.008  15.432  66.893  1.00  0.00    -0.247 A  
HETATM   13  C   UNL     1      -9.466  15.658  68.163  1.00  0.00    -0.195 A  
HETATM   14  C   UNL     1     -10.273  15.574  69.305  1.00  0.00    -0.252 A  
BRANCH  13  15
HETATM   15  S   UNL     1      -7.710  15.908  68.337  1.00  0.00    -0.147 S  
HETATM   16  O   UNL     1      -7.508  17.181  68.996  1.00  0.00    -0.245 OA 
HETATM   17  O   UNL     1      -7.106  15.631  67.050  1.00  0.00    -0.196 OA 
BRANCH  15  18
HETATM   18  N   UNL     1      -7.208  14.665  69.357  1.00  0.00    -0.190 N  
HETATM   19  H   UNL     1      -7.159  14.816  70.364  1.00  0.00     0.000 HD 
BRANCH  18  20
HETATM   20  C   UNL     1      -6.856  13.409  68.804  1.00  0.00    -0.101 A  
HETATM   21  C   UNL     1      -5.557  12.924  68.947  1.00  0.00    -0.072 A  
HETATM   22  C   UNL     1      -5.197  11.720  68.339  1.00  0.00    -0.042 A  
HETATM   23  C   UNL     1      -6.139  10.999  67.605  1.00  0.00    -0.048 A  
HETATM   24  C   UNL     1      -7.443  11.479  67.478  1.00  0.00    -0.116 A  
HETATM   25  C   UNL     1      -7.799  12.690  68.070  1.00  0.00    -0.149 A  
ENDBRANCH  18  20
ENDBRANCH  15  18
ENDBRANCH  13  15
ENDBRANCH   8   9
ENDBRANCH   4   7
TORSDOF 5
ENDMDL
MODEL      262
REMARK 921   NORMALIZED FREE ENERGY PREDICTED BY IDOCK:   -3.90 KCAL/MOL
REMARK 922        TOTAL FREE ENERGY PREDICTED BY IDOCK:   -5.51 KCAL/MOL
REMARK 923 INTER-LIGAND FREE ENERGY PREDICTED BY IDOCK:   -4.53 KCAL/MOL
REMARK 924 INTRA-LIGAND FREE ENERGY PREDICTED BY IDOCK:   -0.98 KCAL/MOL
REMARK 927      BINDING AFFINITY PREDICTED BY RF-SCORE:    0.00 PKD
ROOT
HETATM    1  O   UNL     1      -6.875   9.916  65.407  1.00  0.00    -0.098 OA 
HETATM    2  N   UNL     1      -6.384  11.216  65.600  1.00  0.00    -0.367 N  
HETATM    3  H   UNL     1      -6.978   9.545  64.538  1.00  0.00     0.000 HD 
HETATM    4  C   UNL     1      -6.236  11.749  66.848  1.00  0.00    -0.134 C  
HETATM    5  H   UNL     1      -6.131  11.778  64.787  1.00  0.00     0.000 HD 
HETATM    6  O   UNL     1      -5.870  12.909  67.002  1.00  0.00    -0.306 OA 
ENDROOT
BRANCH   4   7
HETATM    7  C   UNL     1      -6.537  10.851  67.990  1.00  0.00    -0.062 C  
HETATM    8  C   UNL     1      -7.674  10.988  68.687  1.00  0.00    -0.132 C  
BRANCH   8   9
HETATM    9  C   UNL     1      -7.969  10.103  69.813  1.00  0.00    -0.172 A  
HETATM   10  C   UNL     1      -6.922   9.559  70.567  1.00  0.00    -0.124 A  
HETATM   11  C   UNL     1      -7.190   8.663  71.606  1.00  0.00    -0.109 A  
HETATM   12  C   UNL     1      -8.506   8.298  71.893  1.00  0.00    -0.214 A  
HETATM   13  C   UNL     1      -9.555   8.849  71.150  1.00  0.00    -0.272 A  
HETATM   14  C   UNL     1      -9.292   9.746  70.106  1.00  0.00    -0.261 A  
BRANCH  13  15
HETATM   15  S   UNL     1     -11.224   8.295  71.439  1.00  0.00    -0.268 S  
HETATM   16  O   UNL     1     -12.116   9.188  70.732  1.00  0.00    -0.254 OA 
HETATM   17  O   UNL     1     -11.363   8.076  72.865  1.00  0.00    -0.408 OA 
BRANCH  15  18
HETATM   18  N   UNL     1     -11.287   6.767  70.733  1.00  0.00    -0.303 N  
HETATM   19  H   UNL     1     -11.782   6.007  71.197  1.00  0.00     0.000 HD 
BRANCH  18  20
HETATM   20  C   UNL     1     -10.645   6.547  69.488  1.00  0.00    -0.246 A  
HETATM   21  C   UNL     1      -9.416   5.893  69.442  1.00  0.00    -0.157 A  
HETATM   22  C   UNL     1      -8.755   5.745  68.221  1.00  0.00    -0.111 A  
HETATM   23  C   UNL     1      -9.333   6.234  67.050  1.00  0.00    -0.135 A  
HETATM   24  C   UNL     1     -10.573   6.874  67.097  1.00  0.00    -0.408 A  
HETATM   25  C   UNL     1     -11.225   7.039  68.318  1.00  0.00     0.014 A  
ENDBRANCH  18  20
ENDBRANCH  15  18
ENDBRANCH  13  15
ENDBRANCH   8   9
ENDBRANCH   4   7
TORSDOF 5
ENDMDL
MODEL      263
REMARK 921   NORMALIZED FREE ENERGY PREDICTED BY IDOCK:   -3.88 KCAL/MOL
REMARK 922        TOTAL FREE ENERGY PREDICTED BY IDOCK:   -5.49 KCAL/MOL
REMARK 923 INTER-LIGAND FREE ENERGY PREDICTED BY IDOCK:   -4.95 KCAL/MOL
REMARK 924 INTRA-LIGAND FREE ENERGY PREDICTED BY IDOCK:   -0.54 KCAL/MOL
REMARK 927      BINDING AFFINITY PREDICTED BY RF-SCORE:    0.00 PKD
ROOT
HETATM    1  O   UNL     1      -8.559   8.408  63.971  1.00  0.00    -0.386 OA 
HETATM    2  N   UNL     1      -8.937   9.612  63.356  1.00  0.00    -0.305 N  
HETATM    3  H   UNL     1      -8.138   7.709  63.484  1.00  0.00     0.000 HD 
HETATM    4  C   UNL     1      -9.541  10.615  64.057  1.00  0.00    -0.299 C  
HETATM    5  H   UNL     1      -8.756   9.740  62.361  1.00  0.00     0.000 HD 
HETATM    6  O   UNL     1      -9.927  11.635  63.496  1.00  0.00    -0.337 OA 
ENDROOT
BRANCH   4   7
HETATM    7  C   UNL     1      -9.695  10.402  65.517  1.00  0.00    -0.307 C  
HETATM    8  C   UNL     1     -10.865  10.646  66.124  1.00  0.00    -0.069 C  
BRANCH   8   9
HETATM    9  C   UNL     1     -11.016  10.436  67.564  1.00  0.00    -0.358 A  
HETATM   10  C   UNL     1     -11.682  11.390  68.342  1.00  0.00    -0.373 A  
HETATM   11  C   UNL     1     -11.778  11.231  69.727  1.00  0.00    -0.422 A  
HETATM   12  C   UNL     1     -11.202  10.120  70.345  1.00  0.00    -0.402 A  
HETATM   13  C   UNL     1     -10.548   9.158  69.569  1.00  0.00    -0.223 A  
HETATM   14  C   UNL     1     -10.446   9.315  68.180  1.00  0.00    -0.263 A  
BRANCH  13  15
HETATM   15  S   UNL     1      -9.713   7.802  70.369  1.00  0.00    -0.179 S  
HETATM   16  O   UNL     1     -10.432   7.496  71.587  1.00  0.00    -0.200 OA 
HETATM   17  O   UNL     1      -8.300   8.125  70.399  1.00  0.00    -0.114 OA 
BRANCH  15  18
HETATM   18  N   UNL     1      -9.868   6.518  69.290  1.00  0.00    -0.147 N  
HETATM   19  H   UNL     1     -10.535   6.571  68.521  1.00  0.00     0.000 HD 
BRANCH  18  20
HETATM   20  C   UNL     1      -9.063   5.364  69.458  1.00  0.00    -0.112 A  
HETATM   21  C   UNL     1      -8.246   4.925  68.418  1.00  0.00    -0.084 A  
HETATM   22  C   UNL     1      -7.512   3.747  68.564  1.00  0.00    -0.054 A  
HETATM   23  C   UNL     1      -7.582   3.023  69.755  1.00  0.00    -0.044 A  
HETATM   24  C   UNL     1      -8.387   3.474  70.801  1.00  0.00    -0.090 A  
HETATM   25  C   UNL     1      -9.136   4.642  70.649  1.00  0.00    -0.181 A  
ENDBRANCH  18  20
ENDBRANCH  15  18
ENDBRANCH  13  15
ENDBRANCH   8   9
ENDBRANCH   4   7
TORSDOF 5
ENDMDL
MODEL      264
REMARK 921   NORMALIZED FREE ENERGY PREDICTED BY IDOCK:   -3.88 KCAL/MOL
REMARK 922        TOTAL FREE ENERGY PREDICTED BY IDOCK:   -5.48 KCAL/MOL
REMARK 923 INTER-LIGAND FREE ENERGY PREDICTED BY IDOCK:   -4.97 KCAL/MOL
REMARK 924 INTRA-LIGAND FREE ENERGY PREDICTED BY IDOCK:   -0.51 KCAL/MOL
REMARK 927      BINDING AFFINITY PREDICTED BY RF-SCORE:    0.00 PKD
ROOT
HETATM    1  O   UNL     1     -11.147  15.223  66.204  1.00  0.00    -0.336 OA 
HETATM    2  N   UNL     1     -12.004  14.634  65.261  1.00  0.00    -0.335 N  
HETATM    3  H   UNL     1     -10.965  16.156  66.199  1.00  0.00     0.000 HD 
HETATM    4  C   UNL     1     -12.266  13.295  65.269  1.00  0.00    -0.448 C  
HETATM    5  H   UNL     1     -12.443  15.222  64.553  1.00  0.00     0.000 HD 
HETATM    6  O   UNL     1     -12.963  12.782  64.400  1.00  0.00    -0.723 OA 
ENDROOT
BRANCH   4   7
HETATM    7  C   UNL     1     -11.668  12.511  66.377  1.00  0.00    -0.458 C  
HETATM    8  C   UNL     1     -11.033  11.356  66.134  1.00  0.00    -0.294 C  
BRANCH   8   9
HETATM    9  C   UNL     1     -10.444  10.584  67.227  1.00  0.00    -0.300 A  
HETATM   10  C   UNL     1      -9.630  11.220  68.172  1.00  0.00    -0.186 A  
HETATM   11  C   UNL     1      -9.012  10.481  69.184  1.00  0.00    -0.171 A  
HETATM   12  C   UNL     1      -9.197   9.100  69.256  1.00  0.00    -0.146 A  
HETATM   13  C   UNL     1     -10.021   8.464  68.322  1.00  0.00    -0.187 A  
HETATM   14  C   UNL     1     -10.640   9.199  67.302  1.00  0.00    -0.303 A  
BRANCH  13  15
HETATM   15  S   UNL     1     -10.164   6.687  68.342  1.00  0.00    -0.185 S  
HETATM   16  O   UNL     1     -11.190   6.315  67.392  1.00  0.00    -0.328 OA 
HETATM   17  O   UNL     1     -10.250   6.279  69.730  1.00  0.00    -0.171 OA 
BRANCH  15  18
HETATM   18  N   UNL     1      -8.669   6.139  67.794  1.00  0.00    -0.113 N  
HETATM   19  H   UNL     1      -8.449   6.157  66.799  1.00  0.00     0.000 HD 
BRANCH  18  20
HETATM   20  C   UNL     1      -7.719   5.653  68.727  1.00  0.00    -0.089 A  
HETATM   21  C   UNL     1      -7.725   4.309  69.093  1.00  0.00    -0.054 A  
HETATM   22  C   UNL     1      -6.834   3.852  70.066  1.00  0.00    -0.034 A  
HETATM   23  C   UNL     1      -5.931   4.736  70.656  1.00  0.00    -0.018 A  
HETATM   24  C   UNL     1      -5.916   6.079  70.276  1.00  0.00    -0.025 A  
HETATM   25  C   UNL     1      -6.818   6.540  69.316  1.00  0.00    -0.065 A  
ENDBRANCH  18  20
ENDBRANCH  15  18
ENDBRANCH  13  15
ENDBRANCH   8   9
ENDBRANCH   4   7
TORSDOF 5
ENDMDL
MODEL      265
REMARK 921   NORMALIZED FREE ENERGY PREDICTED BY IDOCK:   -3.88 KCAL/MOL
REMARK 922        TOTAL FREE ENERGY PREDICTED BY IDOCK:   -5.48 KCAL/MOL
REMARK 923 INTER-LIGAND FREE ENERGY PREDICTED BY IDOCK:   -4.62 KCAL/MOL
REMARK 924 INTRA-LIGAND FREE ENERGY PREDICTED BY IDOCK:   -0.87 KCAL/MOL
REMARK 927      BINDING AFFINITY PREDICTED BY RF-SCORE:    0.00 PKD
ROOT
HETATM    1  O   UNL     1     -10.378  13.132  69.021  1.00  0.00    -0.422 OA 
HETATM    2  N   UNL     1      -9.156  13.474  68.420  1.00  0.00    -0.274 N  
HETATM    3  H   UNL     1     -11.083  13.763  69.114  1.00  0.00     0.000 HD 
HETATM    4  C   UNL     1      -8.145  12.568  68.288  1.00  0.00    -0.165 C  
HETATM    5  H   UNL     1      -9.022  14.424  68.073  1.00  0.00     0.000 HD 
HETATM    6  O   UNL     1      -7.059  12.896  67.822  1.00  0.00    -0.106 OA 
ENDROOT
BRANCH   4   7
HETATM    7  C   UNL     1      -8.436  11.183  68.731  1.00  0.00    -0.134 C  
HETATM    8  C   UNL     1      -7.661  10.579  69.644  1.00  0.00    -0.134 C  
BRANCH   8   9
HETATM    9  C   UNL     1      -7.948   9.213  70.080  1.00  0.00    -0.113 A  
HETATM   10  C   UNL     1      -6.903   8.293  70.229  1.00  0.00    -0.036 A  
HETATM   11  C   UNL     1      -7.172   6.969  70.584  1.00  0.00    -0.068 A  
HETATM   12  C   UNL     1      -8.488   6.552  70.786  1.00  0.00    -0.134 A  
HETATM   13  C   UNL     1      -9.533   7.472  70.651  1.00  0.00    -0.164 A  
HETATM   14  C   UNL     1      -9.269   8.800  70.292  1.00  0.00    -0.191 A  
BRANCH  13  15
HETATM   15  S   UNL     1     -11.220   6.913  70.794  1.00  0.00    -0.313 S  
HETATM   16  O   UNL     1     -12.011   8.018  71.292  1.00  0.00    -0.292 OA 
HETATM   17  O   UNL     1     -11.194   5.642  71.490  1.00  0.00    -0.220 OA 
BRANCH  15  18
HETATM   18  N   UNL     1     -11.681   6.562  69.213  1.00  0.00    -0.606 N  
HETATM   19  H   UNL     1     -12.611   6.193  69.019  1.00  0.00     0.000 HD 
BRANCH  18  20
HETATM   20  C   UNL     1     -10.766   6.784  68.154  1.00  0.00    -0.236 A  
HETATM   21  C   UNL     1      -9.852   5.792  67.802  1.00  0.00    -0.144 A  
HETATM   22  C   UNL     1      -8.905   6.044  66.807  1.00  0.00    -0.120 A  
HETATM   23  C   UNL     1      -8.887   7.277  66.156  1.00  0.00    -0.181 A  
HETATM   24  C   UNL     1      -9.814   8.262  66.499  1.00  0.00    -0.323 A  
HETATM   25  C   UNL     1     -10.749   8.019  67.505  1.00  0.00    -0.238 A  
ENDBRANCH  18  20
ENDBRANCH  15  18
ENDBRANCH  13  15
ENDBRANCH   8   9
ENDBRANCH   4   7
TORSDOF 5
ENDMDL
MODEL      266
REMARK 921   NORMALIZED FREE ENERGY PREDICTED BY IDOCK:   -3.86 KCAL/MOL
REMARK 922        TOTAL FREE ENERGY PREDICTED BY IDOCK:   -5.45 KCAL/MOL
REMARK 923 INTER-LIGAND FREE ENERGY PREDICTED BY IDOCK:   -4.78 KCAL/MOL
REMARK 924 INTRA-LIGAND FREE ENERGY PREDICTED BY IDOCK:   -0.67 KCAL/MOL
REMARK 927      BINDING AFFINITY PREDICTED BY RF-SCORE:    0.00 PKD
ROOT
HETATM    1  O   UNL     1     -11.953   9.868  71.318  1.00  0.00    -0.344 OA 
HETATM    2  N   UNL     1     -12.385  11.163  70.990  1.00  0.00    -0.385 N  
HETATM    3  H   UNL     1     -12.309   9.396  72.062  1.00  0.00     0.000 HD 
HETATM    4  C   UNL     1     -11.874  11.840  69.922  1.00  0.00    -0.348 C  
HETATM    5  H   UNL     1     -13.100  11.609  71.566  1.00  0.00     0.000 HD 
HETATM    6  O   UNL     1     -12.211  12.995  69.685  1.00  0.00    -0.255 OA 
ENDROOT
BRANCH   4   7
HETATM    7  C   UNL     1     -10.905  11.103  69.075  1.00  0.00    -0.276 C  
HETATM    8  C   UNL     1     -11.290  10.550  67.916  1.00  0.00    -0.297 C  
BRANCH   8   9
HETATM    9  C   UNL     1     -10.334   9.823  67.082  1.00  0.00    -0.311 A  
HETATM   10  C   UNL     1      -9.722  10.466  65.999  1.00  0.00    -0.265 A  
HETATM   11  C   UNL     1      -8.854   9.764  65.158  1.00  0.00    -0.213 A  
HETATM   12  C   UNL     1      -8.597   8.412  65.389  1.00  0.00    -0.193 A  
HETATM   13  C   UNL     1      -9.196   7.770  66.478  1.00  0.00    -0.184 A  
HETATM   14  C   UNL     1     -10.070   8.469  67.322  1.00  0.00    -0.317 A  
BRANCH  13  15
HETATM   15  S   UNL     1      -8.961   6.018  66.704  1.00  0.00    -0.131 S  
HETATM   16  O   UNL     1      -7.604   5.810  67.163  1.00  0.00    -0.096 OA 
HETATM   17  O   UNL     1      -9.454   5.360  65.511  1.00  0.00    -0.109 OA 
BRANCH  15  18
HETATM   18  N   UNL     1     -10.035   5.605  67.934  1.00  0.00    -0.134 N  
HETATM   19  H   UNL     1     -11.022   5.851  67.858  1.00  0.00     0.000 HD 
BRANCH  18  20
HETATM   20  C   UNL     1      -9.557   4.914  69.075  1.00  0.00    -0.157 A  
HETATM   21  C   UNL     1      -9.135   5.627  70.196  1.00  0.00    -0.159 A  
HETATM   22  C   UNL     1      -8.597   4.944  71.289  1.00  0.00    -0.132 A  
HETATM   23  C   UNL     1      -8.500   3.552  71.264  1.00  0.00    -0.095 A  
HETATM   24  C   UNL     1      -8.939   2.841  70.147  1.00  0.00    -0.169 A  
HETATM   25  C   UNL     1      -9.460   3.523  69.047  1.00  0.00    -0.213 A  
ENDBRANCH  18  20
ENDBRANCH  15  18
ENDBRANCH  13  15
ENDBRANCH   8   9
ENDBRANCH   4   7
TORSDOF 5
ENDMDL
MODEL      267
REMARK 921   NORMALIZED FREE ENERGY PREDICTED BY IDOCK:   -3.85 KCAL/MOL
REMARK 922        TOTAL FREE ENERGY PREDICTED BY IDOCK:   -5.44 KCAL/MOL
REMARK 923 INTER-LIGAND FREE ENERGY PREDICTED BY IDOCK:   -5.37 KCAL/MOL
REMARK 924 INTRA-LIGAND FREE ENERGY PREDICTED BY IDOCK:   -0.08 KCAL/MOL
REMARK 927      BINDING AFFINITY PREDICTED BY RF-SCORE:    0.00 PKD
ROOT
HETATM    1  O   UNL     1      -6.751   9.929  64.508  1.00  0.00    -0.113 OA 
HETATM    2  N   UNL     1      -7.460   9.369  63.434  1.00  0.00    -0.103 N  
HETATM    3  H   UNL     1      -5.823   9.764  64.634  1.00  0.00     0.000 HD 
HETATM    4  C   UNL     1      -8.792   9.606  63.254  1.00  0.00    -0.238 C  
HETATM    5  H   UNL     1      -6.968   8.770  62.771  1.00  0.00     0.000 HD 
HETATM    6  O   UNL     1      -9.416   9.058  62.351  1.00  0.00     0.248 OA 
ENDROOT
BRANCH   4   7
HETATM    7  C   UNL     1      -9.428  10.555  64.200  1.00  0.00    -0.342 C  
HETATM    8  C   UNL     1     -10.164  11.581  63.750  1.00  0.00    -0.429 C  
BRANCH   8   9
HETATM    9  C   UNL     1     -10.790  12.516  64.683  1.00  0.00    -0.343 A  
HETATM   10  C   UNL     1     -12.149  12.388  64.994  1.00  0.00    -0.468 A  
HETATM   11  C   UNL     1     -12.772  13.313  65.836  1.00  0.00    -0.220 A  
HETATM   12  C   UNL     1     -12.044  14.377  66.368  1.00  0.00    -0.390 A  
HETATM   13  C   UNL     1     -10.683  14.500  66.071  1.00  0.00    -0.305 A  
HETATM   14  C   UNL     1     -10.053  13.578  65.224  1.00  0.00    -0.277 A  
BRANCH  13  15
HETATM   15  S   UNL     1      -9.781  15.922  66.654  1.00  0.00    -0.270 S  
HETATM   16  O   UNL     1     -10.692  16.737  67.429  1.00  0.00    -0.314 OA 
HETATM   17  O   UNL     1      -9.068  16.475  65.520  1.00  0.00    -0.404 OA 
BRANCH  15  18
HETATM   18  N   UNL     1      -8.600  15.282  67.671  1.00  0.00    -0.163 N  
HETATM   19  H   UNL     1      -8.521  14.274  67.796  1.00  0.00     0.000 HD 
BRANCH  18  20
HETATM   20  C   UNL     1      -7.718  16.157  68.353  1.00  0.00    -0.154 A  
HETATM   21  C   UNL     1      -7.642  17.499  67.984  1.00  0.00    -0.220 A  
HETATM   22  C   UNL     1      -6.719  18.338  68.610  1.00  0.00    -0.251 A  
HETATM   23  C   UNL     1      -5.889  17.839  69.614  1.00  0.00    -0.245 A  
HETATM   24  C   UNL     1      -5.979  16.499  69.993  1.00  0.00    -0.179 A  
HETATM   25  C   UNL     1      -6.888  15.655  69.355  1.00  0.00    -0.186 A  
ENDBRANCH  18  20
ENDBRANCH  15  18
ENDBRANCH  13  15
ENDBRANCH   8   9
ENDBRANCH   4   7
TORSDOF 5
ENDMDL
MODEL      268
REMARK 921   NORMALIZED FREE ENERGY PREDICTED BY IDOCK:   -3.84 KCAL/MOL
REMARK 922        TOTAL FREE ENERGY PREDICTED BY IDOCK:   -5.44 KCAL/MOL
REMARK 923 INTER-LIGAND FREE ENERGY PREDICTED BY IDOCK:   -4.85 KCAL/MOL
REMARK 924 INTRA-LIGAND FREE ENERGY PREDICTED BY IDOCK:   -0.58 KCAL/MOL
REMARK 927      BINDING AFFINITY PREDICTED BY RF-SCORE:    0.00 PKD
ROOT
HETATM    1  O   UNL     1     -12.113  16.938  74.402  1.00  0.00    -0.515 OA 
HETATM    2  N   UNL     1     -13.132  16.034  74.062  1.00  0.00    -0.925 N  
HETATM    3  H   UNL     1     -12.022  17.279  75.284  1.00  0.00     0.000 HD 
HETATM    4  C   UNL     1     -13.263  15.545  72.795  1.00  0.00    -0.508 C  
HETATM    5  H   UNL     1     -13.792  15.736  74.780  1.00  0.00     0.000 HD 
HETATM    6  O   UNL     1     -14.197  14.810  72.493  1.00  0.00    -0.435 OA 
ENDROOT
BRANCH   4   7
HETATM    7  C   UNL     1     -12.220  15.949  71.820  1.00  0.00    -0.551 C  
HETATM    8  C   UNL     1     -12.292  15.559  70.539  1.00  0.00    -0.461 C  
BRANCH   8   9
HETATM    9  C   UNL     1     -11.263  15.956  69.579  1.00  0.00    -0.325 A  
HETATM   10  C   UNL     1     -10.745  17.257  69.610  1.00  0.00     0.187 A  
HETATM   11  C   UNL     1      -9.807  17.667  68.659  1.00  0.00    -0.347 A  
HETATM   12  C   UNL     1      -9.385  16.783  67.665  1.00  0.00    -0.228 A  
HETATM   13  C   UNL     1      -9.891  15.479  67.640  1.00  0.00    -0.213 A  
HETATM   14  C   UNL     1     -10.834  15.063  68.589  1.00  0.00    -0.249 A  
BRANCH  13  15
HETATM   15  S   UNL     1      -9.443  14.388  66.304  1.00  0.00    -0.233 S  
HETATM   16  O   UNL     1      -9.666  15.095  65.061  1.00  0.00    -0.163 OA 
HETATM   17  O   UNL     1     -10.078  13.111  66.559  1.00  0.00    -0.266 OA 
BRANCH  15  18
HETATM   18  N   UNL     1      -7.791  14.128  66.510  1.00  0.00     0.186 N  
HETATM   19  H   UNL     1      -7.207  13.881  65.713  1.00  0.00     0.000 HD 
BRANCH  18  20
HETATM   20  C   UNL     1      -7.221  14.256  67.801  1.00  0.00    -0.175 A  
HETATM   21  C   UNL     1      -7.631  13.412  68.832  1.00  0.00     0.018 A  
HETATM   22  C   UNL     1      -7.119  13.591  70.118  1.00  0.00     0.771 A  
HETATM   23  C   UNL     1      -6.187  14.600  70.366  1.00  0.00    -0.168 A  
HETATM   24  C   UNL     1      -5.767  15.433  69.328  1.00  0.00    -0.099 A  
HETATM   25  C   UNL     1      -6.291  15.267  68.046  1.00  0.00    -0.155 A  
ENDBRANCH  18  20
ENDBRANCH  15  18
ENDBRANCH  13  15
ENDBRANCH   8   9
ENDBRANCH   4   7
TORSDOF 5
ENDMDL
MODEL      269
REMARK 921   NORMALIZED FREE ENERGY PREDICTED BY IDOCK:   -3.84 KCAL/MOL
REMARK 922        TOTAL FREE ENERGY PREDICTED BY IDOCK:   -5.43 KCAL/MOL
REMARK 923 INTER-LIGAND FREE ENERGY PREDICTED BY IDOCK:   -4.85 KCAL/MOL
REMARK 924 INTRA-LIGAND FREE ENERGY PREDICTED BY IDOCK:   -0.58 KCAL/MOL
REMARK 927      BINDING AFFINITY PREDICTED BY RF-SCORE:    0.00 PKD
ROOT
HETATM    1  O   UNL     1      -6.647  14.027  70.902  1.00  0.00    -0.416 OA 
HETATM    2  N   UNL     1      -6.008  12.778  70.885  1.00  0.00    -0.275 N  
HETATM    3  H   UNL     1      -6.430  14.691  71.546  1.00  0.00     0.000 HD 
HETATM    4  C   UNL     1      -6.321  11.825  69.959  1.00  0.00    -0.092 C  
HETATM    5  H   UNL     1      -5.293  12.576  71.583  1.00  0.00     0.000 HD 
HETATM    6  O   UNL     1      -5.805  10.713  69.997  1.00  0.00    -0.056 OA 
ENDROOT
BRANCH   4   7
HETATM    7  C   UNL     1      -7.305  12.212  68.920  1.00  0.00    -0.054 C  
HETATM    8  C   UNL     1      -8.206  11.328  68.467  1.00  0.00    -0.150 C  
BRANCH   8   9
HETATM    9  C   UNL     1      -9.175  11.711  67.441  1.00  0.00    -0.168 A  
HETATM   10  C   UNL     1      -9.474  10.826  66.398  1.00  0.00    -0.200 A  
HETATM   11  C   UNL     1     -10.352  11.205  65.378  1.00  0.00    -0.331 A  
HETATM   12  C   UNL     1     -10.931  12.474  65.389  1.00  0.00    -0.329 A  
HETATM   13  C   UNL     1     -10.645  13.355  66.437  1.00  0.00    -0.285 A  
HETATM   14  C   UNL     1      -9.764  12.982  67.460  1.00  0.00    -0.206 A  
BRANCH  13  15
HETATM   15  S   UNL     1     -11.292  15.016  66.391  1.00  0.00    -0.217 S  
HETATM   16  O   UNL     1     -12.658  14.972  66.868  1.00  0.00     0.423 OA 
HETATM   17  O   UNL     1     -10.976  15.564  65.088  1.00  0.00    -0.377 OA 
BRANCH  15  18
HETATM   18  N   UNL     1     -10.343  15.867  67.491  1.00  0.00    -0.277 N  
HETATM   19  H   UNL     1     -10.330  15.598  68.474  1.00  0.00     0.000 HD 
BRANCH  18  20
HETATM   20  C   UNL     1      -9.563  16.961  67.039  1.00  0.00    -0.248 A  
HETATM   21  C   UNL     1      -8.176  16.844  66.962  1.00  0.00    -0.228 A  
HETATM   22  C   UNL     1      -7.408  17.948  66.587  1.00  0.00    -0.260 A  
HETATM   23  C   UNL     1      -8.029  19.157  66.273  1.00  0.00    -0.312 A  
HETATM   24  C   UNL     1      -9.419  19.266  66.335  1.00  0.00    -0.411 A  
HETATM   25  C   UNL     1     -10.186  18.169  66.728  1.00  0.00    -0.379 A  
ENDBRANCH  18  20
ENDBRANCH  15  18
ENDBRANCH  13  15
ENDBRANCH   8   9
ENDBRANCH   4   7
TORSDOF 5
ENDMDL
MODEL      270
REMARK 921   NORMALIZED FREE ENERGY PREDICTED BY IDOCK:   -3.80 KCAL/MOL
REMARK 922        TOTAL FREE ENERGY PREDICTED BY IDOCK:   -5.38 KCAL/MOL
REMARK 923 INTER-LIGAND FREE ENERGY PREDICTED BY IDOCK:   -5.86 KCAL/MOL
REMARK 924 INTRA-LIGAND FREE ENERGY PREDICTED BY IDOCK:    0.48 KCAL/MOL
REMARK 927      BINDING AFFINITY PREDICTED BY RF-SCORE:    0.00 PKD
ROOT
HETATM    1  O   UNL     1     -10.086   8.836  72.019  1.00  0.00    -0.313 OA 
HETATM    2  N   UNL     1     -11.459   8.645  72.243  1.00  0.00    -0.370 N  
HETATM    3  H   UNL     1      -9.436   8.236  72.366  1.00  0.00     0.000 HD 
HETATM    4  C   UNL     1     -12.393   9.506  71.744  1.00  0.00    -0.394 C  
HETATM    5  H   UNL     1     -11.766   7.843  72.792  1.00  0.00     0.000 HD 
HETATM    6  O   UNL     1     -13.584   9.367  72.002  1.00  0.00    -0.405 OA 
ENDROOT
BRANCH   4   7
HETATM    7  C   UNL     1     -11.888  10.601  70.881  1.00  0.00    -0.433 C  
HETATM    8  C   UNL     1     -11.647  10.391  69.578  1.00  0.00    -0.288 C  
BRANCH   8   9
HETATM    9  C   UNL     1     -11.148  11.472  68.729  1.00  0.00    -0.288 A  
HETATM   10  C   UNL     1     -10.507  12.575  69.306  1.00  0.00     0.187 A  
HETATM   11  C   UNL     1     -10.082  13.641  68.509  1.00  0.00    -0.219 A  
HETATM   12  C   UNL     1     -10.301  13.618  67.132  1.00  0.00    -0.250 A  
HETATM   13  C   UNL     1     -10.929  12.511  66.551  1.00  0.00    -0.266 A  
HETATM   14  C   UNL     1     -11.360  11.440  67.344  1.00  0.00    -0.359 A  
BRANCH  13  15
HETATM   15  S   UNL     1     -11.313  12.532  64.810  1.00  0.00    -0.327 S  
HETATM   16  O   UNL     1     -10.476  13.533  64.184  1.00  0.00    -0.358 OA 
HETATM   17  O   UNL     1     -12.756  12.586  64.689  1.00  0.00    -0.623 OA 
BRANCH  15  18
HETATM   18  N   UNL     1     -10.863  11.004  64.262  1.00  0.00    -0.376 N  
HETATM   19  H   UNL     1     -11.543  10.404  63.797  1.00  0.00     0.000 HD 
BRANCH  18  20
HETATM   20  C   UNL     1      -9.531  10.560  64.453  1.00  0.00    -0.281 A  
HETATM   21  C   UNL     1      -8.720  11.173  65.407  1.00  0.00    -0.061 A  
HETATM   22  C   UNL     1      -7.387  10.779  65.539  1.00  0.00     0.016 A  
HETATM   23  C   UNL     1      -6.875   9.764  64.731  1.00  0.00    -0.122 A  
HETATM   24  C   UNL     1      -7.694   9.140  63.789  1.00  0.00    -0.119 A  
HETATM   25  C   UNL     1      -9.021   9.545  63.643  1.00  0.00    -0.207 A  
ENDBRANCH  18  20
ENDBRANCH  15  18
ENDBRANCH  13  15
ENDBRANCH   8   9
ENDBRANCH   4   7
TORSDOF 5
ENDMDL
MODEL      271
REMARK 921   NORMALIZED FREE ENERGY PREDICTED BY IDOCK:   -3.79 KCAL/MOL
REMARK 922        TOTAL FREE ENERGY PREDICTED BY IDOCK:   -5.37 KCAL/MOL
REMARK 923 INTER-LIGAND FREE ENERGY PREDICTED BY IDOCK:   -4.67 KCAL/MOL
REMARK 924 INTRA-LIGAND FREE ENERGY PREDICTED BY IDOCK:   -0.70 KCAL/MOL
REMARK 927      BINDING AFFINITY PREDICTED BY RF-SCORE:    0.00 PKD
ROOT
HETATM    1  O   UNL     1     -13.697  12.639  64.647  1.00  0.00    -0.019 OA 
HETATM    2  N   UNL     1     -12.776  12.119  63.723  1.00  0.00    -0.719 N  
HETATM    3  H   UNL     1     -14.602  12.349  64.666  1.00  0.00     0.000 HD 
HETATM    4  C   UNL     1     -11.477  12.535  63.696  1.00  0.00    -0.493 C  
HETATM    5  H   UNL     1     -13.086  11.412  63.057  1.00  0.00     0.000 HD 
HETATM    6  O   UNL     1     -10.699  12.123  62.842  1.00  0.00    -0.132 OA 
ENDROOT
BRANCH   4   7
HETATM    7  C   UNL     1     -11.068  13.498  64.747  1.00  0.00    -0.368 C  
HETATM    8  C   UNL     1     -11.155  14.819  64.537  1.00  0.00    -0.260 C  
BRANCH   8   9
HETATM    9  C   UNL     1     -10.752  15.767  65.575  1.00  0.00    -0.397 A  
HETATM   10  C   UNL     1     -11.208  17.090  65.527  1.00  0.00     0.370 A  
HETATM   11  C   UNL     1     -10.780  18.021  66.478  1.00  0.00    -0.144 A  
HETATM   12  C   UNL     1      -9.886  17.638  67.478  1.00  0.00    -0.299 A  
HETATM   13  C   UNL     1      -9.438  16.314  67.536  1.00  0.00    -0.227 A  
HETATM   14  C   UNL     1      -9.862  15.378  66.584  1.00  0.00    -0.269 A  
BRANCH  13  15
HETATM   15  S   UNL     1      -8.208  15.854  68.741  1.00  0.00    -0.211 S  
HETATM   16  O   UNL     1      -7.927  17.018  69.554  1.00  0.00     0.090 OA 
HETATM   17  O   UNL     1      -7.147  15.167  68.032  1.00  0.00    -0.106 OA 
BRANCH  15  18
HETATM   18  N   UNL     1      -8.963  14.682  69.686  1.00  0.00    -0.366 N  
HETATM   19  H   UNL     1      -8.426  13.902  70.064  1.00  0.00     0.000 HD 
BRANCH  18  20
HETATM   20  C   UNL     1     -10.351  14.788  69.951  1.00  0.00     0.043 A  
HETATM   21  C   UNL     1     -11.257  13.986  69.259  1.00  0.00    -0.304 A  
HETATM   22  C   UNL     1     -12.627  14.147  69.472  1.00  0.00    -0.011 A  
HETATM   23  C   UNL     1     -13.086  15.094  70.388  1.00  0.00    -0.232 A  
HETATM   24  C   UNL     1     -12.176  15.884  71.092  1.00  0.00    -0.447 A  
HETATM   25  C   UNL     1     -10.807  15.737  70.866  1.00  0.00    -0.168 A  
ENDBRANCH  18  20
ENDBRANCH  15  18
ENDBRANCH  13  15
ENDBRANCH   8   9
ENDBRANCH   4   7
TORSDOF 5
ENDMDL
MODEL      272
REMARK 921   NORMALIZED FREE ENERGY PREDICTED BY IDOCK:   -3.68 KCAL/MOL
REMARK 922        TOTAL FREE ENERGY PREDICTED BY IDOCK:   -5.23 KCAL/MOL
REMARK 923 INTER-LIGAND FREE ENERGY PREDICTED BY IDOCK:   -4.57 KCAL/MOL
REMARK 924 INTRA-LIGAND FREE ENERGY PREDICTED BY IDOCK:   -0.66 KCAL/MOL
REMARK 927      BINDING AFFINITY PREDICTED BY RF-SCORE:    0.00 PKD
ROOT
HETATM    1  O   UNL     1     -13.290   9.251  71.152  1.00  0.00    -0.509 OA 
HETATM    2  N   UNL     1     -13.146  10.623  71.413  1.00  0.00    -0.405 N  
HETATM    3  H   UNL     1     -13.821   8.690  71.706  1.00  0.00     0.000 HD 
HETATM    4  C   UNL     1     -12.383  11.427  70.617  1.00  0.00    -0.373 C  
HETATM    5  H   UNL     1     -13.625  11.029  72.217  1.00  0.00     0.000 HD 
HETATM    6  O   UNL     1     -12.211  12.610  70.893  1.00  0.00    -0.349 OA 
ENDROOT
BRANCH   4   7
HETATM    7  C   UNL     1     -11.787  10.795  69.415  1.00  0.00    -0.370 C  
HETATM    8  C   UNL     1     -10.507  10.398  69.415  1.00  0.00    -0.261 C  
BRANCH   8   9
HETATM    9  C   UNL     1      -9.920   9.775  68.229  1.00  0.00    -0.175 A  
HETATM   10  C   UNL     1     -10.329  10.181  66.952  1.00  0.00    -0.298 A  
HETATM   11  C   UNL     1      -9.820   9.550  65.814  1.00  0.00    -0.363 A  
HETATM   12  C   UNL     1      -8.906   8.504  65.942  1.00  0.00    -0.219 A  
HETATM   13  C   UNL     1      -8.486   8.105  67.215  1.00  0.00    -0.125 A  
HETATM   14  C   UNL     1      -8.994   8.732  68.361  1.00  0.00    -0.141 A  
BRANCH  13  15
HETATM   15  S   UNL     1      -7.410   6.695  67.384  1.00  0.00    -0.097 S  
HETATM   16  O   UNL     1      -8.091   5.713  68.201  1.00  0.00    -0.096 OA 
HETATM   17  O   UNL     1      -6.101   7.194  67.755  1.00  0.00    -0.031 OA 
BRANCH  15  18
HETATM   18  N   UNL     1      -7.247   6.101  65.816  1.00  0.00    -0.073 N  
HETATM   19  H   UNL     1      -6.722   6.628  65.119  1.00  0.00     0.000 HD 
BRANCH  18  20
HETATM   20  C   UNL     1      -7.845   4.863  65.473  1.00  0.00    -0.095 A  
HETATM   21  C   UNL     1      -7.103   3.685  65.550  1.00  0.00    -0.066 A  
HETATM   22  C   UNL     1      -7.676   2.479  65.141  1.00  0.00    -0.077 A  
HETATM   23  C   UNL     1      -8.991   2.451  64.676  1.00  0.00    -0.120 A  
HETATM   24  C   UNL     1      -9.736   3.630  64.617  1.00  0.00    -0.179 A  
HETATM   25  C   UNL     1      -9.159   4.838  65.007  1.00  0.00    -0.150 A  
ENDBRANCH  18  20
ENDBRANCH  15  18
ENDBRANCH  13  15
ENDBRANCH   8   9
ENDBRANCH   4   7
TORSDOF 5
ENDMDL
MODEL      273
REMARK 921   NORMALIZED FREE ENERGY PREDICTED BY IDOCK:   -3.57 KCAL/MOL
REMARK 922        TOTAL FREE ENERGY PREDICTED BY IDOCK:   -5.09 KCAL/MOL
REMARK 923 INTER-LIGAND FREE ENERGY PREDICTED BY IDOCK:   -4.56 KCAL/MOL
REMARK 924 INTRA-LIGAND FREE ENERGY PREDICTED BY IDOCK:   -0.52 KCAL/MOL
REMARK 927      BINDING AFFINITY PREDICTED BY RF-SCORE:    0.00 PKD
ROOT
HETATM    1  O   UNL     1      -8.928   7.831  66.552  1.00  0.00    -0.145 OA 
HETATM    2  N   UNL     1      -9.167   8.178  65.212  1.00  0.00    -0.371 N  
HETATM    3  H   UNL     1      -8.800   6.928  66.818  1.00  0.00     0.000 HD 
HETATM    4  C   UNL     1      -9.350   9.475  64.830  1.00  0.00    -0.169 C  
HETATM    5  H   UNL     1      -9.204   7.442  64.507  1.00  0.00     0.000 HD 
HETATM    6  O   UNL     1      -9.625   9.759  63.669  1.00  0.00    -0.142 OA 
ENDROOT
BRANCH   4   7
HETATM    7  C   UNL     1      -9.196  10.504  65.887  1.00  0.00    -0.210 C  
HETATM    8  C   UNL     1      -8.067  11.219  65.987  1.00  0.00    -0.009 C  
BRANCH   8   9
HETATM    9  C   UNL     1      -7.916  12.233  67.030  1.00  0.00    -0.123 A  
HETATM   10  C   UNL     1      -7.278  11.907  68.234  1.00  0.00    -0.089 A  
HETATM   11  C   UNL     1      -7.184  12.849  69.261  1.00  0.00     0.172 A  
HETATM   12  C   UNL     1      -7.733  14.121  69.098  1.00  0.00     0.023 A  
HETATM   13  C   UNL     1      -8.359  14.454  67.892  1.00  0.00    -0.162 A  
HETATM   14  C   UNL     1      -8.459  13.512  66.859  1.00  0.00    -0.066 A  
BRANCH  13  15
HETATM   15  S   UNL     1      -9.161  16.037  67.726  1.00  0.00    -0.206 S  
HETATM   16  O   UNL     1      -8.789  16.589  66.441  1.00  0.00    -0.257 OA 
HETATM   17  O   UNL     1      -8.920  16.772  68.951  1.00  0.00    -0.255 OA 
BRANCH  15  18
HETATM   18  N   UNL     1     -10.806  15.675  67.724  1.00  0.00    -0.301 N  
HETATM   19  H   UNL     1     -11.431  16.120  68.395  1.00  0.00     0.000 HD 
BRANCH  18  20
HETATM   20  C   UNL     1     -11.315  14.747  66.782  1.00  0.00    -0.346 A  
HETATM   21  C   UNL     1     -11.642  13.453  67.184  1.00  0.00    -0.399 A  
HETATM   22  C   UNL     1     -12.074  12.522  66.237  1.00  0.00    -0.315 A  
HETATM   23  C   UNL     1     -12.194  12.892  64.897  1.00  0.00    -0.504 A  
HETATM   24  C   UNL     1     -11.881  14.193  64.501  1.00  0.00    -0.451 A  
HETATM   25  C   UNL     1     -11.433  15.119  65.443  1.00  0.00    -0.239 A  
ENDBRANCH  18  20
ENDBRANCH  15  18
ENDBRANCH  13  15
ENDBRANCH   8   9
ENDBRANCH   4   7
TORSDOF 5
ENDMDL
MODEL      274
REMARK 921   NORMALIZED FREE ENERGY PREDICTED BY IDOCK:   -3.50 KCAL/MOL
REMARK 922        TOTAL FREE ENERGY PREDICTED BY IDOCK:   -4.99 KCAL/MOL
REMARK 923 INTER-LIGAND FREE ENERGY PREDICTED BY IDOCK:   -4.47 KCAL/MOL
REMARK 924 INTRA-LIGAND FREE ENERGY PREDICTED BY IDOCK:   -0.52 KCAL/MOL
REMARK 927      BINDING AFFINITY PREDICTED BY RF-SCORE:    0.00 PKD
ROOT
HETATM    1  O   UNL     1      -8.373   6.418  65.906  1.00  0.00    -0.130 OA 
HETATM    2  N   UNL     1      -8.401   6.877  64.579  1.00  0.00    -0.331 N  
HETATM    3  H   UNL     1      -8.341   5.490  66.112  1.00  0.00     0.000 HD 
HETATM    4  C   UNL     1      -8.446   8.208  64.283  1.00  0.00     0.057 C  
HETATM    5  H   UNL     1      -8.386   6.199  63.818  1.00  0.00     0.000 HD 
HETATM    6  O   UNL     1      -8.538   8.595  63.123  1.00  0.00    -0.146 OA 
ENDROOT
BRANCH   4   7
HETATM    7  C   UNL     1      -8.376   9.144  65.432  1.00  0.00    -0.147 C  
HETATM    8  C   UNL     1      -7.974  10.411  65.259  1.00  0.00    -0.143 C  
BRANCH   8   9
HETATM    9  C   UNL     1      -7.905  11.332  66.393  1.00  0.00    -0.109 A  
HETATM   10  C   UNL     1      -7.111  11.015  67.502  1.00  0.00    -0.091 A  
HETATM   11  C   UNL     1      -7.086  11.858  68.617  1.00  0.00    -0.102 A  
HETATM   12  C   UNL     1      -7.858  13.019  68.634  1.00  0.00    -0.050 A  
HETATM   13  C   UNL     1      -8.642  13.346  67.522  1.00  0.00    -0.200 A  
HETATM   14  C   UNL     1      -8.674  12.503  66.403  1.00  0.00     0.046 A  
BRANCH  13  15
HETATM   15  S   UNL     1      -9.717  14.765  67.590  1.00  0.00    -0.214 S  
HETATM   16  O   UNL     1      -9.389  15.512  68.786  1.00  0.00    -0.187 OA 
HETATM   17  O   UNL     1     -11.067  14.294  67.352  1.00  0.00    -0.288 OA 
BRANCH  15  18
HETATM   18  N   UNL     1      -9.301  15.673  66.234  1.00  0.00    -0.295 N  
HETATM   19  H   UNL     1      -9.061  15.208  65.359  1.00  0.00     0.000 HD 
BRANCH  18  20
HETATM   20  C   UNL     1      -9.287  17.087  66.318  1.00  0.00    -0.248 A  
HETATM   21  C   UNL     1     -10.485  17.793  66.411  1.00  0.00    -0.297 A  
HETATM   22  C   UNL     1     -10.468  19.189  66.420  1.00  0.00    -0.548 A  
HETATM   23  C   UNL     1      -9.255  19.873  66.355  1.00  0.00    -0.470 A  
HETATM   24  C   UNL     1      -8.055  19.164  66.279  1.00  0.00    -0.308 A  
HETATM   25  C   UNL     1      -8.072  17.769  66.251  1.00  0.00    -0.269 A  
ENDBRANCH  18  20
ENDBRANCH  15  18
ENDBRANCH  13  15
ENDBRANCH   8   9
ENDBRANCH   4   7
TORSDOF 5
ENDMDL
MODEL      275
REMARK 921   NORMALIZED FREE ENERGY PREDICTED BY IDOCK:   -3.43 KCAL/MOL
REMARK 922        TOTAL FREE ENERGY PREDICTED BY IDOCK:   -4.90 KCAL/MOL
REMARK 923 INTER-LIGAND FREE ENERGY PREDICTED BY IDOCK:   -4.48 KCAL/MOL
REMARK 924 INTRA-LIGAND FREE ENERGY PREDICTED BY IDOCK:   -0.42 KCAL/MOL
REMARK 927      BINDING AFFINITY PREDICTED BY RF-SCORE:    0.00 PKD
ROOT
HETATM    1  O   UNL     1     -12.093  13.026  71.575  1.00  0.00    -0.127 OA 
HETATM    2  N   UNL     1     -12.400  14.320  72.022  1.00  0.00    -0.257 N  
HETATM    3  H   UNL     1     -12.170  12.269  72.144  1.00  0.00     0.000 HD 
HETATM    4  C   UNL     1     -12.289  15.407  71.204  1.00  0.00    -0.385 C  
HETATM    5  H   UNL     1     -12.716  14.452  72.983  1.00  0.00     0.000 HD 
HETATM    6  O   UNL     1     -12.495  16.540  71.626  1.00  0.00     0.032 OA 
ENDROOT
BRANCH   4   7
HETATM    7  C   UNL     1     -11.911  15.137  69.796  1.00  0.00    -0.364 C  
HETATM    8  C   UNL     1     -10.629  15.198  69.407  1.00  0.00    -0.258 C  
BRANCH   8   9
HETATM    9  C   UNL     1     -10.258  14.933  68.017  1.00  0.00    -0.228 A  
HETATM   10  C   UNL     1      -9.050  15.427  67.511  1.00  0.00    -0.199 A  
HETATM   11  C   UNL     1      -8.714  15.233  66.168  1.00  0.00    -0.060 A  
HETATM   12  C   UNL     1      -9.586  14.551  65.320  1.00  0.00     0.088 A  
HETATM   13  C   UNL     1     -10.789  14.045  65.826  1.00  0.00    -0.291 A  
HETATM   14  C   UNL     1     -11.132  14.239  67.170  1.00  0.00    -0.318 A  
BRANCH  13  15
HETATM   15  S   UNL     1     -11.955  13.278  64.718  1.00  0.00    -0.413 S  
HETATM   16  O   UNL     1     -11.962  14.039  63.486  1.00  0.00    -0.298 OA 
HETATM   17  O   UNL     1     -13.177  13.058  65.465  1.00  0.00    -0.409 OA 
BRANCH  15  18
HETATM   18  N   UNL     1     -11.313  11.748  64.426  1.00  0.00    -0.323 N  
HETATM   19  H   UNL     1     -11.782  11.107  63.788  1.00  0.00     0.000 HD 
BRANCH  18  20
HETATM   20  C   UNL     1     -10.115  11.359  65.075  1.00  0.00    -0.274 A  
HETATM   21  C   UNL     1      -8.940  11.207  64.340  1.00  0.00     0.021 A  
HETATM   22  C   UNL     1      -7.781  10.753  64.973  1.00  0.00     0.139 A  
HETATM   23  C   UNL     1      -7.796  10.470  66.339  1.00  0.00    -0.138 A  
HETATM   24  C   UNL     1      -8.969  10.640  67.075  1.00  0.00    -0.145 A  
HETATM   25  C   UNL     1     -10.132  11.075  66.441  1.00  0.00    -0.275 A  
ENDBRANCH  18  20
ENDBRANCH  15  18
ENDBRANCH  13  15
ENDBRANCH   8   9
ENDBRANCH   4   7
TORSDOF 5
ENDMDL
MODEL      276
REMARK 921   NORMALIZED FREE ENERGY PREDICTED BY IDOCK:   -3.32 KCAL/MOL
REMARK 922        TOTAL FREE ENERGY PREDICTED BY IDOCK:   -4.76 KCAL/MOL
REMARK 923 INTER-LIGAND FREE ENERGY PREDICTED BY IDOCK:   -4.24 KCAL/MOL
REMARK 924 INTRA-LIGAND FREE ENERGY PREDICTED BY IDOCK:   -0.52 KCAL/MOL
REMARK 927      BINDING AFFINITY PREDICTED BY RF-SCORE:    0.00 PKD
ROOT
HETATM    1  O   UNL     1      -9.648   4.774  64.050  1.00  0.00    -0.354 OA 
HETATM    2  N   UNL     1     -10.275   4.553  65.286  1.00  0.00    -0.378 N  
HETATM    3  H   UNL     1      -9.881   4.275  63.275  1.00  0.00     0.000 HD 
HETATM    4  C   UNL     1      -9.940   5.271  66.398  1.00  0.00    -0.203 C  
HETATM    5  H   UNL     1     -10.999   3.839  65.356  1.00  0.00     0.000 HD 
HETATM    6  O   UNL     1     -10.446   5.023  67.487  1.00  0.00    -0.133 OA 
ENDROOT
BRANCH   4   7
HETATM    7  C   UNL     1      -8.944   6.354  66.210  1.00  0.00    -0.166 C  
HETATM    8  C   UNL     1      -9.336   7.629  66.080  1.00  0.00    -0.141 C  
BRANCH   8   9
HETATM    9  C   UNL     1      -8.353   8.696  65.894  1.00  0.00    -0.140 A  
HETATM   10  C   UNL     1      -7.309   8.531  64.975  1.00  0.00    -0.086 A  
HETATM   11  C   UNL     1      -6.329   9.518  64.835  1.00  0.00    -0.081 A  
HETATM   12  C   UNL     1      -6.380  10.672  65.616  1.00  0.00    -0.103 A  
HETATM   13  C   UNL     1      -7.429  10.846  66.525  1.00  0.00    -0.142 A  
HETATM   14  C   UNL     1      -8.413   9.859  66.673  1.00  0.00    -0.126 A  
BRANCH  13  15
HETATM   15  S   UNL     1      -7.431  12.264  67.605  1.00  0.00    -0.146 S  
HETATM   16  O   UNL     1      -6.404  13.173  67.144  1.00  0.00    -0.257 OA 
HETATM   17  O   UNL     1      -7.431  11.767  68.967  1.00  0.00    -0.104 OA 
BRANCH  15  18
HETATM   18  N   UNL     1      -8.944  12.966  67.373  1.00  0.00    -0.190 N  
HETATM   19  H   UNL     1      -9.728  12.402  67.048  1.00  0.00     0.000 HD 
BRANCH  18  20
HETATM   20  C   UNL     1      -9.119  14.349  67.632  1.00  0.00    -0.194 A  
HETATM   21  C   UNL     1      -9.334  14.792  68.936  1.00  0.00    -0.184 A  
HETATM   22  C   UNL     1      -9.578  16.146  69.176  1.00  0.00    -0.249 A  
HETATM   23  C   UNL     1      -9.588  17.052  68.116  1.00  0.00    -0.266 A  
HETATM   24  C   UNL     1      -9.355  16.608  66.813  1.00  0.00    -0.262 A  
HETATM   25  C   UNL     1      -9.130  15.253  66.571  1.00  0.00    -0.334 A  
ENDBRANCH  18  20
ENDBRANCH  15  18
ENDBRANCH  13  15
ENDBRANCH   8   9
ENDBRANCH   4   7
TORSDOF 5
ENDMDL
MODEL      277
REMARK 921   NORMALIZED FREE ENERGY PREDICTED BY IDOCK:   -3.27 KCAL/MOL
REMARK 922        TOTAL FREE ENERGY PREDICTED BY IDOCK:   -4.69 KCAL/MOL
REMARK 923 INTER-LIGAND FREE ENERGY PREDICTED BY IDOCK:   -3.97 KCAL/MOL
REMARK 924 INTRA-LIGAND FREE ENERGY PREDICTED BY IDOCK:   -0.73 KCAL/MOL
REMARK 927      BINDING AFFINITY PREDICTED BY RF-SCORE:    0.00 PKD
ROOT
HETATM    1  O   UNL     1      -7.132  11.505  70.099  1.00  0.00    -0.409 OA 
HETATM    2  N   UNL     1      -7.692  12.400  69.173  1.00  0.00    -0.324 N  
HETATM    3  H   UNL     1      -6.374  11.737  70.623  1.00  0.00     0.000 HD 
HETATM    4  C   UNL     1      -8.780  12.065  68.422  1.00  0.00    -0.147 C  
HETATM    5  H   UNL     1      -7.274  13.323  69.060  1.00  0.00     0.000 HD 
HETATM    6  O   UNL     1      -9.219  12.829  67.568  1.00  0.00    -0.177 OA 
ENDROOT
BRANCH   4   7
HETATM    7  C   UNL     1      -9.393  10.743  68.697  1.00  0.00    -0.184 C  
HETATM    8  C   UNL     1      -8.951   9.640  68.075  1.00  0.00    -0.122 C  
BRANCH   8   9
HETATM    9  C   UNL     1      -9.557   8.337  68.347  1.00  0.00    -0.153 A  
HETATM   10  C   UNL     1     -10.358   7.724  67.377  1.00  0.00    -0.354 A  
HETATM   11  C   UNL     1     -10.992   6.508  67.649  1.00  0.00    -0.426 A  
HETATM   12  C   UNL     1     -10.836   5.901  68.895  1.00  0.00    -0.373 A  
HETATM   13  C   UNL     1     -10.025   6.505  69.862  1.00  0.00    -0.167 A  
HETATM   14  C   UNL     1      -9.390   7.725  69.596  1.00  0.00    -0.153 A  
BRANCH  13  15
HETATM   15  S   UNL     1      -9.919   5.791  71.492  1.00  0.00    -0.185 S  
HETATM   16  O   UNL     1     -11.115   5.004  71.708  1.00  0.00    -0.027 OA 
HETATM   17  O   UNL     1      -9.552   6.854  72.404  1.00  0.00    -0.153 OA 
BRANCH  15  18
HETATM   18  N   UNL     1      -8.583   4.768  71.416  1.00  0.00    -0.114 N  
HETATM   19  H   UNL     1      -7.997   4.627  72.238  1.00  0.00     0.000 HD 
BRANCH  18  20
HETATM   20  C   UNL     1      -8.280   4.105  70.200  1.00  0.00    -0.057 A  
HETATM   21  C   UNL     1      -8.920   2.908  69.880  1.00  0.00    -0.171 A  
HETATM   22  C   UNL     1      -8.564   2.223  68.717  1.00  0.00    -0.109 A  
HETATM   23  C   UNL     1      -7.585   2.744  67.870  1.00  0.00    -0.056 A  
HETATM   24  C   UNL     1      -6.959   3.951  68.186  1.00  0.00    -0.051 A  
HETATM   25  C   UNL     1      -7.300   4.627  69.357  1.00  0.00    -0.052 A  
ENDBRANCH  18  20
ENDBRANCH  15  18
ENDBRANCH  13  15
ENDBRANCH   8   9
ENDBRANCH   4   7
TORSDOF 5
ENDMDL
MODEL      278
REMARK 921   NORMALIZED FREE ENERGY PREDICTED BY IDOCK:   -3.12 KCAL/MOL
REMARK 922        TOTAL FREE ENERGY PREDICTED BY IDOCK:   -4.50 KCAL/MOL
REMARK 923 INTER-LIGAND FREE ENERGY PREDICTED BY IDOCK:   -3.88 KCAL/MOL
REMARK 924 INTRA-LIGAND FREE ENERGY PREDICTED BY IDOCK:   -0.63 KCAL/MOL
REMARK 927      BINDING AFFINITY PREDICTED BY RF-SCORE:    0.00 PKD
ROOT
HETATM    1  O   UNL     1      -9.859   9.100  71.785  1.00  0.00    -0.299 OA 
HETATM    2  N   UNL     1     -11.192   9.531  71.704  1.00  0.00    -0.366 N  
HETATM    3  H   UNL     1      -9.484   8.788  72.601  1.00  0.00     0.000 HD 
HETATM    4  C   UNL     1     -11.731   9.978  70.533  1.00  0.00    -0.318 C  
HETATM    5  H   UNL     1     -11.774   9.509  72.542  1.00  0.00     0.000 HD 
HETATM    6  O   UNL     1     -12.876  10.415  70.489  1.00  0.00    -0.341 OA 
ENDROOT
BRANCH   4   7
HETATM    7  C   UNL     1     -10.861   9.902  69.334  1.00  0.00    -0.265 C  
HETATM    8  C   UNL     1     -11.028   8.929  68.427  1.00  0.00     0.071 C  
BRANCH   8   9
HETATM    9  C   UNL     1     -10.169   8.854  67.246  1.00  0.00    -0.326 A  
HETATM   10  C   UNL     1      -9.904  10.010  66.502  1.00  0.00    -0.267 A  
HETATM   11  C   UNL     1      -9.136   9.940  65.336  1.00  0.00    -0.241 A  
HETATM   12  C   UNL     1      -8.634   8.713  64.902  1.00  0.00    -0.163 A  
HETATM   13  C   UNL     1      -8.886   7.558  65.651  1.00  0.00    -0.038 A  
HETATM   14  C   UNL     1      -9.658   7.623  66.818  1.00  0.00    -0.269 A  
BRANCH  13  15
HETATM   15  S   UNL     1      -8.344   5.976  65.035  1.00  0.00    -0.084 S  
HETATM   16  O   UNL     1      -7.446   6.216  63.925  1.00  0.00    -0.065 OA 
HETATM   17  O   UNL     1      -9.524   5.151  64.873  1.00  0.00    -0.009 OA 
BRANCH  15  18
HETATM   18  N   UNL     1      -7.483   5.300  66.315  1.00  0.00    -0.085 N  
HETATM   19  H   UNL     1      -6.558   5.654  66.555  1.00  0.00     0.000 HD 
BRANCH  18  20
HETATM   20  C   UNL     1      -8.055   4.235  67.055  1.00  0.00    -0.101 A  
HETATM   21  C   UNL     1      -8.896   4.506  68.132  1.00  0.00    -0.123 A  
HETATM   22  C   UNL     1      -9.398   3.455  68.901  1.00  0.00    -0.237 A  
HETATM   23  C   UNL     1      -9.071   2.137  68.581  1.00  0.00    -0.204 A  
HETATM   24  C   UNL     1      -8.241   1.867  67.492  1.00  0.00    -0.073 A  
HETATM   25  C   UNL     1      -7.725   2.918  66.733  1.00  0.00    -0.076 A  
ENDBRANCH  18  20
ENDBRANCH  15  18
ENDBRANCH  13  15
ENDBRANCH   8   9
ENDBRANCH   4   7
TORSDOF 5
ENDMDL
MODEL      279
REMARK 921   NORMALIZED FREE ENERGY PREDICTED BY IDOCK:   -3.05 KCAL/MOL
REMARK 922        TOTAL FREE ENERGY PREDICTED BY IDOCK:   -4.41 KCAL/MOL
REMARK 923 INTER-LIGAND FREE ENERGY PREDICTED BY IDOCK:   -3.99 KCAL/MOL
REMARK 924 INTRA-LIGAND FREE ENERGY PREDICTED BY IDOCK:   -0.41 KCAL/MOL
REMARK 927      BINDING AFFINITY PREDICTED BY RF-SCORE:    0.00 PKD
ROOT
HETATM    1  O   UNL     1      -9.849  18.121  67.711  1.00  0.00    -0.289 OA 
HETATM    2  N   UNL     1      -8.955  18.326  66.648  1.00  0.00    -0.281 N  
HETATM    3  H   UNL     1     -10.496  18.774  67.952  1.00  0.00     0.000 HD 
HETATM    4  C   UNL     1      -8.027  17.388  66.302  1.00  0.00    -0.279 C  
HETATM    5  H   UNL     1      -9.001  19.198  66.121  1.00  0.00     0.000 HD 
HETATM    6  O   UNL     1      -7.207  17.605  65.415  1.00  0.00    -0.292 OA 
ENDROOT
BRANCH   4   7
HETATM    7  C   UNL     1      -8.070  16.107  67.049  1.00  0.00    -0.245 C  
HETATM    8  C   UNL     1      -6.939  15.503  67.439  1.00  0.00    -0.232 C  
BRANCH   8   9
HETATM    9  C   UNL     1      -6.983  14.240  68.175  1.00  0.00    -0.130 A  
HETATM   10  C   UNL     1      -5.988  13.944  69.114  1.00  0.00    -0.092 A  
HETATM   11  C   UNL     1      -5.986  12.714  69.778  1.00  0.00    -0.129 A  
HETATM   12  C   UNL     1      -6.973  11.768  69.502  1.00  0.00     0.027 A  
HETATM   13  C   UNL     1      -7.976  12.066  68.574  1.00  0.00    -0.132 A  
HETATM   14  C   UNL     1      -7.982  13.296  67.903  1.00  0.00    -0.159 A  
BRANCH  13  15
HETATM   15  S   UNL     1      -9.168  10.815  68.136  1.00  0.00    -0.157 S  
HETATM   16  O   UNL     1      -9.205  10.726  66.692  1.00  0.00    -0.162 OA 
HETATM   17  O   UNL     1     -10.372  11.083  68.897  1.00  0.00    -0.192 OA 
BRANCH  15  18
HETATM   18  N   UNL     1      -8.532   9.389  68.768  1.00  0.00    -0.120 N  
HETATM   19  H   UNL     1      -7.819   9.424  69.496  1.00  0.00     0.000 HD 
BRANCH  18  20
HETATM   20  C   UNL     1      -8.995   8.142  68.280  1.00  0.00    -0.136 A  
HETATM   21  C   UNL     1     -10.363   7.886  68.206  1.00  0.00    -0.239 A  
HETATM   22  C   UNL     1     -10.811   6.630  67.794  1.00  0.00    -0.372 A  
HETATM   23  C   UNL     1      -9.892   5.642  67.439  1.00  0.00    -0.160 A  
HETATM   24  C   UNL     1      -8.524   5.907  67.498  1.00  0.00    -0.103 A  
HETATM   25  C   UNL     1      -8.074   7.156  67.927  1.00  0.00    -0.119 A  
ENDBRANCH  18  20
ENDBRANCH  15  18
ENDBRANCH  13  15
ENDBRANCH   8   9
ENDBRANCH   4   7
TORSDOF 5
ENDMDL
MODEL      280
REMARK 921   NORMALIZED FREE ENERGY PREDICTED BY IDOCK:   -2.98 KCAL/MOL
REMARK 922        TOTAL FREE ENERGY PREDICTED BY IDOCK:   -4.32 KCAL/MOL
REMARK 923 INTER-LIGAND FREE ENERGY PREDICTED BY IDOCK:   -4.01 KCAL/MOL
REMARK 924 INTRA-LIGAND FREE ENERGY PREDICTED BY IDOCK:   -0.31 KCAL/MOL
REMARK 927      BINDING AFFINITY PREDICTED BY RF-SCORE:    0.00 PKD
ROOT
HETATM    1  O   UNL     1     -10.097  18.081  69.062  1.00  0.00    -0.377 OA 
HETATM    2  N   UNL     1      -9.113  18.775  68.341  1.00  0.00    -0.328 N  
HETATM    3  H   UNL     1     -10.937  18.477  69.269  1.00  0.00     0.000 HD 
HETATM    4  C   UNL     1      -7.908  18.207  68.044  1.00  0.00    -0.261 C  
HETATM    5  H   UNL     1      -9.303  19.728  68.031  1.00  0.00     0.000 HD 
HETATM    6  O   UNL     1      -7.031  18.845  67.473  1.00  0.00    -0.202 OA 
ENDROOT
BRANCH   4   7
HETATM    7  C   UNL     1      -7.729  16.790  68.446  1.00  0.00    -0.208 C  
HETATM    8  C   UNL     1      -6.558  16.361  68.939  1.00  0.00    -0.165 C  
BRANCH   8   9
HETATM    9  C   UNL     1      -6.383  14.964  69.334  1.00  0.00    -0.124 A  
HETATM   10  C   UNL     1      -5.462  14.633  70.336  1.00  0.00    -0.126 A  
HETATM   11  C   UNL     1      -5.241  13.296  70.678  1.00  0.00    -0.131 A  
HETATM   12  C   UNL     1      -5.932  12.280  70.016  1.00  0.00    -0.153 A  
HETATM   13  C   UNL     1      -6.861  12.609  69.024  1.00  0.00    -0.083 A  
HETATM   14  C   UNL     1      -7.085  13.947  68.675  1.00  0.00    -0.110 A  
BRANCH  13  15
HETATM   15  S   UNL     1      -7.657  11.310  68.099  1.00  0.00    -0.112 S  
HETATM   16  O   UNL     1      -9.085  11.438  68.294  1.00  0.00    -0.166 OA 
HETATM   17  O   UNL     1      -6.969  10.074  68.415  1.00  0.00    -0.066 OA 
BRANCH  15  18
HETATM   18  N   UNL     1      -7.279  11.647  66.492  1.00  0.00    -0.359 N  
HETATM   19  H   UNL     1      -6.487  12.247  66.266  1.00  0.00     0.000 HD 
BRANCH  18  20
HETATM   20  C   UNL     1      -8.071  11.089  65.458  1.00  0.00     0.053 A  
HETATM   21  C   UNL     1      -7.530  10.129  64.605  1.00  0.00    -0.132 A  
HETATM   22  C   UNL     1      -8.291   9.638  63.543  1.00  0.00    -0.172 A  
HETATM   23  C   UNL     1      -9.596  10.093  63.349  1.00  0.00    -0.236 A  
HETATM   24  C   UNL     1     -10.141  11.042  64.215  1.00  0.00    -0.398 A  
HETATM   25  C   UNL     1      -9.374  11.547  65.265  1.00  0.00    -0.155 A  
ENDBRANCH  18  20
ENDBRANCH  15  18
ENDBRANCH  13  15
ENDBRANCH   8   9
ENDBRANCH   4   7
TORSDOF 5
ENDMDL
MODEL      281
REMARK 921   NORMALIZED FREE ENERGY PREDICTED BY IDOCK:   -2.97 KCAL/MOL
REMARK 922        TOTAL FREE ENERGY PREDICTED BY IDOCK:   -4.31 KCAL/MOL
REMARK 923 INTER-LIGAND FREE ENERGY PREDICTED BY IDOCK:   -4.91 KCAL/MOL
REMARK 924 INTRA-LIGAND FREE ENERGY PREDICTED BY IDOCK:    0.60 KCAL/MOL
REMARK 927      BINDING AFFINITY PREDICTED BY RF-SCORE:    0.00 PKD
ROOT
HETATM    1  O   UNL     1      -7.683   9.678  64.997  1.00  0.00    -0.109 OA 
HETATM    2  N   UNL     1      -6.684  10.663  65.021  1.00  0.00    -0.347 N  
HETATM    3  H   UNL     1      -8.094   9.404  64.184  1.00  0.00     0.000 HD 
HETATM    4  C   UNL     1      -6.095  11.057  66.188  1.00  0.00    -0.119 C  
HETATM    5  H   UNL     1      -6.390  11.096  64.146  1.00  0.00     0.000 HD 
HETATM    6  O   UNL     1      -5.271  11.966  66.205  1.00  0.00    -0.328 OA 
ENDROOT
BRANCH   4   7
HETATM    7  C   UNL     1      -6.503  10.328  67.413  1.00  0.00    -0.067 C  
HETATM    8  C   UNL     1      -7.374  10.871  68.275  1.00  0.00    -0.087 C  
BRANCH   8   9
HETATM    9  C   UNL     1      -7.775  10.152  69.484  1.00  0.00    -0.155 A  
HETATM   10  C   UNL     1      -6.801   9.572  70.306  1.00  0.00    -0.092 A  
HETATM   11  C   UNL     1      -7.176   8.829  71.429  1.00  0.00    -0.104 A  
HETATM   12  C   UNL     1      -8.526   8.654  71.734  1.00  0.00    -0.221 A  
HETATM   13  C   UNL     1      -9.501   9.244  70.922  1.00  0.00    -0.261 A  
HETATM   14  C   UNL     1      -9.131   9.987  69.793  1.00  0.00    -0.219 A  
BRANCH  13  15
HETATM   15  S   UNL     1     -11.224   8.923  71.243  1.00  0.00    -0.327 S  
HETATM   16  O   UNL     1     -11.322   8.290  72.542  1.00  0.00    -0.375 OA 
HETATM   17  O   UNL     1     -11.772   8.288  70.062  1.00  0.00     0.075 OA 
BRANCH  15  18
HETATM   18  N   UNL     1     -11.930  10.451  71.312  1.00  0.00    -0.354 N  
HETATM   19  H   UNL     1     -12.405  10.760  72.160  1.00  0.00     0.000 HD 
BRANCH  18  20
HETATM   20  C   UNL     1     -11.857  11.304  70.183  1.00  0.00    -0.364 A  
HETATM   21  C   UNL     1     -11.865  10.764  68.898  1.00  0.00    -0.287 A  
HETATM   22  C   UNL     1     -11.720  11.603  67.792  1.00  0.00    -0.315 A  
HETATM   23  C   UNL     1     -11.586  12.980  67.973  1.00  0.00    -0.383 A  
HETATM   24  C   UNL     1     -11.596  13.520  69.260  1.00  0.00    -0.369 A  
HETATM   25  C   UNL     1     -11.722  12.680  70.366  1.00  0.00    -0.097 A  
ENDBRANCH  18  20
ENDBRANCH  15  18
ENDBRANCH  13  15
ENDBRANCH   8   9
ENDBRANCH   4   7
TORSDOF 5
ENDMDL
MODEL      282
REMARK 921   NORMALIZED FREE ENERGY PREDICTED BY IDOCK:   -2.69 KCAL/MOL
REMARK 922        TOTAL FREE ENERGY PREDICTED BY IDOCK:   -3.95 KCAL/MOL
REMARK 923 INTER-LIGAND FREE ENERGY PREDICTED BY IDOCK:   -3.45 KCAL/MOL
REMARK 924 INTRA-LIGAND FREE ENERGY PREDICTED BY IDOCK:   -0.50 KCAL/MOL
REMARK 927      BINDING AFFINITY PREDICTED BY RF-SCORE:    0.00 PKD
ROOT
HETATM    1  O   UNL     1     -10.030   4.348  63.708  1.00  0.00    -0.348 OA 
HETATM    2  N   UNL     1     -10.010   3.832  65.013  1.00  0.00    -0.302 N  
HETATM    3  H   UNL     1     -10.468   3.893  62.998  1.00  0.00     0.000 HD 
HETATM    4  C   UNL     1      -9.382   4.486  66.033  1.00  0.00    -0.157 C  
HETATM    5  H   UNL     1     -10.477   2.946  65.205  1.00  0.00     0.000 HD 
HETATM    6  O   UNL     1      -9.313   3.993  67.154  1.00  0.00    -0.156 OA 
ENDROOT
BRANCH   4   7
HETATM    7  C   UNL     1      -8.799   5.811  65.709  1.00  0.00    -0.151 C  
HETATM    8  C   UNL     1      -9.493   6.937  65.929  1.00  0.00     0.129 C  
BRANCH   8   9
HETATM    9  C   UNL     1      -8.918   8.242  65.608  1.00  0.00    -0.157 A  
HETATM   10  C   UNL     1      -8.058   8.376  64.511  1.00  0.00    -0.152 A  
HETATM   11  C   UNL     1      -7.454   9.604  64.232  1.00  0.00    -0.125 A  
HETATM   12  C   UNL     1      -7.698  10.707  65.051  1.00  0.00     0.038 A  
HETATM   13  C   UNL     1      -8.568  10.580  66.140  1.00  0.00    -0.150 A  
HETATM   14  C   UNL     1      -9.174   9.350  66.426  1.00  0.00    -0.215 A  
BRANCH  13  15
HETATM   15  S   UNL     1      -8.789  11.955  67.253  1.00  0.00    -0.186 S  
HETATM   16  O   UNL     1      -8.879  11.426  68.597  1.00  0.00    -0.164 OA 
HETATM   17  O   UNL     1      -9.843  12.786  66.707  1.00  0.00    -0.230 OA 
BRANCH  15  18
HETATM   18  N   UNL     1      -7.371  12.851  67.099  1.00  0.00    -0.359 N  
HETATM   19  H   UNL     1      -6.770  12.727  66.285  1.00  0.00     0.000 HD 
BRANCH  18  20
HETATM   20  C   UNL     1      -7.020  13.780  68.111  1.00  0.00    -0.120 A  
HETATM   21  C   UNL     1      -7.638  15.028  68.158  1.00  0.00    -0.113 A  
HETATM   22  C   UNL     1      -7.235  15.964  69.112  1.00  0.00    -0.196 A  
HETATM   23  C   UNL     1      -6.231  15.644  70.025  1.00  0.00    -0.135 A  
HETATM   24  C   UNL     1      -5.626  14.387  69.987  1.00  0.00    -0.112 A  
HETATM   25  C   UNL     1      -6.014  13.457  69.022  1.00  0.00    -0.083 A  
ENDBRANCH  18  20
ENDBRANCH  15  18
ENDBRANCH  13  15
ENDBRANCH   8   9
ENDBRANCH   4   7
TORSDOF 5
ENDMDL
MODEL      283
REMARK 921   NORMALIZED FREE ENERGY PREDICTED BY IDOCK:   -2.59 KCAL/MOL
REMARK 922        TOTAL FREE ENERGY PREDICTED BY IDOCK:   -3.81 KCAL/MOL
REMARK 923 INTER-LIGAND FREE ENERGY PREDICTED BY IDOCK:   -4.32 KCAL/MOL
REMARK 924 INTRA-LIGAND FREE ENERGY PREDICTED BY IDOCK:    0.51 KCAL/MOL
REMARK 927      BINDING AFFINITY PREDICTED BY RF-SCORE:    0.00 PKD
ROOT
HETATM    1  O   UNL     1      -7.858  12.230  69.300  1.00  0.00    -0.320 OA 
HETATM    2  N   UNL     1      -8.750  12.916  68.461  1.00  0.00    -0.347 N  
HETATM    3  H   UNL     1      -7.063  12.640  69.624  1.00  0.00     0.000 HD 
HETATM    4  C   UNL     1      -9.891  12.328  67.996  1.00  0.00    -0.204 C  
HETATM    5  H   UNL     1      -8.541  13.877  68.191  1.00  0.00     0.000 HD 
HETATM    6  O   UNL     1     -10.629  12.913  67.210  1.00  0.00    -0.232 OA 
ENDROOT
BRANCH   4   7
HETATM    7  C   UNL     1     -10.182  10.962  68.496  1.00  0.00    -0.197 C  
HETATM    8  C   UNL     1      -9.679   9.885  67.876  1.00  0.00    -0.162 C  
BRANCH   8   9
HETATM    9  C   UNL     1      -9.967   8.539  68.368  1.00  0.00    -0.208 A  
HETATM   10  C   UNL     1     -10.797   7.687  67.629  1.00  0.00    -0.171 A  
HETATM   11  C   UNL     1     -11.129   6.422  68.120  1.00  0.00    -0.358 A  
HETATM   12  C   UNL     1     -10.640   6.001  69.357  1.00  0.00    -0.365 A  
HETATM   13  C   UNL     1      -9.800   6.844  70.092  1.00  0.00    -0.177 A  
HETATM   14  C   UNL     1      -9.466   8.115  69.606  1.00  0.00    -0.159 A  
BRANCH  13  15
HETATM   15  S   UNL     1      -9.271   6.354  71.722  1.00  0.00    -0.141 S  
HETATM   16  O   UNL     1     -10.394   6.522  72.621  1.00  0.00    -0.183 OA 
HETATM   17  O   UNL     1      -8.006   7.013  71.980  1.00  0.00    -0.094 OA 
BRANCH  15  18
HETATM   18  N   UNL     1      -8.914   4.715  71.574  1.00  0.00    -0.130 N  
HETATM   19  H   UNL     1      -8.174   4.406  70.944  1.00  0.00     0.000 HD 
BRANCH  18  20
HETATM   20  C   UNL     1      -9.650   3.769  72.330  1.00  0.00    -0.144 A  
HETATM   21  C   UNL     1     -10.893   4.113  72.858  1.00  0.00    -0.207 A  
HETATM   22  C   UNL     1     -11.579   3.202  73.663  1.00  0.00    -0.032 A  
HETATM   23  C   UNL     1     -11.030   1.947  73.922  1.00  0.00    -0.258 A  
HETATM   24  C   UNL     1      -9.793   1.599  73.378  1.00  0.00    -0.118 A  
HETATM   25  C   UNL     1      -9.098   2.515  72.589  1.00  0.00    -0.110 A  
ENDBRANCH  18  20
ENDBRANCH  15  18
ENDBRANCH  13  15
ENDBRANCH   8   9
ENDBRANCH   4   7
TORSDOF 5
ENDMDL
MODEL      284
REMARK 921   NORMALIZED FREE ENERGY PREDICTED BY IDOCK:   -0.53 KCAL/MOL
REMARK 922        TOTAL FREE ENERGY PREDICTED BY IDOCK:   -1.15 KCAL/MOL
REMARK 923 INTER-LIGAND FREE ENERGY PREDICTED BY IDOCK:   -1.33 KCAL/MOL
REMARK 924 INTRA-LIGAND FREE ENERGY PREDICTED BY IDOCK:    0.18 KCAL/MOL
REMARK 927      BINDING AFFINITY PREDICTED BY RF-SCORE:    0.00 PKD
ROOT
HETATM    1  O   UNL     1     -11.978  10.458  67.238  1.00  0.00     0.073 OA 
HETATM    2  N   UNL     1     -12.731  10.883  68.344  1.00  0.00     0.967 N  
HETATM    3  H   UNL     1     -12.314   9.815  66.623  1.00  0.00     0.000 HD 
HETATM    4  C   UNL     1     -12.249  11.806  69.226  1.00  0.00    -0.140 C  
HETATM    5  H   UNL     1     -13.661  10.493  68.492  1.00  0.00     0.000 HD 
HETATM    6  O   UNL     1     -12.887  12.120  70.225  1.00  0.00     0.104 OA 
ENDROOT
BRANCH   4   7
HETATM    7  C   UNL     1     -10.928  12.399  68.906  1.00  0.00    -0.268 C  
HETATM    8  C   UNL     1      -9.995  11.686  68.260  1.00  0.00    -0.201 C  
BRANCH   8   9
HETATM    9  C   UNL     1      -8.693  12.272  67.945  1.00  0.00    -0.177 A  
HETATM   10  C   UNL     1      -7.754  11.534  67.213  1.00  0.00    -0.150 A  
HETATM   11  C   UNL     1      -6.484  12.060  66.960  1.00  0.00    -0.114 A  
HETATM   12  C   UNL     1      -6.140  13.323  67.444  1.00  0.00     0.014 A  
HETATM   13  C   UNL     1      -7.080  14.067  68.165  1.00  0.00    -0.125 A  
HETATM   14  C   UNL     1      -8.354  13.544  68.424  1.00  0.00    -0.140 A  
BRANCH  13  15
HETATM   15  S   UNL     1      -6.603  15.627  68.882  1.00  0.00    -0.123 S  
HETATM   16  O   UNL     1      -5.157  15.692  68.878  1.00  0.00    -0.098 OA 
HETATM   17  O   UNL     1      -7.353  15.783  70.112  1.00  0.00     0.130 OA 
BRANCH  15  18
HETATM   18  N   UNL     1      -7.217  16.782  67.821  1.00  0.00    -0.135 N  
HETATM   19  H   UNL     1      -6.656  17.594  67.565  1.00  0.00     0.000 HD 
BRANCH  18  20
HETATM   20  C   UNL     1      -8.519  16.617  67.286  1.00  0.00    -0.194 A  
HETATM   21  C   UNL     1      -8.685  16.143  65.986  1.00  0.00    -0.282 A  
HETATM   22  C   UNL     1      -9.966  16.052  65.440  1.00  0.00    -0.187 A  
HETATM   23  C   UNL     1     -11.077  16.416  66.201  1.00  0.00     0.184 A  
HETATM   24  C   UNL     1     -10.909  16.874  67.509  1.00  0.00    -0.207 A  
HETATM   25  C   UNL     1      -9.628  16.983  68.049  1.00  0.00    -0.260 A  
ENDBRANCH  18  20
ENDBRANCH  15  18
ENDBRANCH  13  15
ENDBRANCH   8   9
ENDBRANCH   4   7
TORSDOF 5
ENDMDL
MODEL      285
REMARK 921   NORMALIZED FREE ENERGY PREDICTED BY IDOCK:   -0.52 KCAL/MOL
REMARK 922        TOTAL FREE ENERGY PREDICTED BY IDOCK:   -1.15 KCAL/MOL
REMARK 923 INTER-LIGAND FREE ENERGY PREDICTED BY IDOCK:   -0.65 KCAL/MOL
REMARK 924 INTRA-LIGAND FREE ENERGY PREDICTED BY IDOCK:   -0.50 KCAL/MOL
REMARK 927      BINDING AFFINITY PREDICTED BY RF-SCORE:    0.00 PKD
ROOT
HETATM    1  O   UNL     1      -5.905  13.053  74.215  1.00  0.00    -0.126 OA 
HETATM    2  N   UNL     1      -5.515  11.709  74.328  1.00  0.00     0.657 N  
HETATM    3  H   UNL     1      -5.978  13.617  74.977  1.00  0.00     0.000 HD 
HETATM    4  C   UNL     1      -5.409  10.900  73.234  1.00  0.00     0.723 C  
HETATM    5  H   UNL     1      -5.306  11.328  75.251  1.00  0.00     0.000 HD 
HETATM    6  O   UNL     1      -5.134   9.711  73.352  1.00  0.00    -0.118 OA 
ENDROOT
BRANCH   4   7
HETATM    7  C   UNL     1      -5.641  11.538  71.916  1.00  0.00     0.659 C  
HETATM    8  C   UNL     1      -6.076  10.816  70.873  1.00  0.00     0.071 C  
BRANCH   8   9
HETATM    9  C   UNL     1      -6.303  11.446  69.573  1.00  0.00    -0.113 A  
HETATM   10  C   UNL     1      -5.664  10.943  68.433  1.00  0.00    -0.043 A  
HETATM   11  C   UNL     1      -5.825  11.575  67.196  1.00  0.00    -0.110 A  
HETATM   12  C   UNL     1      -6.619  12.717  67.092  1.00  0.00    -0.016 A  
HETATM   13  C   UNL     1      -7.270  13.213  68.226  1.00  0.00    -0.107 A  
HETATM   14  C   UNL     1      -7.110  12.586  69.469  1.00  0.00     0.265 A  
BRANCH  13  15
HETATM   15  S   UNL     1      -8.188  14.737  68.117  1.00  0.00    -0.151 S  
HETATM   16  O   UNL     1      -9.516  14.491  68.639  1.00  0.00    -0.204 OA 
HETATM   17  O   UNL     1      -7.998  15.259  66.779  1.00  0.00    -0.200 OA 
BRANCH  15  18
HETATM   18  N   UNL     1      -7.372  15.794  69.143  1.00  0.00    -0.180 N  
HETATM   19  H   UNL     1      -6.929  15.446  69.993  1.00  0.00     0.000 HD 
BRANCH  18  20
HETATM   20  C   UNL     1      -7.305  17.171  68.816  1.00  0.00    -0.241 A  
HETATM   21  C   UNL     1      -6.067  17.796  68.678  1.00  0.00    -0.192 A  
HETATM   22  C   UNL     1      -6.008  19.168  68.427  1.00  0.00    -0.231 A  
HETATM   23  C   UNL     1      -7.184  19.906  68.298  1.00  0.00    -0.334 A  
HETATM   24  C   UNL     1      -8.423  19.274  68.420  1.00  0.00    -0.386 A  
HETATM   25  C   UNL     1      -8.483  17.907  68.689  1.00  0.00    -0.272 A  
ENDBRANCH  18  20
ENDBRANCH  15  18
ENDBRANCH  13  15
ENDBRANCH   8   9
ENDBRANCH   4   7
TORSDOF 5
ENDMDL
MODEL      286
REMARK 921   NORMALIZED FREE ENERGY PREDICTED BY IDOCK:    0.38 KCAL/MOL
REMARK 922        TOTAL FREE ENERGY PREDICTED BY IDOCK:    0.02 KCAL/MOL
REMARK 923 INTER-LIGAND FREE ENERGY PREDICTED BY IDOCK:    0.46 KCAL/MOL
REMARK 924 INTRA-LIGAND FREE ENERGY PREDICTED BY IDOCK:   -0.44 KCAL/MOL
REMARK 927      BINDING AFFINITY PREDICTED BY RF-SCORE:    0.00 PKD
ROOT
HETATM    1  O   UNL     1      -5.940  13.041  74.195  1.00  0.00     0.143 OA 
HETATM    2  N   UNL     1      -5.521  11.734  74.492  1.00  0.00     0.500 N  
HETATM    3  H   UNL     1      -5.996  13.712  74.866  1.00  0.00     0.000 HD 
HETATM    4  C   UNL     1      -5.441  10.771  73.528  1.00  0.00     0.840 C  
HETATM    5  H   UNL     1      -5.271  11.498  75.452  1.00  0.00     0.000 HD 
HETATM    6  O   UNL     1      -5.139   9.617  73.811  1.00  0.00    -0.122 OA 
ENDROOT
BRANCH   4   7
HETATM    7  C   UNL     1      -5.733  11.201  72.139  1.00  0.00     0.999 C  
HETATM    8  C   UNL     1      -6.202  10.327  71.236  1.00  0.00     0.237 C  
BRANCH   8   9
HETATM    9  C   UNL     1      -6.489  10.751  69.867  1.00  0.00    -0.135 A  
HETATM   10  C   UNL     1      -6.306  12.089  69.498  1.00  0.00    -0.123 A  
HETATM   11  C   UNL     1      -6.636  12.519  68.209  1.00  0.00    -0.073 A  
HETATM   12  C   UNL     1      -7.159  11.616  67.283  1.00  0.00    -0.134 A  
HETATM   13  C   UNL     1      -7.330  10.275  67.644  1.00  0.00    -0.088 A  
HETATM   14  C   UNL     1      -7.004   9.840  68.936  1.00  0.00    -0.062 A  
BRANCH  13  15
HETATM   15  S   UNL     1      -8.105   9.149  66.501  1.00  0.00    -0.108 S  
HETATM   16  O   UNL     1      -7.515   9.366  65.198  1.00  0.00    -0.100 OA 
HETATM   17  O   UNL     1      -9.537   9.254  66.698  1.00  0.00    -0.173 OA 
BRANCH  15  18
HETATM   18  N   UNL     1      -7.675   7.620  67.062  1.00  0.00    -0.106 N  
HETATM   19  H   UNL     1      -6.885   7.509  67.697  1.00  0.00     0.000 HD 
BRANCH  18  20
HETATM   20  C   UNL     1      -8.419   6.489  66.644  1.00  0.00    -0.116 A  
HETATM   21  C   UNL     1      -8.063   5.811  65.479  1.00  0.00    -0.128 A  
HETATM   22  C   UNL     1      -8.843   4.743  65.033  1.00  0.00    -0.152 A  
HETATM   23  C   UNL     1      -9.965   4.345  65.761  1.00  0.00    -0.251 A  
HETATM   24  C   UNL     1     -10.309   5.015  66.936  1.00  0.00    -0.267 A  
HETATM   25  C   UNL     1      -9.541   6.094  67.373  1.00  0.00    -0.122 A  
ENDBRANCH  18  20
ENDBRANCH  15  18
ENDBRANCH  13  15
ENDBRANCH   8   9
ENDBRANCH   4   7
TORSDOF 5
ENDMDL
MODEL      287
REMARK 921   NORMALIZED FREE ENERGY PREDICTED BY IDOCK:   10.82 KCAL/MOL
REMARK 922        TOTAL FREE ENERGY PREDICTED BY IDOCK:   13.51 KCAL/MOL
REMARK 923 INTER-LIGAND FREE ENERGY PREDICTED BY IDOCK:   13.40 KCAL/MOL
REMARK 924 INTRA-LIGAND FREE ENERGY PREDICTED BY IDOCK:    0.11 KCAL/MOL
REMARK 927      BINDING AFFINITY PREDICTED BY RF-SCORE:    0.00 PKD
ROOT
HETATM    1  O   UNL     1     -12.551  14.451  74.013  1.00  0.00    -0.329 OA 
HETATM    2  N   UNL     1     -13.613  14.357  73.101  1.00  0.00    -0.162 N  
HETATM    3  H   UNL     1     -12.701  14.509  74.950  1.00  0.00     0.000 HD 
HETATM    4  C   UNL     1     -13.398  14.275  71.756  1.00  0.00    -0.371 C  
HETATM    5  H   UNL     1     -14.571  14.350  73.452  1.00  0.00     0.000 HD 
HETATM    6  O   UNL     1     -14.335  14.261  70.965  1.00  0.00    -0.052 OA 
ENDROOT
BRANCH   4   7
HETATM    7  C   UNL     1     -11.983  14.201  71.316  1.00  0.00    -0.262 C  
HETATM    8  C   UNL     1     -11.671  14.181  70.013  1.00  0.00    -0.358 C  
BRANCH   8   9
HETATM    9  C   UNL     1     -10.276  14.108  69.581  1.00  0.00     0.341 A  
HETATM   10  C   UNL     1      -9.867  14.784  68.425  1.00  0.00    -0.220 A  
HETATM   11  C   UNL     1      -8.551  14.670  67.968  1.00  0.00    -0.162 A  
HETATM   12  C   UNL     1      -7.636  13.875  68.659  1.00  0.00    -0.130 A  
HETATM   13  C   UNL     1      -8.039  13.209  69.822  1.00  0.00     1.777 A  
HETATM   14  C   UNL     1      -9.358  13.317  70.282  1.00  0.00     4.154 A  
BRANCH  13  15
HETATM   15  S   UNL     1      -6.905  12.101  70.637  1.00  0.00     2.349 S  
HETATM   16  O   UNL     1      -7.356  11.934  72.003  1.00  0.00     7.226 OA 
HETATM   17  O   UNL     1      -5.565  12.567  70.347  1.00  0.00    -0.133 OA 
BRANCH  15  18
HETATM   18  N   UNL     1      -7.074  10.644  69.810  1.00  0.00    -0.172 N  
HETATM   19  H   UNL     1      -6.420  10.395  69.069  1.00  0.00     0.000 HD 
BRANCH  18  20
HETATM   20  C   UNL     1      -8.133   9.766  70.153  1.00  0.00    -0.182 A  
HETATM   21  C   UNL     1      -9.345  10.279  70.610  1.00  0.00     0.936 A  
HETATM   22  C   UNL     1     -10.357   9.407  71.014  1.00  0.00    -0.382 A  
HETATM   23  C   UNL     1     -10.161   8.028  70.945  1.00  0.00    -0.213 A  
HETATM   24  C   UNL     1      -8.952   7.517  70.471  1.00  0.00    -0.152 A  
HETATM   25  C   UNL     1      -7.933   8.387  70.083  1.00  0.00    -0.102 A  
ENDBRANCH  18  20
ENDBRANCH  15  18
ENDBRANCH  13  15
ENDBRANCH   8   9
ENDBRANCH   4   7
TORSDOF 5
ENDMDL
