MODEL        1
REMARK 921   NORMALIZED FREE ENERGY PREDICTED BY IDOCK:   -7.25 KCAL/MOL
REMARK 922        TOTAL FREE ENERGY PREDICTED BY IDOCK:  -13.22 KCAL/MOL
REMARK 923 INTER-LIGAND FREE ENERGY PREDICTED BY IDOCK:  -11.06 KCAL/MOL
REMARK 924 INTRA-LIGAND FREE ENERGY PREDICTED BY IDOCK:   -2.16 KCAL/MOL
REMARK 927      BINDING AFFINITY PREDICTED BY RF-SCORE:    0.00 PKD
ROOT
HETATM    1  C   UNL     1     -11.745  13.922  67.255  1.00  0.00    -0.386 C  
HETATM    2  C   UNL     1     -12.251  14.917  68.295  1.00  0.00    -0.015 C  
HETATM    3  O   UNL     1     -12.002  11.544  66.796  1.00  0.00    -0.470 OA 
HETATM    4  C   UNL     1     -13.509  12.935  72.327  1.00  0.00    -0.631 A  
HETATM    5  N   UNL     1     -11.175  12.037  68.887  1.00  0.00    -0.243 N  
HETATM    6  C   UNL     1     -11.566  14.786  69.643  1.00  0.00    -0.342 C  
HETATM    7  C   UNL     1     -11.747  12.405  67.649  1.00  0.00    -0.346 C  
HETATM    8  C   UNL     1     -12.510  11.305  70.853  1.00  0.00    -0.493 A  
HETATM    9  C   UNL     1     -12.179  13.656  70.424  1.00  0.00    -0.434 A  
HETATM   10  C   UNL     1     -12.955  13.952  71.558  1.00  0.00    -0.436 A  
HETATM   11  C   UNL     1     -13.280  11.610  71.979  1.00  0.00    -0.443 A  
HETATM   12  C   UNL     1     -11.975  12.321  70.048  1.00  0.00    -0.304 A  
ENDROOT
BRANCH   1  13
HETATM   13  N   UNL     1     -12.537  14.062  66.008  1.00  0.00    -0.468 NA 
HETATM   14  H   UNL     1     -13.523  13.801  65.981  1.00  0.00     0.000 HD 
BRANCH  13  15
HETATM   15  C   UNL     1     -11.856  14.593  64.807  1.00  0.00    -0.440 C  
BRANCH  15  16
HETATM   16  C   UNL     1     -10.509  15.288  65.083  1.00  0.00    -0.438 C  
BRANCH  16  17
HETATM   17  C   UNL     1     -10.600  16.819  64.960  1.00  0.00    -0.060 C  
BRANCH  17  18
HETATM   18  C   UNL     1     -10.182  17.509  66.235  1.00  0.00    -0.356 A  
HETATM   19  C   UNL     1      -9.457  16.814  67.214  1.00  0.00    -0.231 A  
HETATM   20  C   UNL     1      -9.483  18.761  68.647  1.00  0.00    -0.412 A  
HETATM   21  C   UNL     1      -9.110  17.440  68.414  1.00  0.00    -0.274 A  
HETATM   22  C   UNL     1     -10.192  19.464  67.673  1.00  0.00    -0.526 A  
HETATM   23  C   UNL     1     -10.537  18.842  66.474  1.00  0.00    -0.462 A  
ENDBRANCH  17  18
ENDBRANCH  16  17
ENDBRANCH  15  16
BRANCH  15  24
HETATM   24  C   UNL     1     -11.592  13.400  63.858  1.00  0.00    -0.354 C  
HETATM   25  O   UNL     1     -12.439  12.889  63.139  1.00  0.00    -0.641 OA 
BRANCH  24  26
HETATM   26  O   UNL     1     -10.308  12.960  64.005  1.00  0.00    -0.422 OA 
BRANCH  26  27
HETATM   27  C   UNL     1      -9.958  11.807  63.221  1.00  0.00    -0.410 C  
HETATM   28  C   UNL     1      -9.792  10.602  64.131  1.00  0.00    -0.396 C  
ENDBRANCH  26  27
ENDBRANCH  24  26
ENDBRANCH  15  24
ENDBRANCH  13  15
ENDBRANCH   1  13
BRANCH   5  29
HETATM   29  C   UNL     1     -10.461  10.744  68.830  1.00  0.00    -0.205 C  
HETATM   30  C   UNL     1      -8.965  10.805  68.522  1.00  0.00    -0.160 C  
HETATM   31  O   UNL     1      -8.264   9.806  68.435  1.00  0.00    -0.104 OA 
HETATM   32  O   UNL     1      -8.459  12.039  68.308  1.00  0.00    -0.159 OA 
ENDBRANCH   5  29
TORSDOF 9
ENDMDL
MODEL        2
REMARK 921   NORMALIZED FREE ENERGY PREDICTED BY IDOCK:   -6.87 KCAL/MOL
REMARK 922        TOTAL FREE ENERGY PREDICTED BY IDOCK:  -12.64 KCAL/MOL
REMARK 923 INTER-LIGAND FREE ENERGY PREDICTED BY IDOCK:  -10.89 KCAL/MOL
REMARK 924 INTRA-LIGAND FREE ENERGY PREDICTED BY IDOCK:   -1.75 KCAL/MOL
REMARK 927      BINDING AFFINITY PREDICTED BY RF-SCORE:    0.00 PKD
ROOT
HETATM    1  C   UNL     1     -11.538  13.192  68.763  1.00  0.00    -0.308 C  
HETATM    2  C   UNL     1     -11.481  14.418  69.669  1.00  0.00    -0.331 C  
HETATM    3  O   UNL     1     -10.207  12.258  66.949  1.00  0.00    -0.212 OA 
HETATM    4  C   UNL     1      -9.051  17.970  67.866  1.00  0.00    -0.269 A  
HETATM    5  N   UNL     1     -10.971  14.399  66.580  1.00  0.00    -0.310 N  
HETATM    6  C   UNL     1     -11.888  15.705  68.974  1.00  0.00    -0.379 C  
HETATM    7  C   UNL     1     -10.766  13.267  67.400  1.00  0.00    -0.258 C  
HETATM    8  C   UNL     1      -9.270  16.185  66.255  1.00  0.00    -0.366 A  
HETATM    9  C   UNL     1     -10.736  16.243  68.171  1.00  0.00    -0.322 A  
HETATM   10  C   UNL     1     -10.097  17.420  68.599  1.00  0.00    -0.355 A  
HETATM   11  C   UNL     1      -8.643  17.355  66.688  1.00  0.00    -0.283 A  
HETATM   12  C   UNL     1     -10.303  15.600  67.004  1.00  0.00    -0.289 A  
ENDROOT
BRANCH   1  13
HETATM   13  N   UNL     1     -11.033  12.007  69.499  1.00  0.00    -0.457 NA 
HETATM   14  H   UNL     1     -10.150  12.044  70.010  1.00  0.00     0.000 HD 
BRANCH  13  15
HETATM   15  C   UNL     1     -11.846  10.772  69.472  1.00  0.00    -0.308 C  
BRANCH  15  16
HETATM   16  C   UNL     1     -11.032   9.463  69.457  1.00  0.00    -0.193 C  
BRANCH  16  17
HETATM   17  C   UNL     1     -10.097   9.337  70.673  1.00  0.00    -0.339 C  
BRANCH  17  18
HETATM   18  C   UNL     1     -10.340   8.056  71.435  1.00  0.00    -0.243 A  
HETATM   19  C   UNL     1     -10.315   8.048  72.837  1.00  0.00    -0.397 A  
HETATM   20  C   UNL     1     -10.699   5.661  72.852  1.00  0.00    -0.286 A  
HETATM   21  C   UNL     1     -10.495   6.855  73.540  1.00  0.00    -0.382 A  
HETATM   22  C   UNL     1     -10.739   5.663  71.457  1.00  0.00    -0.306 A  
HETATM   23  C   UNL     1     -10.563   6.854  70.753  1.00  0.00    -0.245 A  
ENDBRANCH  17  18
ENDBRANCH  16  17
ENDBRANCH  15  16
BRANCH  15  24
HETATM   24  C   UNL     1     -12.728  10.769  70.743  1.00  0.00    -0.360 C  
HETATM   25  O   UNL     1     -12.574  11.524  71.693  1.00  0.00    -0.291 OA 
BRANCH  24  26
HETATM   26  O   UNL     1     -13.642   9.756  70.677  1.00  0.00    -0.152 OA 
BRANCH  26  27
HETATM   27  C   UNL     1     -13.841   9.025  71.898  1.00  0.00    -0.423 C  
HETATM   28  C   UNL     1     -14.095   7.562  71.583  1.00  0.00    -0.562 C  
ENDBRANCH  26  27
ENDBRANCH  24  26
ENDBRANCH  15  24
ENDBRANCH  13  15
ENDBRANCH   1  13
BRANCH   5  29
HETATM   29  C   UNL     1     -10.972  14.072  65.139  1.00  0.00    -0.353 C  
HETATM   30  C   UNL     1     -12.340  13.910  64.478  1.00  0.00    -0.372 C  
HETATM   31  O   UNL     1     -12.478  13.627  63.295  1.00  0.00    -0.801 OA 
HETATM   32  O   UNL     1     -13.408  14.058  65.294  1.00  0.00    -0.741 OA 
ENDBRANCH   5  29
TORSDOF 9
ENDMDL
MODEL        3
REMARK 921   NORMALIZED FREE ENERGY PREDICTED BY IDOCK:   -6.87 KCAL/MOL
REMARK 922        TOTAL FREE ENERGY PREDICTED BY IDOCK:  -12.64 KCAL/MOL
REMARK 923 INTER-LIGAND FREE ENERGY PREDICTED BY IDOCK:  -10.70 KCAL/MOL
REMARK 924 INTRA-LIGAND FREE ENERGY PREDICTED BY IDOCK:   -1.93 KCAL/MOL
REMARK 927      BINDING AFFINITY PREDICTED BY RF-SCORE:    0.00 PKD
ROOT
HETATM    1  C   UNL     1     -11.417  11.443  69.239  1.00  0.00    -0.303 C  
HETATM    2  C   UNL     1     -12.618  11.670  70.153  1.00  0.00    -0.106 C  
HETATM    3  O   UNL     1     -10.490   9.601  67.945  1.00  0.00    -0.216 OA 
HETATM    4  C   UNL     1     -14.272   7.756  72.080  1.00  0.00    -0.424 A  
HETATM    5  N   UNL     1     -10.732   9.172  70.194  1.00  0.00    -0.224 N  
HETATM    6  C   UNL     1     -12.461  11.046  71.527  1.00  0.00    -0.389 C  
HETATM    7  C   UNL     1     -10.930   9.966  69.043  1.00  0.00    -0.190 C  
HETATM    8  C   UNL     1     -12.242   7.308  70.853  1.00  0.00    -0.308 A  
HETATM    9  C   UNL     1     -12.783   9.578  71.465  1.00  0.00    -0.461 A  
HETATM   10  C   UNL     1     -13.956   9.111  72.084  1.00  0.00    -0.466 A  
HETATM   11  C   UNL     1     -13.410   6.853  71.471  1.00  0.00    -0.303 A  
HETATM   12  C   UNL     1     -11.929   8.675  70.818  1.00  0.00    -0.121 A  
ENDROOT
BRANCH   1  13
HETATM   13  N   UNL     1     -11.703  12.003  67.896  1.00  0.00    -0.464 NA 
HETATM   14  H   UNL     1     -11.661  11.416  67.063  1.00  0.00     0.000 HD 
BRANCH  13  15
HETATM   15  C   UNL     1     -12.051  13.438  67.799  1.00  0.00    -0.259 C  
BRANCH  15  16
HETATM   16  C   UNL     1     -11.068  14.390  68.508  1.00  0.00    -0.270 C  
BRANCH  16  17
HETATM   17  C   UNL     1     -11.766  15.633  69.088  1.00  0.00    -0.402 C  
BRANCH  17  18
HETATM   18  C   UNL     1     -12.239  15.401  70.502  1.00  0.00    -0.436 A  
HETATM   19  C   UNL     1     -13.610  15.335  70.791  1.00  0.00    -0.313 A  
HETATM   20  C   UNL     1     -13.124  15.062  73.143  1.00  0.00    -0.619 A  
HETATM   21  C   UNL     1     -14.048  15.166  72.106  1.00  0.00    -0.654 A  
HETATM   22  C   UNL     1     -11.758  15.112  72.863  1.00  0.00    -0.422 A  
HETATM   23  C   UNL     1     -11.319  15.278  71.550  1.00  0.00    -0.432 A  
ENDBRANCH  17  18
ENDBRANCH  16  17
ENDBRANCH  15  16
BRANCH  15  24
HETATM   24  C   UNL     1     -12.075  13.810  66.298  1.00  0.00    -0.446 C  
HETATM   25  O   UNL     1     -13.095  14.014  65.653  1.00  0.00    -0.639 OA 
BRANCH  24  26
HETATM   26  O   UNL     1     -10.808  13.796  65.790  1.00  0.00    -0.274 OA 
BRANCH  26  27
HETATM   27  C   UNL     1     -10.692  13.341  64.432  1.00  0.00    -0.415 C  
HETATM   28  C   UNL     1     -10.636  11.824  64.405  1.00  0.00    -0.368 C  
ENDBRANCH  26  27
ENDBRANCH  24  26
ENDBRANCH  15  24
ENDBRANCH  13  15
ENDBRANCH   1  13
BRANCH   5  29
HETATM   29  C   UNL     1      -9.578   8.256  70.070  1.00  0.00    -0.168 C  
HETATM   30  C   UNL     1      -8.663   8.145  71.288  1.00  0.00    -0.145 C  
HETATM   31  O   UNL     1      -7.668   7.432  71.309  1.00  0.00    -0.085 OA 
HETATM   32  O   UNL     1      -8.994   8.920  72.345  1.00  0.00    -0.383 OA 
ENDBRANCH   5  29
TORSDOF 9
ENDMDL
MODEL        4
REMARK 921   NORMALIZED FREE ENERGY PREDICTED BY IDOCK:   -6.75 KCAL/MOL
REMARK 922        TOTAL FREE ENERGY PREDICTED BY IDOCK:  -12.45 KCAL/MOL
REMARK 923 INTER-LIGAND FREE ENERGY PREDICTED BY IDOCK:  -10.98 KCAL/MOL
REMARK 924 INTRA-LIGAND FREE ENERGY PREDICTED BY IDOCK:   -1.47 KCAL/MOL
REMARK 927      BINDING AFFINITY PREDICTED BY RF-SCORE:    0.00 PKD
ROOT
HETATM    1  C   UNL     1     -10.866  14.088  66.920  1.00  0.00    -0.290 C  
HETATM    2  C   UNL     1     -11.292  14.166  65.456  1.00  0.00    -0.319 C  
HETATM    3  O   UNL     1      -9.079  13.038  68.198  1.00  0.00    -0.196 OA 
HETATM    4  C   UNL     1      -9.743  10.611  62.861  1.00  0.00    -0.329 A  
HETATM    5  N   UNL     1     -10.360  11.581  66.957  1.00  0.00    -0.213 N  
HETATM    6  C   UNL     1     -11.945  12.894  64.946  1.00  0.00    -0.437 C  
HETATM    7  C   UNL     1      -9.961  12.880  67.343  1.00  0.00    -0.217 C  
HETATM    8  C   UNL     1      -9.211  10.260  65.190  1.00  0.00    -0.252 A  
HETATM    9  C   UNL     1     -10.891  11.883  64.587  1.00  0.00    -0.363 A  
HETATM   10  C   UNL     1     -10.683  11.566  63.233  1.00  0.00    -0.374 A  
HETATM   11  C   UNL     1      -9.012   9.951  63.842  1.00  0.00    -0.280 A  
HETATM   12  C   UNL     1     -10.130  11.247  65.577  1.00  0.00    -0.257 A  
ENDROOT
BRANCH   1  13
HETATM   13  N   UNL     1     -10.156  15.334  67.296  1.00  0.00    -0.234 NA 
HETATM   14  H   UNL     1      -9.139  15.396  67.241  1.00  0.00     0.000 HD 
BRANCH  13  15
HETATM   15  C   UNL     1     -10.964  16.486  67.754  1.00  0.00    -0.252 C  
BRANCH  15  16
HETATM   16  C   UNL     1     -10.703  16.921  69.209  1.00  0.00    -0.288 C  
BRANCH  16  17
HETATM   17  C   UNL     1     -10.572  15.723  70.167  1.00  0.00    -0.334 C  
BRANCH  17  18
HETATM   18  C   UNL     1     -11.793  15.570  71.041  1.00  0.00    -0.427 A  
HETATM   19  C   UNL     1     -12.952  14.957  70.542  1.00  0.00    -0.339 A  
HETATM   20  C   UNL     1     -14.095  15.366  72.633  1.00  0.00    -0.519 A  
HETATM   21  C   UNL     1     -14.096  14.856  71.336  1.00  0.00    -0.552 A  
HETATM   22  C   UNL     1     -12.942  15.964  73.142  1.00  0.00    -0.653 A  
HETATM   23  C   UNL     1     -11.797  16.063  72.351  1.00  0.00    -0.639 A  
ENDBRANCH  17  18
ENDBRANCH  16  17
ENDBRANCH  15  16
BRANCH  15  24
HETATM   24  C   UNL     1     -10.632  17.682  66.832  1.00  0.00    -0.235 C  
HETATM   25  O   UNL     1     -10.353  17.583  65.645  1.00  0.00    -0.601 OA 
BRANCH  24  26
HETATM   26  O   UNL     1     -10.619  18.841  67.553  1.00  0.00    -0.412 OA 
BRANCH  26  27
HETATM   27  C   UNL     1      -9.985  19.960  66.912  1.00  0.00    -0.435 C  
HETATM   28  C   UNL     1      -8.592  20.154  67.483  1.00  0.00    -0.404 C  
ENDBRANCH  26  27
ENDBRANCH  24  26
ENDBRANCH  15  24
ENDBRANCH  13  15
ENDBRANCH   1  13
BRANCH   5  29
HETATM   29  C   UNL     1     -10.062  10.559  67.982  1.00  0.00    -0.165 C  
HETATM   30  C   UNL     1     -11.166  10.272  68.998  1.00  0.00    -0.208 C  
HETATM   31  O   UNL     1     -11.040   9.458  69.904  1.00  0.00    -0.238 OA 
HETATM   32  O   UNL     1     -12.293  11.006  68.866  1.00  0.00    -0.516 OA 
ENDBRANCH   5  29
TORSDOF 9
ENDMDL
MODEL        5
REMARK 921   NORMALIZED FREE ENERGY PREDICTED BY IDOCK:   -6.74 KCAL/MOL
REMARK 922        TOTAL FREE ENERGY PREDICTED BY IDOCK:  -12.44 KCAL/MOL
REMARK 923 INTER-LIGAND FREE ENERGY PREDICTED BY IDOCK:  -10.84 KCAL/MOL
REMARK 924 INTRA-LIGAND FREE ENERGY PREDICTED BY IDOCK:   -1.60 KCAL/MOL
REMARK 927      BINDING AFFINITY PREDICTED BY RF-SCORE:    0.00 PKD
ROOT
HETATM    1  C   UNL     1     -11.180  11.453  68.603  1.00  0.00    -0.243 C  
HETATM    2  C   UNL     1     -12.213  11.149  69.684  1.00  0.00    -0.360 C  
HETATM    3  O   UNL     1      -9.994  10.211  66.877  1.00  0.00    -0.189 OA 
HETATM    4  C   UNL     1     -12.266   6.678  71.019  1.00  0.00    -0.344 A  
HETATM    5  N   UNL     1      -9.696   9.411  69.015  1.00  0.00    -0.162 N  
HETATM    6  C   UNL     1     -11.637  10.419  70.884  1.00  0.00    -0.428 C  
HETATM    7  C   UNL     1     -10.320  10.255  68.070  1.00  0.00    -0.181 C  
HETATM    8  C   UNL     1     -10.445   7.087  69.487  1.00  0.00    -0.235 A  
HETATM    9  C   UNL     1     -11.516   8.950  70.584  1.00  0.00    -0.280 A  
HETATM   10  C   UNL     1     -12.369   8.047  71.242  1.00  0.00    -0.290 A  
HETATM   11  C   UNL     1     -11.297   6.198  70.146  1.00  0.00    -0.433 A  
HETATM   12  C   UNL     1     -10.562   8.473  69.676  1.00  0.00    -0.220 A  
ENDROOT
BRANCH   1  13
HETATM   13  N   UNL     1     -11.852  12.077  67.437  1.00  0.00    -0.591 NA 
HETATM   14  H   UNL     1     -12.098  11.524  66.616  1.00  0.00     0.000 HD 
BRANCH  13  15
HETATM   15  C   UNL     1     -12.155  13.524  67.499  1.00  0.00    -0.300 C  
BRANCH  15  16
HETATM   16  C   UNL     1     -11.310  14.317  68.515  1.00  0.00    -0.309 C  
BRANCH  16  17
HETATM   17  C   UNL     1     -12.087  15.489  69.141  1.00  0.00    -0.266 C  
BRANCH  17  18
HETATM   18  C   UNL     1     -12.368  15.256  70.605  1.00  0.00    -0.427 A  
HETATM   19  C   UNL     1     -13.320  14.307  71.004  1.00  0.00    -0.326 A  
HETATM   20  C   UNL     1     -12.958  14.887  73.323  1.00  0.00    -0.635 A  
HETATM   21  C   UNL     1     -13.612  14.125  72.358  1.00  0.00    -0.632 A  
HETATM   22  C   UNL     1     -12.000  15.824  72.936  1.00  0.00    -0.599 A  
HETATM   23  C   UNL     1     -11.705  16.005  71.585  1.00  0.00    -0.583 A  
ENDBRANCH  17  18
ENDBRANCH  16  17
ENDBRANCH  15  16
BRANCH  15  24
HETATM   24  C   UNL     1     -11.891  14.114  66.095  1.00  0.00    -0.407 C  
HETATM   25  O   UNL     1     -11.111  15.029  65.866  1.00  0.00    -0.336 OA 
BRANCH  24  26
HETATM   26  O   UNL     1     -12.707  13.522  65.175  1.00  0.00    -0.611 OA 
BRANCH  26  27
HETATM   27  C   UNL     1     -12.133  13.331  63.872  1.00  0.00    -0.468 C  
HETATM   28  C   UNL     1     -11.055  12.263  63.939  1.00  0.00    -0.475 C  
ENDBRANCH  26  27
ENDBRANCH  24  26
ENDBRANCH  15  24
ENDBRANCH  13  15
ENDBRANCH   1  13
BRANCH   5  29
HETATM   29  C   UNL     1      -8.364   8.943  68.577  1.00  0.00    -0.125 C  
HETATM   30  C   UNL     1      -7.202   9.202  69.535  1.00  0.00    -0.060 C  
HETATM   31  O   UNL     1      -6.049   8.876  69.285  1.00  0.00    -0.041 OA 
HETATM   32  O   UNL     1      -7.515   9.858  70.675  1.00  0.00    -0.284 OA 
ENDBRANCH   5  29
TORSDOF 9
ENDMDL
MODEL        6
REMARK 921   NORMALIZED FREE ENERGY PREDICTED BY IDOCK:   -6.67 KCAL/MOL
REMARK 922        TOTAL FREE ENERGY PREDICTED BY IDOCK:  -12.34 KCAL/MOL
REMARK 923 INTER-LIGAND FREE ENERGY PREDICTED BY IDOCK:  -10.72 KCAL/MOL
REMARK 924 INTRA-LIGAND FREE ENERGY PREDICTED BY IDOCK:   -1.62 KCAL/MOL
REMARK 927      BINDING AFFINITY PREDICTED BY RF-SCORE:    0.00 PKD
ROOT
HETATM    1  C   UNL     1     -10.444  15.514  66.014  1.00  0.00    -0.323 C  
HETATM    2  C   UNL     1      -9.140  14.795  66.350  1.00  0.00    -0.267 C  
HETATM    3  O   UNL     1     -11.110  17.501  64.774  1.00  0.00    -0.959 OA 
HETATM    4  C   UNL     1      -5.383  17.557  66.188  1.00  0.00    -0.217 A  
HETATM    5  N   UNL     1      -9.613  17.888  66.481  1.00  0.00    -0.305 N  
HETATM    6  C   UNL     1      -8.322  15.494  67.420  1.00  0.00    -0.202 C  
HETATM    7  C   UNL     1     -10.352  17.032  65.633  1.00  0.00    -0.209 C  
HETATM    8  C   UNL     1      -7.400  18.845  65.873  1.00  0.00    -0.260 A  
HETATM    9  C   UNL     1      -7.542  16.628  66.813  1.00  0.00    -0.292 A  
HETATM   10  C   UNL     1      -6.144  16.517  66.711  1.00  0.00    -0.025 A  
HETATM   11  C   UNL     1      -6.011  18.725  65.776  1.00  0.00    -0.227 A  
HETATM   12  C   UNL     1      -8.183  17.790  66.365  1.00  0.00    -0.255 A  
ENDROOT
BRANCH   1  13
HETATM   13  N   UNL     1     -11.123  14.812  64.897  1.00  0.00    -0.416 NA 
HETATM   14  H   UNL     1     -11.488  15.329  64.097  1.00  0.00     0.000 HD 
BRANCH  13  15
HETATM   15  C   UNL     1     -11.255  13.341  64.978  1.00  0.00    -0.305 C  
BRANCH  15  16
HETATM   16  C   UNL     1     -12.100  12.832  66.162  1.00  0.00    -0.429 C  
BRANCH  16  17
HETATM   17  C   UNL     1     -11.263  12.048  67.189  1.00  0.00    -0.374 C  
BRANCH  17  18
HETATM   18  C   UNL     1     -11.691  12.347  68.605  1.00  0.00    -0.372 A  
HETATM   19  C   UNL     1     -11.934  11.303  69.509  1.00  0.00    -0.421 A  
HETATM   20  C   UNL     1     -12.576  12.896  71.211  1.00  0.00    -0.352 A  
HETATM   21  C   UNL     1     -12.374  11.579  70.806  1.00  0.00    -0.472 A  
HETATM   22  C   UNL     1     -12.323  13.941  70.322  1.00  0.00    -0.413 A  
HETATM   23  C   UNL     1     -11.881  13.668  69.028  1.00  0.00    -0.393 A  
ENDBRANCH  17  18
ENDBRANCH  16  17
ENDBRANCH  15  16
BRANCH  15  24
HETATM   24  C   UNL     1     -11.931  12.863  63.671  1.00  0.00    -0.541 C  
HETATM   25  O   UNL     1     -12.774  13.502  63.056  1.00  0.00    -0.668 OA 
BRANCH  24  26
HETATM   26  O   UNL     1     -11.508  11.604  63.357  1.00  0.00    -0.393 OA 
BRANCH  26  27
HETATM   27  C   UNL     1     -10.087  11.397  63.417  1.00  0.00    -0.405 C  
HETATM   28  C   UNL     1      -9.777  10.245  64.356  1.00  0.00    -0.381 C  
ENDBRANCH  26  27
ENDBRANCH  24  26
ENDBRANCH  15  24
ENDBRANCH  13  15
ENDBRANCH   1  13
BRANCH   5  29
HETATM   29  C   UNL     1     -10.214  19.232  66.606  1.00  0.00    -0.421 C  
HETATM   30  C   UNL     1     -10.269  19.825  68.013  1.00  0.00    -0.451 C  
HETATM   31  O   UNL     1     -10.752  20.924  68.254  1.00  0.00     0.405 OA 
HETATM   32  O   UNL     1      -9.783  19.041  69.001  1.00  0.00    -0.380 OA 
ENDBRANCH   5  29
TORSDOF 9
ENDMDL
MODEL        7
REMARK 921   NORMALIZED FREE ENERGY PREDICTED BY IDOCK:   -6.67 KCAL/MOL
REMARK 922        TOTAL FREE ENERGY PREDICTED BY IDOCK:  -12.34 KCAL/MOL
REMARK 923 INTER-LIGAND FREE ENERGY PREDICTED BY IDOCK:  -10.24 KCAL/MOL
REMARK 924 INTRA-LIGAND FREE ENERGY PREDICTED BY IDOCK:   -2.09 KCAL/MOL
REMARK 927      BINDING AFFINITY PREDICTED BY RF-SCORE:    0.00 PKD
ROOT
HETATM    1  C   UNL     1     -11.021  13.539  68.575  1.00  0.00    -0.267 C  
HETATM    2  C   UNL     1     -11.072  14.718  69.542  1.00  0.00    -0.302 C  
HETATM    3  O   UNL     1      -9.749  12.919  66.593  1.00  0.00    -0.241 OA 
HETATM    4  C   UNL     1      -9.448  18.700  67.732  1.00  0.00    -0.326 A  
HETATM    5  N   UNL     1     -10.884  14.916  66.423  1.00  0.00    -0.320 N  
HETATM    6  C   UNL     1     -11.751  15.947  68.966  1.00  0.00    -0.377 C  
HETATM    7  C   UNL     1     -10.415  13.800  67.153  1.00  0.00    -0.272 C  
HETATM    8  C   UNL     1      -9.539  16.974  66.047  1.00  0.00    -0.215 A  
HETATM    9  C   UNL     1     -10.790  16.704  68.092  1.00  0.00    -0.348 A  
HETATM   10  C   UNL     1     -10.311  17.952  68.526  1.00  0.00    -0.365 A  
HETATM   11  C   UNL     1      -9.069  18.213  66.487  1.00  0.00    -0.287 A  
HETATM   12  C   UNL     1     -10.380  16.193  66.853  1.00  0.00    -0.297 A  
ENDROOT
BRANCH   1  13
HETATM   13  N   UNL     1     -10.258  12.426  69.190  1.00  0.00    -0.411 NA 
HETATM   14  H   UNL     1      -9.238  12.420  69.179  1.00  0.00     0.000 HD 
BRANCH  13  15
HETATM   15  C   UNL     1     -11.019  11.324  69.819  1.00  0.00    -0.103 C  
BRANCH  15  16
HETATM   16  C   UNL     1     -12.508  11.630  70.071  1.00  0.00    -0.166 C  
BRANCH  16  17
HETATM   17  C   UNL     1     -12.840  11.746  71.570  1.00  0.00    -0.450 C  
BRANCH  17  18
HETATM   18  C   UNL     1     -13.065  13.180  71.984  1.00  0.00    -0.476 A  
HETATM   19  C   UNL     1     -12.357  13.727  73.065  1.00  0.00     0.511 A  
HETATM   20  C   UNL     1     -13.548  15.816  72.815  1.00  0.00    -0.662 A  
HETATM   21  C   UNL     1     -12.599  15.040  73.476  1.00  0.00    -0.664 A  
HETATM   22  C   UNL     1     -14.247  15.284  71.731  1.00  0.00    -0.669 A  
HETATM   23  C   UNL     1     -14.005  13.975  71.317  1.00  0.00    -0.122 A  
ENDBRANCH  17  18
ENDBRANCH  16  17
ENDBRANCH  15  16
BRANCH  15  24
HETATM   24  C   UNL     1     -10.937  10.104  68.873  1.00  0.00    -0.223 C  
HETATM   25  O   UNL     1     -11.604   9.971  67.856  1.00  0.00    -0.161 OA 
BRANCH  24  26
HETATM   26  O   UNL     1     -10.076   9.173  69.381  1.00  0.00    -0.185 OA 
BRANCH  26  27
HETATM   27  C   UNL     1     -10.622   8.320  70.401  1.00  0.00    -0.224 C  
HETATM   28  C   UNL     1      -9.851   8.513  71.695  1.00  0.00    -0.317 C  
ENDBRANCH  26  27
ENDBRANCH  24  26
ENDBRANCH  15  24
ENDBRANCH  13  15
ENDBRANCH   1  13
BRANCH   5  29
HETATM   29  C   UNL     1     -10.980  14.656  64.972  1.00  0.00    -0.405 C  
HETATM   30  C   UNL     1     -12.359  14.270  64.439  1.00  0.00    -0.391 C  
HETATM   31  O   UNL     1     -12.569  14.016  63.260  1.00  0.00    -0.801 OA 
HETATM   32  O   UNL     1     -13.342  14.183  65.361  1.00  0.00    -0.705 OA 
ENDBRANCH   5  29
TORSDOF 9
ENDMDL
MODEL        8
REMARK 921   NORMALIZED FREE ENERGY PREDICTED BY IDOCK:   -6.63 KCAL/MOL
REMARK 922        TOTAL FREE ENERGY PREDICTED BY IDOCK:  -12.27 KCAL/MOL
REMARK 923 INTER-LIGAND FREE ENERGY PREDICTED BY IDOCK:  -10.62 KCAL/MOL
REMARK 924 INTRA-LIGAND FREE ENERGY PREDICTED BY IDOCK:   -1.65 KCAL/MOL
REMARK 927      BINDING AFFINITY PREDICTED BY RF-SCORE:    0.00 PKD
ROOT
HETATM    1  C   UNL     1     -10.851  13.190  68.320  1.00  0.00    -0.253 C  
HETATM    2  C   UNL     1     -10.910  14.272  69.395  1.00  0.00    -0.197 C  
HETATM    3  O   UNL     1      -9.654  12.823  66.231  1.00  0.00    -0.257 OA 
HETATM    4  C   UNL     1      -9.581  18.484  67.890  1.00  0.00    -0.323 A  
HETATM    5  N   UNL     1     -10.894  14.762  66.303  1.00  0.00    -0.315 N  
HETATM    6  C   UNL     1     -11.678  15.509  68.968  1.00  0.00    -0.392 C  
HETATM    7  C   UNL     1     -10.333  13.612  66.902  1.00  0.00    -0.262 C  
HETATM    8  C   UNL     1      -9.673  16.915  66.057  1.00  0.00    -0.260 A  
HETATM    9  C   UNL     1     -10.802  16.394  68.125  1.00  0.00    -0.346 A  
HETATM   10  C   UNL     1     -10.364  17.621  68.651  1.00  0.00    -0.359 A  
HETATM   11  C   UNL     1      -9.243  18.133  66.589  1.00  0.00    -0.295 A  
HETATM   12  C   UNL     1     -10.432  16.020  66.826  1.00  0.00    -0.308 A  
ENDROOT
BRANCH   1  13
HETATM   13  N   UNL     1     -10.003  12.068  68.791  1.00  0.00    -0.395 NA 
HETATM   14  H   UNL     1      -8.985  12.135  68.770  1.00  0.00     0.000 HD 
BRANCH  13  15
HETATM   15  C   UNL     1     -10.675  10.850  69.294  1.00  0.00    -0.231 C  
BRANCH  15  16
HETATM   16  C   UNL     1     -12.151  11.046  69.694  1.00  0.00    -0.411 C  
BRANCH  16  17
HETATM   17  C   UNL     1     -12.382  10.854  71.204  1.00  0.00    -0.479 C  
BRANCH  17  18
HETATM   18  C   UNL     1     -12.476   9.394  71.574  1.00  0.00    -0.450 A  
HETATM   19  C   UNL     1     -11.362   8.721  72.100  1.00  0.00    -0.411 A  
HETATM   20  C   UNL     1     -12.618   6.657  72.177  1.00  0.00    -0.169 A  
HETATM   21  C   UNL     1     -11.436   7.359  72.400  1.00  0.00    -0.343 A  
HETATM   22  C   UNL     1     -13.734   7.321  71.667  1.00  0.00    -0.446 A  
HETATM   23  C   UNL     1     -13.663   8.681  71.370  1.00  0.00    -0.296 A  
ENDBRANCH  17  18
ENDBRANCH  16  17
ENDBRANCH  15  16
BRANCH  15  24
HETATM   24  C   UNL     1     -10.624   9.793  68.167  1.00  0.00    -0.231 C  
HETATM   25  O   UNL     1     -11.071   9.961  67.041  1.00  0.00    -0.122 OA 
BRANCH  24  26
HETATM   26  O   UNL     1     -10.083   8.631  68.638  1.00  0.00    -0.180 OA 
BRANCH  26  27
HETATM   27  C   UNL     1     -10.445   7.443  67.913  1.00  0.00    -0.205 C  
HETATM   28  C   UNL     1     -10.884   6.364  68.887  1.00  0.00    -0.382 C  
ENDBRANCH  26  27
ENDBRANCH  24  26
ENDBRANCH  15  24
ENDBRANCH  13  15
ENDBRANCH   1  13
BRANCH   5  29
HETATM   29  C   UNL     1     -11.052  14.630  64.839  1.00  0.00    -0.401 C  
HETATM   30  C   UNL     1     -12.391  14.086  64.345  1.00  0.00    -0.367 C  
HETATM   31  O   UNL     1     -12.643  13.917  63.159  1.00  0.00    -0.775 OA 
HETATM   32  O   UNL     1     -13.283  13.758  65.306  1.00  0.00    -0.755 OA 
ENDBRANCH   5  29
TORSDOF 9
ENDMDL
MODEL        9
REMARK 921   NORMALIZED FREE ENERGY PREDICTED BY IDOCK:   -6.61 KCAL/MOL
REMARK 922        TOTAL FREE ENERGY PREDICTED BY IDOCK:  -12.25 KCAL/MOL
REMARK 923 INTER-LIGAND FREE ENERGY PREDICTED BY IDOCK:  -10.34 KCAL/MOL
REMARK 924 INTRA-LIGAND FREE ENERGY PREDICTED BY IDOCK:   -1.90 KCAL/MOL
REMARK 927      BINDING AFFINITY PREDICTED BY RF-SCORE:    0.00 PKD
ROOT
HETATM    1  C   UNL     1      -9.303  13.844  67.596  1.00  0.00    -0.205 C  
HETATM    2  C   UNL     1      -7.913  14.449  67.773  1.00  0.00    -0.166 C  
HETATM    3  O   UNL     1     -11.514  14.629  66.945  1.00  0.00    -0.347 OA 
HETATM    4  C   UNL     1      -7.957  19.045  68.573  1.00  0.00    -0.381 A  
HETATM    5  N   UNL     1     -10.600  15.718  68.756  1.00  0.00    -0.229 N  
HETATM    6  C   UNL     1      -7.770  15.282  69.033  1.00  0.00    -0.183 C  
HETATM    7  C   UNL     1     -10.527  14.820  67.668  1.00  0.00    -0.254 C  
HETATM    8  C   UNL     1     -10.205  18.165  68.547  1.00  0.00    -0.399 A  
HETATM    9  C   UNL     1      -8.340  16.656  68.810  1.00  0.00    -0.252 A  
HETATM   10  C   UNL     1      -7.467  17.755  68.743  1.00  0.00    -0.263 A  
HETATM   11  C   UNL     1      -9.328  19.251  68.482  1.00  0.00    -0.443 A  
HETATM   12  C   UNL     1      -9.721  16.854  68.682  1.00  0.00    -0.267 A  
ENDROOT
BRANCH   1  13
HETATM   13  N   UNL     1      -9.372  13.132  66.297  1.00  0.00    -0.434 NA 
HETATM   14  H   UNL     1      -9.296  13.641  65.416  1.00  0.00     0.000 HD 
BRANCH  13  15
HETATM   15  C   UNL     1      -9.555  11.664  66.316  1.00  0.00    -0.221 C  
BRANCH  15  16
HETATM   16  C   UNL     1     -10.701  11.168  67.219  1.00  0.00    -0.304 C  
BRANCH  16  17
HETATM   17  C   UNL     1     -10.191  10.562  68.539  1.00  0.00    -0.190 C  
BRANCH  17  18
HETATM   18  C   UNL     1     -11.205  10.703  69.648  1.00  0.00    -0.351 A  
HETATM   19  C   UNL     1     -11.793  11.948  69.918  1.00  0.00    -0.418 A  
HETATM   20  C   UNL     1     -13.019  10.990  71.769  1.00  0.00    -0.544 A  
HETATM   21  C   UNL     1     -12.696  12.088  70.974  1.00  0.00    -0.337 A  
HETATM   22  C   UNL     1     -12.449   9.746  71.498  1.00  0.00    -0.495 A  
HETATM   23  C   UNL     1     -11.549   9.604  70.443  1.00  0.00    -0.299 A  
ENDBRANCH  17  18
ENDBRANCH  16  17
ENDBRANCH  15  16
BRANCH  15  24
HETATM   24  C   UNL     1      -9.860  11.216  64.868  1.00  0.00    -0.266 C  
HETATM   25  O   UNL     1      -9.738  10.069  64.459  1.00  0.00    -0.310 OA 
BRANCH  24  26
HETATM   26  O   UNL     1     -10.205  12.295  64.105  1.00  0.00    -0.328 OA 
BRANCH  26  27
HETATM   27  C   UNL     1     -11.438  12.167  63.377  1.00  0.00    -0.416 C  
HETATM   28  C   UNL     1     -12.610  12.408  64.311  1.00  0.00    -0.494 C  
ENDBRANCH  26  27
ENDBRANCH  24  26
ENDBRANCH  15  24
ENDBRANCH  13  15
ENDBRANCH   1  13
BRANCH   5  29
HETATM   29  C   UNL     1     -11.983  15.935  69.232  1.00  0.00    -0.242 C  
HETATM   30  C   UNL     1     -12.234  15.708  70.722  1.00  0.00    -0.418 C  
HETATM   31  O   UNL     1     -13.336  15.841  71.238  1.00  0.00    -0.532 OA 
HETATM   32  O   UNL     1     -11.164  15.307  71.444  1.00  0.00    -0.356 OA 
ENDBRANCH   5  29
TORSDOF 9
ENDMDL
MODEL       10
REMARK 921   NORMALIZED FREE ENERGY PREDICTED BY IDOCK:   -6.57 KCAL/MOL
REMARK 922        TOTAL FREE ENERGY PREDICTED BY IDOCK:  -12.18 KCAL/MOL
REMARK 923 INTER-LIGAND FREE ENERGY PREDICTED BY IDOCK:  -10.24 KCAL/MOL
REMARK 924 INTRA-LIGAND FREE ENERGY PREDICTED BY IDOCK:   -1.94 KCAL/MOL
REMARK 927      BINDING AFFINITY PREDICTED BY RF-SCORE:    0.00 PKD
ROOT
HETATM    1  C   UNL     1     -12.142  11.181  68.978  1.00  0.00    -0.246 C  
HETATM    2  C   UNL     1     -11.945  12.311  69.985  1.00  0.00    -0.379 C  
HETATM    3  O   UNL     1     -10.902  10.226  67.112  1.00  0.00    -0.262 OA 
HETATM    4  C   UNL     1      -9.015  15.634  68.522  1.00  0.00    -0.192 A  
HETATM    5  N   UNL     1     -11.362  12.473  66.913  1.00  0.00    -0.306 N  
HETATM    6  C   UNL     1     -12.157  13.693  69.394  1.00  0.00    -0.364 C  
HETATM    7  C   UNL     1     -11.332  11.261  67.638  1.00  0.00    -0.282 C  
HETATM    8  C   UNL     1      -9.430  14.032  66.764  1.00  0.00    -0.292 A  
HETATM    9  C   UNL     1     -10.923  14.133  68.657  1.00  0.00    -0.275 A  
HETATM   10  C   UNL     1     -10.144  15.174  69.191  1.00  0.00    -0.245 A  
HETATM   11  C   UNL     1      -8.662  15.068  67.303  1.00  0.00    -0.221 A  
HETATM   12  C   UNL     1     -10.550  13.534  67.446  1.00  0.00    -0.251 A  
ENDROOT
BRANCH   1  13
HETATM   13  N   UNL     1     -11.819   9.883  69.620  1.00  0.00    -0.462 NA 
HETATM   14  H   UNL     1     -11.984   9.002  69.133  1.00  0.00     0.000 HD 
BRANCH  13  15
HETATM   15  C   UNL     1     -11.252   9.904  70.986  1.00  0.00    -0.364 C  
BRANCH  15  16
HETATM   16  C   UNL     1     -11.986   9.008  72.003  1.00  0.00    -0.433 C  
BRANCH  16  17
HETATM   17  C   UNL     1     -12.674   7.803  71.337  1.00  0.00    -0.333 C  
BRANCH  17  18
HETATM   18  C   UNL     1     -11.740   6.625  71.208  1.00  0.00    -0.386 A  
HETATM   19  C   UNL     1     -11.341   5.907  72.344  1.00  0.00    -0.358 A  
HETATM   20  C   UNL     1      -9.931   4.493  70.981  1.00  0.00    -0.257 A  
HETATM   21  C   UNL     1     -10.441   4.845  72.229  1.00  0.00    -0.267 A  
HETATM   22  C   UNL     1     -10.333   5.194  69.844  1.00  0.00    -0.347 A  
HETATM   23  C   UNL     1     -11.234   6.252  69.957  1.00  0.00    -0.480 A  
ENDBRANCH  17  18
ENDBRANCH  16  17
ENDBRANCH  15  16
BRANCH  15  24
HETATM   24  C   UNL     1      -9.788   9.415  70.889  1.00  0.00    -0.268 C  
HETATM   25  O   UNL     1      -9.134   9.393  69.855  1.00  0.00    -0.171 OA 
BRANCH  24  26
HETATM   26  O   UNL     1      -9.369   8.944  72.100  1.00  0.00    -0.348 OA 
BRANCH  26  27
HETATM   27  C   UNL     1      -8.261   8.030  72.057  1.00  0.00    -0.137 C  
HETATM   28  C   UNL     1      -8.039   7.431  73.434  1.00  0.00    -0.140 C  
ENDBRANCH  26  27
ENDBRANCH  24  26
ENDBRANCH  15  24
ENDBRANCH  13  15
ENDBRANCH   1  13
BRANCH   5  29
HETATM   29  C   UNL     1     -11.369  12.268  65.449  1.00  0.00    -0.343 C  
HETATM   30  C   UNL     1     -12.430  13.034  64.660  1.00  0.00    -0.400 C  
HETATM   31  O   UNL     1     -12.551  12.941  63.445  1.00  0.00    -0.709 OA 
HETATM   32  O   UNL     1     -13.268  13.801  65.392  1.00  0.00    -0.722 OA 
ENDBRANCH   5  29
TORSDOF 9
ENDMDL
MODEL       11
REMARK 921   NORMALIZED FREE ENERGY PREDICTED BY IDOCK:   -6.54 KCAL/MOL
REMARK 922        TOTAL FREE ENERGY PREDICTED BY IDOCK:  -12.13 KCAL/MOL
REMARK 923 INTER-LIGAND FREE ENERGY PREDICTED BY IDOCK:  -10.85 KCAL/MOL
REMARK 924 INTRA-LIGAND FREE ENERGY PREDICTED BY IDOCK:   -1.28 KCAL/MOL
REMARK 927      BINDING AFFINITY PREDICTED BY RF-SCORE:    0.00 PKD
ROOT
HETATM    1  C   UNL     1     -11.576  13.502  68.812  1.00  0.00    -0.325 C  
HETATM    2  C   UNL     1     -11.430  14.801  69.600  1.00  0.00    -0.327 C  
HETATM    3  O   UNL     1     -10.313  12.305  67.108  1.00  0.00    -0.216 OA 
HETATM    4  C   UNL     1      -8.731  17.975  67.499  1.00  0.00    -0.248 A  
HETATM    5  N   UNL     1     -10.911  14.453  66.532  1.00  0.00    -0.310 N  
HETATM    6  C   UNL     1     -11.736  16.043  68.784  1.00  0.00    -0.302 C  
HETATM    7  C   UNL     1     -10.796  13.391  67.457  1.00  0.00    -0.263 C  
HETATM    8  C   UNL     1      -9.080  16.068  66.060  1.00  0.00    -0.361 A  
HETATM    9  C   UNL     1     -10.543  16.416  67.947  1.00  0.00    -0.320 A  
HETATM   10  C   UNL     1      -9.819  17.577  68.269  1.00  0.00    -0.319 A  
HETATM   11  C   UNL     1      -8.367  17.224  66.389  1.00  0.00    -0.315 A  
HETATM   12  C   UNL     1     -10.156  15.635  66.849  1.00  0.00    -0.263 A  
ENDROOT
BRANCH   1  13
HETATM   13  N   UNL     1     -11.164  12.358  69.661  1.00  0.00    -0.484 NA 
HETATM   14  H   UNL     1     -10.249  12.341  70.111  1.00  0.00     0.000 HD 
BRANCH  13  15
HETATM   15  C   UNL     1     -12.121  11.243  69.837  1.00  0.00    -0.341 C  
BRANCH  15  16
HETATM   16  C   UNL     1     -11.501   9.837  69.718  1.00  0.00    -0.145 C  
BRANCH  16  17
HETATM   17  C   UNL     1      -9.969   9.854  69.864  1.00  0.00    -0.292 C  
BRANCH  17  18
HETATM   18  C   UNL     1      -9.514   9.081  71.078  1.00  0.00    -0.342 A  
HETATM   19  C   UNL     1     -10.453   8.529  71.962  1.00  0.00    -0.407 A  
HETATM   20  C   UNL     1      -8.673   7.725  73.386  1.00  0.00    -0.283 A  
HETATM   21  C   UNL     1     -10.032   7.853  73.109  1.00  0.00    -0.358 A  
HETATM   22  C   UNL     1      -7.732   8.260  72.505  1.00  0.00    -0.167 A  
HETATM   23  C   UNL     1      -8.150   8.932  71.358  1.00  0.00    -0.160 A  
ENDBRANCH  17  18
ENDBRANCH  16  17
ENDBRANCH  15  16
BRANCH  15  24
HETATM   24  C   UNL     1     -12.733  11.375  71.251  1.00  0.00    -0.393 C  
HETATM   25  O   UNL     1     -13.285  10.464  71.853  1.00  0.00    -0.439 OA 
BRANCH  24  26
HETATM   26  O   UNL     1     -12.636  12.666  71.686  1.00  0.00    -0.214 OA 
BRANCH  26  27
HETATM   27  C   UNL     1     -13.848  13.234  72.209  1.00  0.00    -0.539 C  
HETATM   28  C   UNL     1     -13.649  14.717  72.463  1.00  0.00    -0.571 C  
ENDBRANCH  26  27
ENDBRANCH  24  26
ENDBRANCH  15  24
ENDBRANCH  13  15
ENDBRANCH   1  13
BRANCH   5  29
HETATM   29  C   UNL     1     -10.932  13.994  65.127  1.00  0.00    -0.353 C  
HETATM   30  C   UNL     1     -12.303  13.909  64.459  1.00  0.00    -0.372 C  
HETATM   31  O   UNL     1     -12.458  13.532  63.304  1.00  0.00    -0.763 OA 
HETATM   32  O   UNL     1     -13.358  14.241  65.236  1.00  0.00    -0.660 OA 
ENDBRANCH   5  29
TORSDOF 9
ENDMDL
MODEL       12
REMARK 921   NORMALIZED FREE ENERGY PREDICTED BY IDOCK:   -6.52 KCAL/MOL
REMARK 922        TOTAL FREE ENERGY PREDICTED BY IDOCK:  -12.11 KCAL/MOL
REMARK 923 INTER-LIGAND FREE ENERGY PREDICTED BY IDOCK:  -10.79 KCAL/MOL
REMARK 924 INTRA-LIGAND FREE ENERGY PREDICTED BY IDOCK:   -1.32 KCAL/MOL
REMARK 927      BINDING AFFINITY PREDICTED BY RF-SCORE:    0.00 PKD
ROOT
HETATM    1  C   UNL     1     -11.298  13.180  68.610  1.00  0.00    -0.289 C  
HETATM    2  C   UNL     1     -11.319  14.344  69.597  1.00  0.00    -0.309 C  
HETATM    3  O   UNL     1      -9.965  12.503  66.687  1.00  0.00    -0.226 OA 
HETATM    4  C   UNL     1      -9.319  18.228  67.957  1.00  0.00    -0.293 A  
HETATM    5  N   UNL     1     -10.945  14.578  66.497  1.00  0.00    -0.315 N  
HETATM    6  C   UNL     1     -11.876  15.627  69.009  1.00  0.00    -0.379 C  
HETATM    7  C   UNL     1     -10.597  13.420  67.228  1.00  0.00    -0.255 C  
HETATM    8  C   UNL     1      -9.438  16.540  66.235  1.00  0.00    -0.339 A  
HETATM    9  C   UNL     1     -10.817  16.328  68.204  1.00  0.00    -0.342 A  
HETATM   10  C   UNL     1     -10.275  17.531  68.688  1.00  0.00    -0.373 A  
HETATM   11  C   UNL     1      -8.906  17.735  66.725  1.00  0.00    -0.275 A  
HETATM   12  C   UNL     1     -10.376  15.808  66.979  1.00  0.00    -0.292 A  
ENDROOT
BRANCH   1  13
HETATM   13  N   UNL     1     -10.651  12.005  69.243  1.00  0.00    -0.442 NA 
HETATM   14  H   UNL     1      -9.713  12.073  69.638  1.00  0.00     0.000 HD 
BRANCH  13  15
HETATM   15  C   UNL     1     -11.405  10.732  69.283  1.00  0.00    -0.286 C  
BRANCH  15  16
HETATM   16  C   UNL     1     -10.611   9.497  68.815  1.00  0.00    -0.240 C  
BRANCH  16  17
HETATM   17  C   UNL     1     -10.647   9.318  67.287  1.00  0.00    -0.303 C  
BRANCH  17  18
HETATM   18  C   UNL     1     -10.214   7.932  66.875  1.00  0.00    -0.380 A  
HETATM   19  C   UNL     1     -10.946   6.808  67.283  1.00  0.00    -0.433 A  
HETATM   20  C   UNL     1      -9.358   5.350  66.189  1.00  0.00    -0.167 A  
HETATM   21  C   UNL     1     -10.519   5.523  66.940  1.00  0.00    -0.348 A  
HETATM   22  C   UNL     1      -8.631   6.463  65.767  1.00  0.00    -0.152 A  
HETATM   23  C   UNL     1      -9.058   7.747  66.106  1.00  0.00    -0.199 A  
ENDBRANCH  17  18
ENDBRANCH  16  17
ENDBRANCH  15  16
BRANCH  15  24
HETATM   24  C   UNL     1     -11.835  10.495  70.749  1.00  0.00    -0.365 C  
HETATM   25  O   UNL     1     -12.703  11.135  71.327  1.00  0.00    -0.397 OA 
BRANCH  24  26
HETATM   26  O   UNL     1     -11.055   9.529  71.317  1.00  0.00    -0.334 OA 
BRANCH  26  27
HETATM   27  C   UNL     1     -11.749   8.582  72.145  1.00  0.00    -0.378 C  
HETATM   28  C   UNL     1     -12.169   7.385  71.311  1.00  0.00    -0.374 C  
ENDBRANCH  26  27
ENDBRANCH  24  26
ENDBRANCH  15  24
ENDBRANCH  13  15
ENDBRANCH   1  13
BRANCH   5  29
HETATM   29  C   UNL     1     -10.978  14.349  65.037  1.00  0.00    -0.389 C  
HETATM   30  C   UNL     1     -12.330  13.964  64.439  1.00  0.00    -0.361 C  
HETATM   31  O   UNL     1     -12.489  13.735  63.247  1.00  0.00    -0.819 OA 
HETATM   32  O   UNL     1     -13.350  13.849  65.318  1.00  0.00    -0.732 OA 
ENDBRANCH   5  29
TORSDOF 9
ENDMDL
MODEL       13
REMARK 921   NORMALIZED FREE ENERGY PREDICTED BY IDOCK:   -6.48 KCAL/MOL
REMARK 922        TOTAL FREE ENERGY PREDICTED BY IDOCK:  -12.05 KCAL/MOL
REMARK 923 INTER-LIGAND FREE ENERGY PREDICTED BY IDOCK:  -10.69 KCAL/MOL
REMARK 924 INTRA-LIGAND FREE ENERGY PREDICTED BY IDOCK:   -1.36 KCAL/MOL
REMARK 927      BINDING AFFINITY PREDICTED BY RF-SCORE:    0.00 PKD
ROOT
HETATM    1  C   UNL     1     -11.199  13.448  67.673  1.00  0.00    -0.276 C  
HETATM    2  C   UNL     1     -11.469  14.806  68.317  1.00  0.00    -0.338 C  
HETATM    3  O   UNL     1     -12.147  11.208  67.783  1.00  0.00    -0.606 OA 
HETATM    4  C   UNL     1     -13.705  14.530  72.403  1.00  0.00    -0.583 A  
HETATM    5  N   UNL     1     -11.429  12.050  69.802  1.00  0.00    -0.250 N  
HETATM    6  C   UNL     1     -11.006  14.896  69.759  1.00  0.00    -0.280 C  
HETATM    7  C   UNL     1     -11.722  12.177  68.426  1.00  0.00    -0.332 C  
HETATM    8  C   UNL     1     -13.125  12.328  71.600  1.00  0.00    -0.408 A  
HETATM    9  C   UNL     1     -12.023  14.261  70.667  1.00  0.00    -0.392 A  
HETATM   10  C   UNL     1     -12.779  15.081  71.523  1.00  0.00    -0.414 A  
HETATM   11  C   UNL     1     -13.872  13.151  72.447  1.00  0.00    -0.583 A  
HETATM   12  C   UNL     1     -12.215  12.873  70.682  1.00  0.00    -0.302 A  
ENDROOT
BRANCH   1  13
HETATM   13  N   UNL     1     -11.771  13.426  66.305  1.00  0.00    -0.349 NA 
HETATM   14  H   UNL     1     -12.703  13.050  66.132  1.00  0.00     0.000 HD 
BRANCH  13  15
HETATM   15  C   UNL     1     -10.950  13.965  65.198  1.00  0.00    -0.350 C  
BRANCH  15  16
HETATM   16  C   UNL     1     -10.604  12.946  64.095  1.00  0.00    -0.442 C  
BRANCH  16  17
HETATM   17  C   UNL     1     -11.124  11.533  64.415  1.00  0.00    -0.359 C  
BRANCH  17  18
HETATM   18  C   UNL     1     -10.009  10.516  64.431  1.00  0.00    -0.410 A  
HETATM   19  C   UNL     1      -9.465  10.039  63.229  1.00  0.00    -0.230 A  
HETATM   20  C   UNL     1      -8.000   8.558  64.455  1.00  0.00    -0.145 A  
HETATM   21  C   UNL     1      -8.464   9.065  63.244  1.00  0.00    -0.180 A  
HETATM   22  C   UNL     1      -8.526   9.037  65.655  1.00  0.00    -0.163 A  
HETATM   23  C   UNL     1      -9.523  10.011  65.643  1.00  0.00    -0.278 A  
ENDBRANCH  17  18
ENDBRANCH  16  17
ENDBRANCH  15  16
BRANCH  15  24
HETATM   24  C   UNL     1     -11.748  15.119  64.548  1.00  0.00    -0.328 C  
HETATM   25  O   UNL     1     -12.749  14.966  63.861  1.00  0.00    -0.789 OA 
BRANCH  24  26
HETATM   26  O   UNL     1     -11.127  16.312  64.786  1.00  0.00    -0.561 OA 
BRANCH  26  27
HETATM   27  C   UNL     1      -9.944  16.240  65.600  1.00  0.00    -0.274 C  
HETATM   28  C   UNL     1      -9.783  17.531  66.382  1.00  0.00    -0.299 C  
ENDBRANCH  26  27
ENDBRANCH  24  26
ENDBRANCH  15  24
ENDBRANCH  13  15
ENDBRANCH   1  13
BRANCH   5  29
HETATM   29  C   UNL     1     -11.160  10.654  70.207  1.00  0.00    -0.233 C  
HETATM   30  C   UNL     1      -9.794  10.086  69.826  1.00  0.00    -0.235 C  
HETATM   31  O   UNL     1      -9.453   8.940  70.090  1.00  0.00    -0.164 OA 
HETATM   32  O   UNL     1      -8.984  10.917  69.133  1.00  0.00    -0.137 OA 
ENDBRANCH   5  29
TORSDOF 9
ENDMDL
MODEL       14
REMARK 921   NORMALIZED FREE ENERGY PREDICTED BY IDOCK:   -6.44 KCAL/MOL
REMARK 922        TOTAL FREE ENERGY PREDICTED BY IDOCK:  -11.99 KCAL/MOL
REMARK 923 INTER-LIGAND FREE ENERGY PREDICTED BY IDOCK:  -10.83 KCAL/MOL
REMARK 924 INTRA-LIGAND FREE ENERGY PREDICTED BY IDOCK:   -1.15 KCAL/MOL
REMARK 927      BINDING AFFINITY PREDICTED BY RF-SCORE:    0.00 PKD
ROOT
HETATM    1  C   UNL     1     -10.724  10.938  69.254  1.00  0.00    -0.231 C  
HETATM    2  C   UNL     1      -9.284  10.453  69.107  1.00  0.00    -0.202 C  
HETATM    3  O   UNL     1     -12.289  11.338  71.076  1.00  0.00    -0.374 OA 
HETATM    4  C   UNL     1      -7.807   7.859  72.694  1.00  0.00    -0.155 A  
HETATM    5  N   UNL     1     -11.461   9.192  70.971  1.00  0.00    -0.286 N  
HETATM    6  C   UNL     1      -9.125   8.957  69.308  1.00  0.00    -0.145 C  
HETATM    7  C   UNL     1     -11.486  10.545  70.566  1.00  0.00    -0.345 C  
HETATM    8  C   UNL     1     -10.156   8.367  72.922  1.00  0.00    -0.180 A  
HETATM    9  C   UNL     1      -9.085   8.635  70.776  1.00  0.00    -0.214 A  
HETATM   10  C   UNL     1      -7.877   8.200  71.347  1.00  0.00    -0.110 A  
HETATM   11  C   UNL     1      -8.950   7.935  73.479  1.00  0.00    -0.343 A  
HETATM   12  C   UNL     1     -10.232   8.748  71.574  1.00  0.00    -0.300 A  
ENDROOT
BRANCH   1  13
HETATM   13  N   UNL     1     -10.763  12.416  69.138  1.00  0.00    -0.433 NA 
HETATM   14  H   UNL     1     -10.144  13.002  69.698  1.00  0.00     0.000 HD 
BRANCH  13  15
HETATM   15  C   UNL     1     -11.725  13.015  68.187  1.00  0.00    -0.351 C  
BRANCH  15  16
HETATM   16  C   UNL     1     -11.953  14.528  68.366  1.00  0.00    -0.309 C  
BRANCH  16  17
HETATM   17  C   UNL     1     -11.197  15.098  69.580  1.00  0.00    -0.286 C  
BRANCH  17  18
HETATM   18  C   UNL     1     -12.107  15.288  70.768  1.00  0.00    -0.399 A  
HETATM   19  C   UNL     1     -13.454  14.902  70.701  1.00  0.00    -0.178 A  
HETATM   20  C   UNL     1     -13.825  15.724  72.944  1.00  0.00    -0.565 A  
HETATM   21  C   UNL     1     -14.307  15.119  71.785  1.00  0.00    -0.696 A  
HETATM   22  C   UNL     1     -12.483  16.099  73.024  1.00  0.00    -0.590 A  
HETATM   23  C   UNL     1     -11.629  15.880  71.944  1.00  0.00    -0.542 A  
ENDBRANCH  17  18
ENDBRANCH  16  17
ENDBRANCH  15  16
BRANCH  15  24
HETATM   24  C   UNL     1     -11.174  12.782  66.761  1.00  0.00    -0.295 C  
HETATM   25  O   UNL     1     -10.102  13.210  66.356  1.00  0.00    -0.267 OA 
BRANCH  24  26
HETATM   26  O   UNL     1     -12.090  12.103  66.009  1.00  0.00    -0.612 OA 
BRANCH  26  27
HETATM   27  C   UNL     1     -12.654  12.839  64.911  1.00  0.00    -0.470 C  
HETATM   28  C   UNL     1     -12.168  12.251  63.598  1.00  0.00    -0.665 C  
ENDBRANCH  26  27
ENDBRANCH  24  26
ENDBRANCH  15  24
ENDBRANCH  13  15
ENDBRANCH   1  13
BRANCH   5  29
HETATM   29  C   UNL     1     -12.734   8.748  71.576  1.00  0.00    -0.328 C  
HETATM   30  C   UNL     1     -13.128   7.290  71.341  1.00  0.00    -0.361 C  
HETATM   31  O   UNL     1     -14.163   6.802  71.776  1.00  0.00    -0.269 OA 
HETATM   32  O   UNL     1     -12.276   6.566  70.581  1.00  0.00    -0.331 OA 
ENDBRANCH   5  29
TORSDOF 9
ENDMDL
MODEL       15
REMARK 921   NORMALIZED FREE ENERGY PREDICTED BY IDOCK:   -6.43 KCAL/MOL
REMARK 922        TOTAL FREE ENERGY PREDICTED BY IDOCK:  -11.97 KCAL/MOL
REMARK 923 INTER-LIGAND FREE ENERGY PREDICTED BY IDOCK:  -10.55 KCAL/MOL
REMARK 924 INTRA-LIGAND FREE ENERGY PREDICTED BY IDOCK:   -1.43 KCAL/MOL
REMARK 927      BINDING AFFINITY PREDICTED BY RF-SCORE:    0.00 PKD
ROOT
HETATM    1  C   UNL     1     -10.278  10.272  68.113  1.00  0.00    -0.164 C  
HETATM    2  C   UNL     1      -9.306   9.230  67.567  1.00  0.00    -0.148 C  
HETATM    3  O   UNL     1     -12.130  11.598  67.254  1.00  0.00    -0.595 OA 
HETATM    4  C   UNL     1      -8.720   9.455  62.943  1.00  0.00    -0.228 A  
HETATM    5  N   UNL     1     -10.140  11.885  66.133  1.00  0.00    -0.221 N  
HETATM    6  C   UNL     1      -8.217   9.818  66.688  1.00  0.00    -0.120 C  
HETATM    7  C   UNL     1     -10.961  11.231  67.079  1.00  0.00    -0.294 C  
HETATM    8  C   UNL     1     -10.085  11.290  63.718  1.00  0.00    -0.412 A  
HETATM    9  C   UNL     1      -8.747  10.053  65.300  1.00  0.00    -0.182 A  
HETATM   10  C   UNL     1      -8.282   9.247  64.247  1.00  0.00    -0.153 A  
HETATM   11  C   UNL     1      -9.617  10.483  62.678  1.00  0.00    -0.285 A  
HETATM   12  C   UNL     1      -9.679  11.067  65.043  1.00  0.00    -0.254 A  
ENDROOT
BRANCH   1  13
HETATM   13  N   UNL     1     -11.355   9.594  68.875  1.00  0.00    -0.464 NA 
HETATM   14  H   UNL     1     -11.910   8.851  68.450  1.00  0.00     0.000 HD 
BRANCH  13  15
HETATM   15  C   UNL     1     -11.599  10.026  70.269  1.00  0.00    -0.280 C  
BRANCH  15  16
HETATM   16  C   UNL     1     -13.026  10.540  70.544  1.00  0.00    -0.289 C  
BRANCH  16  17
HETATM   17  C   UNL     1     -13.122  11.336  71.858  1.00  0.00    -0.510 C  
BRANCH  17  18
HETATM   18  C   UNL     1     -13.137  12.825  71.610  1.00  0.00    -0.428 A  
HETATM   19  C   UNL     1     -13.906  13.673  72.421  1.00  0.00    -0.691 A  
HETATM   20  C   UNL     1     -13.239  15.581  71.094  1.00  0.00    -0.576 A  
HETATM   21  C   UNL     1     -13.954  15.045  72.163  1.00  0.00    -0.610 A  
HETATM   22  C   UNL     1     -12.461  14.747  70.291  1.00  0.00    -0.393 A  
HETATM   23  C   UNL     1     -12.409  13.377  70.549  1.00  0.00    -0.401 A  
ENDBRANCH  17  18
ENDBRANCH  16  17
ENDBRANCH  15  16
BRANCH  15  24
HETATM   24  C   UNL     1     -11.347   8.806  71.184  1.00  0.00    -0.285 C  
HETATM   25  O   UNL     1     -10.595   8.810  72.150  1.00  0.00    -0.340 OA 
BRANCH  24  26
HETATM   26  O   UNL     1     -12.019   7.716  70.710  1.00  0.00    -0.264 OA 
BRANCH  26  27
HETATM   27  C   UNL     1     -12.775   6.984  71.688  1.00  0.00    -0.377 C  
HETATM   28  C   UNL     1     -14.247   7.337  71.564  1.00  0.00    -0.540 C  
ENDBRANCH  26  27
ENDBRANCH  24  26
ENDBRANCH  15  24
ENDBRANCH  13  15
ENDBRANCH   1  13
BRANCH   5  29
HETATM   29  C   UNL     1     -10.590  13.260  65.832  1.00  0.00    -0.281 C  
HETATM   30  C   UNL     1      -9.774  14.395  66.449  1.00  0.00    -0.302 C  
HETATM   31  O   UNL     1     -10.050  15.576  66.288  1.00  0.00    -0.264 OA 
HETATM   32  O   UNL     1      -8.737  14.016  67.229  1.00  0.00    -0.196 OA 
ENDBRANCH   5  29
TORSDOF 9
ENDMDL
MODEL       16
REMARK 921   NORMALIZED FREE ENERGY PREDICTED BY IDOCK:   -6.37 KCAL/MOL
REMARK 922        TOTAL FREE ENERGY PREDICTED BY IDOCK:  -11.87 KCAL/MOL
REMARK 923 INTER-LIGAND FREE ENERGY PREDICTED BY IDOCK:  -10.05 KCAL/MOL
REMARK 924 INTRA-LIGAND FREE ENERGY PREDICTED BY IDOCK:   -1.82 KCAL/MOL
REMARK 927      BINDING AFFINITY PREDICTED BY RF-SCORE:    0.00 PKD
ROOT
HETATM    1  C   UNL     1     -10.887  14.869  67.869  1.00  0.00    -0.276 C  
HETATM    2  C   UNL     1     -11.513  15.623  66.699  1.00  0.00     0.144 C  
HETATM    3  O   UNL     1      -9.950  15.426  70.046  1.00  0.00    -0.271 OA 
HETATM    4  C   UNL     1     -10.253  20.110  66.473  1.00  0.00    -0.558 A  
HETATM    5  N   UNL     1      -8.942  16.483  68.266  1.00  0.00    -0.207 N  
HETATM    6  C   UNL     1     -10.503  16.374  65.851  1.00  0.00    -0.350 C  
HETATM    7  C   UNL     1      -9.958  15.682  68.835  1.00  0.00    -0.215 C  
HETATM    8  C   UNL     1      -9.024  18.968  68.209  1.00  0.00    -0.372 A  
HETATM    9  C   UNL     1     -10.150  17.681  66.507  1.00  0.00    -0.350 A  
HETATM   10  C   UNL     1     -10.587  18.880  65.918  1.00  0.00    -0.438 A  
HETATM   11  C   UNL     1      -9.464  20.154  67.615  1.00  0.00    -0.514 A  
HETATM   12  C   UNL     1      -9.385  17.719  67.680  1.00  0.00    -0.250 A  
ENDROOT
BRANCH   1  13
HETATM   13  N   UNL     1     -11.956  14.251  68.690  1.00  0.00    -0.459 NA 
HETATM   14  H   UNL     1     -12.669  14.824  69.140  1.00  0.00     0.000 HD 
BRANCH  13  15
HETATM   15  C   UNL     1     -11.958  12.778  68.836  1.00  0.00    -0.244 C  
BRANCH  15  16
HETATM   16  C   UNL     1     -10.678  12.079  68.340  1.00  0.00    -0.255 C  
BRANCH  16  17
HETATM   17  C   UNL     1     -10.981  10.859  67.451  1.00  0.00    -0.353 C  
BRANCH  17  18
HETATM   18  C   UNL     1     -10.839  11.186  65.984  1.00  0.00    -0.230 A  
HETATM   19  C   UNL     1      -9.901  10.508  65.192  1.00  0.00    -0.359 A  
HETATM   20  C   UNL     1     -10.510  11.856  63.279  1.00  0.00    -0.427 A  
HETATM   21  C   UNL     1      -9.739  10.843  63.845  1.00  0.00    -0.352 A  
HETATM   22  C   UNL     1     -11.455  12.526  64.057  1.00  0.00    -0.476 A  
HETATM   23  C   UNL     1     -11.620  12.192  65.400  1.00  0.00    -0.383 A  
ENDBRANCH  17  18
ENDBRANCH  16  17
ENDBRANCH  15  16
BRANCH  15  24
HETATM   24  C   UNL     1     -12.121  12.462  70.341  1.00  0.00    -0.297 C  
HETATM   25  O   UNL     1     -12.040  11.341  70.824  1.00  0.00    -0.356 OA 
BRANCH  24  26
HETATM   26  O   UNL     1     -12.446  13.597  71.027  1.00  0.00    -0.354 OA 
BRANCH  26  27
HETATM   27  C   UNL     1     -13.302  13.407  72.166  1.00  0.00    -0.520 C  
HETATM   28  C   UNL     1     -13.269  14.647  73.042  1.00  0.00    -0.587 C  
ENDBRANCH  26  27
ENDBRANCH  24  26
ENDBRANCH  15  24
ENDBRANCH  13  15
ENDBRANCH   1  13
BRANCH   5  29
HETATM   29  C   UNL     1      -7.701  16.495  69.069  1.00  0.00    -0.228 C  
HETATM   30  C   UNL     1      -6.428  16.033  68.361  1.00  0.00    -0.120 C  
HETATM   31  O   UNL     1      -5.339  15.984  68.917  1.00  0.00    -0.105 OA 
HETATM   32  O   UNL     1      -6.579  15.637  67.078  1.00  0.00    -0.283 OA 
ENDBRANCH   5  29
TORSDOF 9
ENDMDL
MODEL       17
REMARK 921   NORMALIZED FREE ENERGY PREDICTED BY IDOCK:   -6.34 KCAL/MOL
REMARK 922        TOTAL FREE ENERGY PREDICTED BY IDOCK:  -11.83 KCAL/MOL
REMARK 923 INTER-LIGAND FREE ENERGY PREDICTED BY IDOCK:  -10.55 KCAL/MOL
REMARK 924 INTRA-LIGAND FREE ENERGY PREDICTED BY IDOCK:   -1.28 KCAL/MOL
REMARK 927      BINDING AFFINITY PREDICTED BY RF-SCORE:    0.00 PKD
ROOT
HETATM    1  C   UNL     1     -12.037  11.751  69.588  1.00  0.00    -0.258 C  
HETATM    2  C   UNL     1     -10.640  11.507  69.023  1.00  0.00    -0.207 C  
HETATM    3  O   UNL     1     -13.126  11.609  71.761  1.00  0.00    -0.465 OA 
HETATM    4  C   UNL     1      -8.069   8.576  71.587  1.00  0.00    -0.195 A  
HETATM    5  N   UNL     1     -12.149   9.651  71.044  1.00  0.00    -0.320 N  
HETATM    6  C   UNL     1     -10.293  10.036  68.879  1.00  0.00    -0.217 C  
HETATM    7  C   UNL     1     -12.405  11.037  70.933  1.00  0.00    -0.402 C  
HETATM    8  C   UNL     1     -10.324   8.700  72.441  1.00  0.00    -0.317 A  
HETATM    9  C   UNL     1      -9.856   9.478  70.206  1.00  0.00    -0.313 A  
HETATM   10  C   UNL     1      -8.507   9.128  70.387  1.00  0.00    -0.222 A  
HETATM   11  C   UNL     1      -8.981   8.354  72.611  1.00  0.00    -0.304 A  
HETATM   12  C   UNL     1     -10.771   9.291  71.250  1.00  0.00    -0.352 A  
ENDROOT
BRANCH   1  13
HETATM   13  N   UNL     1     -12.245  13.207  69.781  1.00  0.00    -0.249 NA 
HETATM   14  H   UNL     1     -13.062  13.558  70.282  1.00  0.00     0.000 HD 
BRANCH  13  15
HETATM   15  C   UNL     1     -11.235  14.135  69.227  1.00  0.00    -0.269 C  
BRANCH  15  16
HETATM   16  C   UNL     1     -11.544  14.653  67.808  1.00  0.00    -0.382 C  
BRANCH  16  17
HETATM   17  C   UNL     1     -10.480  14.226  66.781  1.00  0.00    -0.273 C  
BRANCH  17  18
HETATM   18  C   UNL     1     -11.086  13.452  65.636  1.00  0.00    -0.298 A  
HETATM   19  C   UNL     1     -10.294  13.057  64.548  1.00  0.00    -0.386 A  
HETATM   20  C   UNL     1     -12.229  12.095  63.462  1.00  0.00    -0.670 A  
HETATM   21  C   UNL     1     -10.865  12.381  63.467  1.00  0.00    -0.487 A  
HETATM   22  C   UNL     1     -13.021  12.472  64.547  1.00  0.00    -0.215 A  
HETATM   23  C   UNL     1     -12.452  13.145  65.628  1.00  0.00    -0.485 A  
ENDBRANCH  17  18
ENDBRANCH  16  17
ENDBRANCH  15  16
BRANCH  15  24
HETATM   24  C   UNL     1     -11.157  15.356  70.173  1.00  0.00    -0.307 C  
HETATM   25  O   UNL     1     -10.880  16.492  69.814  1.00  0.00    -0.331 OA 
BRANCH  24  26
HETATM   26  O   UNL     1     -11.363  14.962  71.464  1.00  0.00    -0.313 OA 
BRANCH  26  27
HETATM   27  C   UNL     1     -12.122  15.875  72.274  1.00  0.00    -0.503 C  
HETATM   28  C   UNL     1     -13.588  15.481  72.250  1.00  0.00    -0.618 C  
ENDBRANCH  26  27
ENDBRANCH  24  26
ENDBRANCH  15  24
ENDBRANCH  13  15
ENDBRANCH   1  13
BRANCH   5  29
HETATM   29  C   UNL     1     -13.182   8.935  71.822  1.00  0.00    -0.378 C  
HETATM   30  C   UNL     1     -13.394   7.462  71.477  1.00  0.00    -0.372 C  
HETATM   31  O   UNL     1     -14.227   6.762  72.038  1.00  0.00    -0.241 OA 
HETATM   32  O   UNL     1     -12.628   6.976  70.476  1.00  0.00    -0.195 OA 
ENDBRANCH   5  29
TORSDOF 9
ENDMDL
MODEL       18
REMARK 921   NORMALIZED FREE ENERGY PREDICTED BY IDOCK:   -6.34 KCAL/MOL
REMARK 922        TOTAL FREE ENERGY PREDICTED BY IDOCK:  -11.83 KCAL/MOL
REMARK 923 INTER-LIGAND FREE ENERGY PREDICTED BY IDOCK:  -10.99 KCAL/MOL
REMARK 924 INTRA-LIGAND FREE ENERGY PREDICTED BY IDOCK:   -0.83 KCAL/MOL
REMARK 927      BINDING AFFINITY PREDICTED BY RF-SCORE:    0.00 PKD
ROOT
HETATM    1  C   UNL     1     -11.508  13.554  68.774  1.00  0.00    -0.311 C  
HETATM    2  C   UNL     1     -11.418  14.862  69.557  1.00  0.00    -0.325 C  
HETATM    3  O   UNL     1     -10.200  12.410  67.069  1.00  0.00    -0.219 OA 
HETATM    4  C   UNL     1      -8.877  18.147  67.431  1.00  0.00    -0.256 A  
HETATM    5  N   UNL     1     -10.897  14.525  66.488  1.00  0.00    -0.308 N  
HETATM    6  C   UNL     1     -11.784  16.085  68.737  1.00  0.00    -0.302 C  
HETATM    7  C   UNL     1     -10.729  13.474  67.416  1.00  0.00    -0.263 C  
HETATM    8  C   UNL     1      -9.144  16.221  66.001  1.00  0.00    -0.332 A  
HETATM    9  C   UNL     1     -10.613  16.509  67.893  1.00  0.00    -0.329 A  
HETATM   10  C   UNL     1      -9.941  17.703  68.208  1.00  0.00    -0.339 A  
HETATM   11  C   UNL     1      -8.483  17.409  66.322  1.00  0.00    -0.260 A  
HETATM   12  C   UNL     1     -10.196  15.742  66.797  1.00  0.00    -0.282 A  
ENDROOT
BRANCH   1  13
HETATM   13  N   UNL     1     -11.041  12.434  69.626  1.00  0.00    -0.470 NA 
HETATM   14  H   UNL     1     -10.129  12.467  70.083  1.00  0.00     0.000 HD 
BRANCH  13  15
HETATM   15  C   UNL     1     -11.935  11.267  69.793  1.00  0.00    -0.360 C  
BRANCH  15  16
HETATM   16  C   UNL     1     -11.214   9.906  69.864  1.00  0.00    -0.298 C  
BRANCH  16  17
HETATM   17  C   UNL     1     -10.502   9.548  68.547  1.00  0.00    -0.247 C  
BRANCH  17  18
HETATM   18  C   UNL     1     -10.479   8.058  68.310  1.00  0.00    -0.210 A  
HETATM   19  C   UNL     1     -10.738   7.167  69.363  1.00  0.00    -0.246 A  
HETATM   20  C   UNL     1     -10.347   5.286  67.895  1.00  0.00    -0.189 A  
HETATM   21  C   UNL     1     -10.672   5.788  69.153  1.00  0.00    -0.370 A  
HETATM   22  C   UNL     1     -10.101   6.165  66.840  1.00  0.00    -0.232 A  
HETATM   23  C   UNL     1     -10.169   7.542  67.046  1.00  0.00    -0.368 A  
ENDBRANCH  17  18
ENDBRANCH  16  17
ENDBRANCH  15  16
BRANCH  15  24
HETATM   24  C   UNL     1     -12.713  11.464  71.115  1.00  0.00    -0.377 C  
HETATM   25  O   UNL     1     -13.338  10.581  71.687  1.00  0.00    -0.377 OA 
BRANCH  24  26
HETATM   26  O   UNL     1     -12.662  12.773  71.499  1.00  0.00    -0.321 OA 
BRANCH  26  27
HETATM   27  C   UNL     1     -13.743  13.212  72.338  1.00  0.00    -0.540 C  
HETATM   28  C   UNL     1     -14.305  14.518  71.805  1.00  0.00    -0.609 C  
ENDBRANCH  26  27
ENDBRANCH  24  26
ENDBRANCH  15  24
ENDBRANCH  13  15
ENDBRANCH   1  13
BRANCH   5  29
HETATM   29  C   UNL     1     -10.903  14.060  65.085  1.00  0.00    -0.369 C  
HETATM   30  C   UNL     1     -12.273  13.802  64.459  1.00  0.00    -0.403 C  
HETATM   31  O   UNL     1     -12.415  13.402  63.311  1.00  0.00    -0.739 OA 
HETATM   32  O   UNL     1     -13.337  14.003  65.268  1.00  0.00    -0.741 OA 
ENDBRANCH   5  29
TORSDOF 9
ENDMDL
MODEL       19
REMARK 921   NORMALIZED FREE ENERGY PREDICTED BY IDOCK:   -6.33 KCAL/MOL
REMARK 922        TOTAL FREE ENERGY PREDICTED BY IDOCK:  -11.81 KCAL/MOL
REMARK 923 INTER-LIGAND FREE ENERGY PREDICTED BY IDOCK:   -9.86 KCAL/MOL
REMARK 924 INTRA-LIGAND FREE ENERGY PREDICTED BY IDOCK:   -1.95 KCAL/MOL
REMARK 927      BINDING AFFINITY PREDICTED BY RF-SCORE:    0.00 PKD
ROOT
HETATM    1  C   UNL     1     -10.192  13.364  68.232  1.00  0.00    -0.250 C  
HETATM    2  C   UNL     1      -8.742  12.921  68.410  1.00  0.00    -0.119 C  
HETATM    3  O   UNL     1     -12.292  12.339  67.550  1.00  0.00    -0.330 OA 
HETATM    4  C   UNL     1      -7.606   9.165  65.887  1.00  0.00    -0.095 A  
HETATM    5  N   UNL     1     -10.598  12.186  65.999  1.00  0.00    -0.249 N  
HETATM    6  C   UNL     1      -7.998  12.740  67.100  1.00  0.00    -0.112 C  
HETATM    7  C   UNL     1     -11.095  12.505  67.282  1.00  0.00    -0.274 C  
HETATM    8  C   UNL     1      -9.839   9.909  65.347  1.00  0.00    -0.384 A  
HETATM    9  C   UNL     1      -8.334  11.403  66.498  1.00  0.00    -0.164 A  
HETATM   10  C   UNL     1      -7.347  10.402  66.466  1.00  0.00    -0.119 A  
HETATM   11  C   UNL     1      -8.851   8.921  65.320  1.00  0.00    -0.227 A  
HETATM   12  C   UNL     1      -9.602  11.149  65.960  1.00  0.00    -0.217 A  
ENDROOT
BRANCH   1  13
HETATM   13  N   UNL     1     -10.859  13.420  69.556  1.00  0.00    -0.449 NA 
HETATM   14  H   UNL     1     -11.052  12.567  70.082  1.00  0.00     0.000 HD 
BRANCH  13  15
HETATM   15  C   UNL     1     -11.235  14.747  70.091  1.00  0.00    -0.214 C  
BRANCH  15  16
HETATM   16  C   UNL     1     -11.549  15.809  69.019  1.00  0.00    -0.406 C  
BRANCH  16  17
HETATM   17  C   UNL     1     -10.712  17.089  69.196  1.00  0.00    -0.253 C  
BRANCH  17  18
HETATM   18  C   UNL     1      -9.575  17.156  68.206  1.00  0.00    -0.280 A  
HETATM   19  C   UNL     1      -9.654  16.470  66.985  1.00  0.00    -0.249 A  
HETATM   20  C   UNL     1      -7.425  17.203  66.404  1.00  0.00    -0.341 A  
HETATM   21  C   UNL     1      -8.583  16.495  66.089  1.00  0.00    -0.334 A  
HETATM   22  C   UNL     1      -7.343  17.900  67.610  1.00  0.00    -0.211 A  
HETATM   23  C   UNL     1      -8.413  17.878  68.504  1.00  0.00    -0.303 A  
ENDBRANCH  17  18
ENDBRANCH  16  17
ENDBRANCH  15  16
BRANCH  15  24
HETATM   24  C   UNL     1     -12.502  14.556  70.957  1.00  0.00    -0.341 C  
HETATM   25  O   UNL     1     -13.114  13.502  71.063  1.00  0.00    -0.250 OA 
BRANCH  24  26
HETATM   26  O   UNL     1     -12.873  15.746  71.514  1.00  0.00    -0.456 OA 
BRANCH  26  27
HETATM   27  C   UNL     1     -12.078  16.181  72.629  1.00  0.00    -0.554 C  
HETATM   28  C   UNL     1     -12.480  15.412  73.874  1.00  0.00    -0.763 C  
ENDBRANCH  26  27
ENDBRANCH  24  26
ENDBRANCH  15  24
ENDBRANCH  13  15
ENDBRANCH   1  13
BRANCH   5  29
HETATM   29  C   UNL     1     -11.648  12.185  64.959  1.00  0.00    -0.310 C  
HETATM   30  C   UNL     1     -11.796  13.465  64.138  1.00  0.00    -0.442 C  
HETATM   31  O   UNL     1     -12.635  13.597  63.257  1.00  0.00    -0.816 OA 
HETATM   32  O   UNL     1     -10.962  14.476  64.471  1.00  0.00    -0.347 OA 
ENDBRANCH   5  29
TORSDOF 9
ENDMDL
MODEL       20
REMARK 921   NORMALIZED FREE ENERGY PREDICTED BY IDOCK:   -6.32 KCAL/MOL
REMARK 922        TOTAL FREE ENERGY PREDICTED BY IDOCK:  -11.81 KCAL/MOL
REMARK 923 INTER-LIGAND FREE ENERGY PREDICTED BY IDOCK:  -10.28 KCAL/MOL
REMARK 924 INTRA-LIGAND FREE ENERGY PREDICTED BY IDOCK:   -1.53 KCAL/MOL
REMARK 927      BINDING AFFINITY PREDICTED BY RF-SCORE:    0.00 PKD
ROOT
HETATM    1  C   UNL     1     -11.266  11.432  68.157  1.00  0.00    -0.278 C  
HETATM    2  C   UNL     1     -12.206  11.393  69.359  1.00  0.00    -0.288 C  
HETATM    3  O   UNL     1     -10.349   9.833  66.565  1.00  0.00    -0.234 OA 
HETATM    4  C   UNL     1     -12.446   7.212  71.417  1.00  0.00    -0.427 A  
HETATM    5  N   UNL     1      -9.898   9.360  68.773  1.00  0.00    -0.159 N  
HETATM    6  C   UNL     1     -11.568  10.816  70.609  1.00  0.00    -0.388 C  
HETATM    7  C   UNL     1     -10.552  10.094  67.759  1.00  0.00    -0.256 C  
HETATM    8  C   UNL     1     -10.762   7.214  69.688  1.00  0.00    -0.256 A  
HETATM    9  C   UNL     1     -11.583   9.313  70.548  1.00  0.00    -0.266 A  
HETATM   10  C   UNL     1     -12.428   8.603  71.418  1.00  0.00    -0.337 A  
HETATM   11  C   UNL     1     -11.606   6.518  70.556  1.00  0.00    -0.455 A  
HETATM   12  C   UNL     1     -10.760   8.617  69.653  1.00  0.00    -0.200 A  
ENDROOT
BRANCH   1  13
HETATM   13  N   UNL     1     -12.005  11.918  66.966  1.00  0.00    -0.601 NA 
HETATM   14  H   UNL     1     -12.539  11.275  66.382  1.00  0.00     0.000 HD 
BRANCH  13  15
HETATM   15  C   UNL     1     -11.943  13.362  66.651  1.00  0.00    -0.399 C  
BRANCH  15  16
HETATM   16  C   UNL     1     -10.520  13.954  66.613  1.00  0.00    -0.272 C  
BRANCH  16  17
HETATM   17  C   UNL     1     -10.253  14.920  67.782  1.00  0.00    -0.236 C  
BRANCH  17  18
HETATM   18  C   UNL     1     -10.391  16.362  67.359  1.00  0.00    -0.295 A  
HETATM   19  C   UNL     1     -10.386  16.708  65.999  1.00  0.00    -0.352 A  
HETATM   20  C   UNL     1     -10.554  19.050  66.572  1.00  0.00    -0.495 A  
HETATM   21  C   UNL     1     -10.468  18.047  65.610  1.00  0.00    -0.101 A  
HETATM   22  C   UNL     1     -10.574  18.715  67.926  1.00  0.00    -0.397 A  
HETATM   23  C   UNL     1     -10.495  17.378  68.316  1.00  0.00    -0.385 A  
ENDBRANCH  17  18
ENDBRANCH  16  17
ENDBRANCH  15  16
BRANCH  15  24
HETATM   24  C   UNL     1     -12.578  13.560  65.255  1.00  0.00    -0.468 C  
HETATM   25  O   UNL     1     -12.741  14.647  64.717  1.00  0.00    -0.552 OA 
BRANCH  24  26
HETATM   26  O   UNL     1     -12.996  12.360  64.756  1.00  0.00    -0.786 OA 
BRANCH  26  27
HETATM   27  C   UNL     1     -12.501  12.029  63.448  1.00  0.00    -0.509 C  
HETATM   28  C   UNL     1     -11.017  11.717  63.528  1.00  0.00    -0.485 C  
ENDBRANCH  26  27
ENDBRANCH  24  26
ENDBRANCH  15  24
ENDBRANCH  13  15
ENDBRANCH   1  13
BRANCH   5  29
HETATM   29  C   UNL     1      -8.654   8.715  68.306  1.00  0.00    -0.138 C  
HETATM   30  C   UNL     1      -7.362   9.140  69.003  1.00  0.00    -0.073 C  
HETATM   31  O   UNL     1      -6.265   8.691  68.701  1.00  0.00    -0.044 OA 
HETATM   32  O   UNL     1      -7.495  10.084  69.961  1.00  0.00    -0.148 OA 
ENDBRANCH   5  29
TORSDOF 9
ENDMDL
MODEL       21
REMARK 921   NORMALIZED FREE ENERGY PREDICTED BY IDOCK:   -6.29 KCAL/MOL
REMARK 922        TOTAL FREE ENERGY PREDICTED BY IDOCK:  -11.76 KCAL/MOL
REMARK 923 INTER-LIGAND FREE ENERGY PREDICTED BY IDOCK:  -10.09 KCAL/MOL
REMARK 924 INTRA-LIGAND FREE ENERGY PREDICTED BY IDOCK:   -1.67 KCAL/MOL
REMARK 927      BINDING AFFINITY PREDICTED BY RF-SCORE:    0.00 PKD
ROOT
HETATM    1  C   UNL     1     -12.019  11.874  68.375  1.00  0.00    -0.182 C  
HETATM    2  C   UNL     1     -11.803  12.824  69.550  1.00  0.00    -0.379 C  
HETATM    3  O   UNL     1     -10.750  11.128  66.436  1.00  0.00    -0.261 OA 
HETATM    4  C   UNL     1      -8.607  16.123  68.730  1.00  0.00    -0.236 A  
HETATM    5  N   UNL     1     -11.061  13.406  66.565  1.00  0.00    -0.294 N  
HETATM    6  C   UNL     1     -11.902  14.290  69.170  1.00  0.00    -0.368 C  
HETATM    7  C   UNL     1     -11.141  12.099  67.097  1.00  0.00    -0.291 C  
HETATM    8  C   UNL     1      -9.033  14.835  66.733  1.00  0.00    -0.292 A  
HETATM    9  C   UNL     1     -10.608  14.751  68.558  1.00  0.00    -0.248 A  
HETATM   10  C   UNL     1      -9.794  15.645  69.276  1.00  0.00    -0.269 A  
HETATM   11  C   UNL     1      -8.231  15.723  67.454  1.00  0.00    -0.196 A  
HETATM   12  C   UNL     1     -10.213  14.317  67.286  1.00  0.00    -0.252 A  
ENDROOT
BRANCH   1  13
HETATM   13  N   UNL     1     -11.809  10.476  68.823  1.00  0.00    -0.674 NA 
HETATM   14  H   UNL     1     -12.322   9.705  68.396  1.00  0.00     0.000 HD 
BRANCH  13  15
HETATM   15  C   UNL     1     -10.832  10.232  69.908  1.00  0.00    -0.302 C  
BRANCH  15  16
HETATM   16  C   UNL     1     -11.451   9.768  71.241  1.00  0.00    -0.457 C  
BRANCH  16  17
HETATM   17  C   UNL     1     -12.180   8.418  71.114  1.00  0.00    -0.248 C  
BRANCH  17  18
HETATM   18  C   UNL     1     -11.644   7.399  72.090  1.00  0.00    -0.331 A  
HETATM   19  C   UNL     1     -10.690   7.767  73.050  1.00  0.00    -0.446 A  
HETATM   20  C   UNL     1     -10.577   5.487  73.844  1.00  0.00    -0.304 A  
HETATM   21  C   UNL     1     -10.161   6.814  73.923  1.00  0.00    -0.396 A  
HETATM   22  C   UNL     1     -11.535   5.114  72.900  1.00  0.00    -0.329 A  
HETATM   23  C   UNL     1     -12.066   6.065  72.030  1.00  0.00    -0.170 A  
ENDBRANCH  17  18
ENDBRANCH  16  17
ENDBRANCH  15  16
BRANCH  15  24
HETATM   24  C   UNL     1      -9.865   9.127  69.422  1.00  0.00    -0.172 C  
HETATM   25  O   UNL     1      -8.779   8.887  69.931  1.00  0.00    -0.126 OA 
BRANCH  24  26
HETATM   26  O   UNL     1     -10.366   8.524  68.304  1.00  0.00    -0.204 OA 
BRANCH  26  27
HETATM   27  C   UNL     1      -9.831   7.222  68.014  1.00  0.00    -0.145 C  
HETATM   28  C   UNL     1     -10.847   6.157  68.389  1.00  0.00    -0.382 C  
ENDBRANCH  26  27
ENDBRANCH  24  26
ENDBRANCH  15  24
ENDBRANCH  13  15
ENDBRANCH   1  13
BRANCH   5  29
HETATM   29  C   UNL     1     -11.009  13.424  65.088  1.00  0.00    -0.303 C  
HETATM   30  C   UNL     1     -12.319  13.736  64.364  1.00  0.00    -0.344 C  
HETATM   31  O   UNL     1     -12.412  13.768  63.144  1.00  0.00    -0.786 OA 
HETATM   32  O   UNL     1     -13.395  13.937  65.157  1.00  0.00    -0.698 OA 
ENDBRANCH   5  29
TORSDOF 9
ENDMDL
MODEL       22
REMARK 921   NORMALIZED FREE ENERGY PREDICTED BY IDOCK:   -6.22 KCAL/MOL
REMARK 922        TOTAL FREE ENERGY PREDICTED BY IDOCK:  -11.65 KCAL/MOL
REMARK 923 INTER-LIGAND FREE ENERGY PREDICTED BY IDOCK:  -10.29 KCAL/MOL
REMARK 924 INTRA-LIGAND FREE ENERGY PREDICTED BY IDOCK:   -1.36 KCAL/MOL
REMARK 927      BINDING AFFINITY PREDICTED BY RF-SCORE:    0.00 PKD
ROOT
HETATM    1  C   UNL     1     -11.064  13.287  68.462  1.00  0.00    -0.265 C  
HETATM    2  C   UNL     1     -11.101  14.400  69.506  1.00  0.00    -0.267 C  
HETATM    3  O   UNL     1      -9.801  12.782  66.443  1.00  0.00    -0.257 OA 
HETATM    4  C   UNL     1      -9.426  18.471  67.960  1.00  0.00    -0.326 A  
HETATM    5  N   UNL     1     -10.909  14.800  66.406  1.00  0.00    -0.316 N  
HETATM    6  C   UNL     1     -11.764  15.672  69.011  1.00  0.00    -0.408 C  
HETATM    7  C   UNL     1     -10.455  13.633  67.060  1.00  0.00    -0.270 C  
HETATM    8  C   UNL     1      -9.538  16.861  66.165  1.00  0.00    -0.280 A  
HETATM    9  C   UNL     1     -10.793  16.473  68.188  1.00  0.00    -0.345 A  
HETATM   10  C   UNL     1     -10.298  17.684  68.704  1.00  0.00    -0.359 A  
HETATM   11  C   UNL     1      -9.052  18.063  66.685  1.00  0.00    -0.290 A  
HETATM   12  C   UNL     1     -10.389  16.040  66.919  1.00  0.00    -0.289 A  
ENDROOT
BRANCH   1  13
HETATM   13  N   UNL     1     -10.316  12.126  69.002  1.00  0.00    -0.421 NA 
HETATM   14  H   UNL     1      -9.366  12.234  69.359  1.00  0.00     0.000 HD 
BRANCH  13  15
HETATM   15  C   UNL     1     -10.986  10.807  69.008  1.00  0.00    -0.240 C  
BRANCH  15  16
HETATM   16  C   UNL     1     -10.066   9.614  68.684  1.00  0.00    -0.196 C  
BRANCH  16  17
HETATM   17  C   UNL     1     -10.636   8.714  67.573  1.00  0.00    -0.292 C  
BRANCH  17  18
HETATM   18  C   UNL     1      -9.778   8.745  66.332  1.00  0.00    -0.335 A  
HETATM   19  C   UNL     1      -9.922   9.777  65.394  1.00  0.00    -0.302 A  
HETATM   20  C   UNL     1      -8.249   8.754  63.979  1.00  0.00    -0.161 A  
HETATM   21  C   UNL     1      -9.159   9.780  64.223  1.00  0.00    -0.293 A  
HETATM   22  C   UNL     1      -8.090   7.730  64.913  1.00  0.00    -0.136 A  
HETATM   23  C   UNL     1      -8.849   7.727  66.084  1.00  0.00    -0.192 A  
ENDBRANCH  17  18
ENDBRANCH  16  17
ENDBRANCH  15  16
BRANCH  15  24
HETATM   24  C   UNL     1     -11.568  10.588  70.424  1.00  0.00    -0.342 C  
HETATM   25  O   UNL     1     -12.530  11.195  70.877  1.00  0.00    -0.362 OA 
BRANCH  24  26
HETATM   26  O   UNL     1     -10.807   9.686  71.111  1.00  0.00    -0.337 OA 
BRANCH  26  27
HETATM   27  C   UNL     1     -11.538   8.762  71.933  1.00  0.00    -0.361 C  
HETATM   28  C   UNL     1     -11.605   7.409  71.246  1.00  0.00    -0.306 C  
ENDBRANCH  26  27
ENDBRANCH  24  26
ENDBRANCH  15  24
ENDBRANCH  13  15
ENDBRANCH   1  13
BRANCH   5  29
HETATM   29  C   UNL     1     -11.008  14.637  64.941  1.00  0.00    -0.407 C  
HETATM   30  C   UNL     1     -12.350  14.146  64.399  1.00  0.00    -0.381 C  
HETATM   31  O   UNL     1     -12.557  13.958  63.207  1.00  0.00    -0.824 OA 
HETATM   32  O   UNL     1     -13.299  13.887  65.326  1.00  0.00    -0.732 OA 
ENDBRANCH   5  29
TORSDOF 9
ENDMDL
MODEL       23
REMARK 921   NORMALIZED FREE ENERGY PREDICTED BY IDOCK:   -6.22 KCAL/MOL
REMARK 922        TOTAL FREE ENERGY PREDICTED BY IDOCK:  -11.65 KCAL/MOL
REMARK 923 INTER-LIGAND FREE ENERGY PREDICTED BY IDOCK:  -10.20 KCAL/MOL
REMARK 924 INTRA-LIGAND FREE ENERGY PREDICTED BY IDOCK:   -1.45 KCAL/MOL
REMARK 927      BINDING AFFINITY PREDICTED BY RF-SCORE:    0.00 PKD
ROOT
HETATM    1  C   UNL     1     -11.048  13.349  68.508  1.00  0.00    -0.270 C  
HETATM    2  C   UNL     1     -11.160  14.498  69.507  1.00  0.00    -0.285 C  
HETATM    3  O   UNL     1      -9.723  12.833  66.532  1.00  0.00    -0.244 OA 
HETATM    4  C   UNL     1      -9.660  18.587  67.833  1.00  0.00    -0.323 A  
HETATM    5  N   UNL     1     -10.930  14.790  66.398  1.00  0.00    -0.326 N  
HETATM    6  C   UNL     1     -11.876  15.716  68.953  1.00  0.00    -0.368 C  
HETATM    7  C   UNL     1     -10.431  13.673  67.104  1.00  0.00    -0.264 C  
HETATM    8  C   UNL     1      -9.658  16.906  66.100  1.00  0.00    -0.280 A  
HETATM    9  C   UNL     1     -10.931  16.533  68.116  1.00  0.00    -0.336 A  
HETATM   10  C   UNL     1     -10.507  17.786  68.592  1.00  0.00    -0.295 A  
HETATM   11  C   UNL     1      -9.243  18.150  66.582  1.00  0.00    -0.295 A  
HETATM   12  C   UNL     1     -10.482  16.072  66.871  1.00  0.00    -0.306 A  
ENDROOT
BRANCH   1  13
HETATM   13  N   UNL     1     -10.253  12.249  69.105  1.00  0.00    -0.418 NA 
HETATM   14  H   UNL     1      -9.362  12.435  69.565  1.00  0.00     0.000 HD 
BRANCH  13  15
HETATM   15  C   UNL     1     -10.790  10.873  69.014  1.00  0.00    -0.230 C  
BRANCH  15  16
HETATM   16  C   UNL     1      -9.746   9.794  68.668  1.00  0.00    -0.162 C  
BRANCH  16  17
HETATM   17  C   UNL     1     -10.179   8.915  67.481  1.00  0.00    -0.309 C  
BRANCH  17  18
HETATM   18  C   UNL     1      -9.525   9.352  66.193  1.00  0.00    -0.287 A  
HETATM   19  C   UNL     1     -10.271  10.017  65.208  1.00  0.00    -0.196 A  
HETATM   20  C   UNL     1      -8.337  10.084  63.758  1.00  0.00    -0.170 A  
HETATM   21  C   UNL     1      -9.677  10.381  63.997  1.00  0.00    -0.373 A  
HETATM   22  C   UNL     1      -7.585   9.435  64.738  1.00  0.00    -0.111 A  
HETATM   23  C   UNL     1      -8.175   9.073  65.948  1.00  0.00    -0.118 A  
ENDBRANCH  17  18
ENDBRANCH  16  17
ENDBRANCH  15  16
BRANCH  15  24
HETATM   24  C   UNL     1     -11.400  10.521  70.391  1.00  0.00    -0.328 C  
HETATM   25  O   UNL     1     -10.867   9.792  71.217  1.00  0.00    -0.334 OA 
BRANCH  24  26
HETATM   26  O   UNL     1     -12.642  11.075  70.510  1.00  0.00    -0.323 OA 
BRANCH  26  27
HETATM   27  C   UNL     1     -13.039  11.420  71.848  1.00  0.00    -0.400 C  
HETATM   28  C   UNL     1     -13.406  12.892  71.907  1.00  0.00    -0.530 C  
ENDBRANCH  26  27
ENDBRANCH  24  26
ENDBRANCH  15  24
ENDBRANCH  13  15
ENDBRANCH   1  13
BRANCH   5  29
HETATM   29  C   UNL     1     -10.993  14.567  64.938  1.00  0.00    -0.410 C  
HETATM   30  C   UNL     1     -12.316  14.038  64.387  1.00  0.00    -0.367 C  
HETATM   31  O   UNL     1     -12.493  13.799  63.199  1.00  0.00    -0.786 OA 
HETATM   32  O   UNL     1     -13.283  13.805  65.301  1.00  0.00    -0.755 OA 
ENDBRANCH   5  29
TORSDOF 9
ENDMDL
MODEL       24
REMARK 921   NORMALIZED FREE ENERGY PREDICTED BY IDOCK:   -6.22 KCAL/MOL
REMARK 922        TOTAL FREE ENERGY PREDICTED BY IDOCK:  -11.65 KCAL/MOL
REMARK 923 INTER-LIGAND FREE ENERGY PREDICTED BY IDOCK:  -10.32 KCAL/MOL
REMARK 924 INTRA-LIGAND FREE ENERGY PREDICTED BY IDOCK:   -1.34 KCAL/MOL
REMARK 927      BINDING AFFINITY PREDICTED BY RF-SCORE:    0.00 PKD
ROOT
HETATM    1  C   UNL     1     -11.454  12.925  68.838  1.00  0.00    -0.304 C  
HETATM    2  C   UNL     1     -11.588  14.242  69.597  1.00  0.00    -0.351 C  
HETATM    3  O   UNL     1      -9.942  11.973  67.183  1.00  0.00    -0.194 OA 
HETATM    4  C   UNL     1      -9.544  17.852  67.462  1.00  0.00    -0.269 A  
HETATM    5  N   UNL     1     -10.949  13.943  66.547  1.00  0.00    -0.298 N  
HETATM    6  C   UNL     1     -12.122  15.380  68.746  1.00  0.00    -0.183 C  
HETATM    7  C   UNL     1     -10.640  12.946  67.498  1.00  0.00    -0.226 C  
HETATM    8  C   UNL     1      -9.472  15.885  66.064  1.00  0.00    -0.389 A  
HETATM    9  C   UNL     1     -11.013  15.969  67.919  1.00  0.00    -0.327 A  
HETATM   10  C   UNL     1     -10.544  17.258  68.225  1.00  0.00    -0.383 A  
HETATM   11  C   UNL     1      -9.013  17.168  66.376  1.00  0.00    -0.291 A  
HETATM   12  C   UNL     1     -10.454  15.260  66.847  1.00  0.00    -0.289 A  
ENDROOT
BRANCH   1  13
HETATM   13  N   UNL     1     -10.837  11.905  69.721  1.00  0.00    -0.424 NA 
HETATM   14  H   UNL     1      -9.967  12.097  70.216  1.00  0.00     0.000 HD 
BRANCH  13  15
HETATM   15  C   UNL     1     -11.522  10.600  69.862  1.00  0.00    -0.317 C  
BRANCH  15  16
HETATM   16  C   UNL     1     -10.583   9.400  70.092  1.00  0.00    -0.279 C  
BRANCH  16  17
HETATM   17  C   UNL     1     -10.811   8.269  69.074  1.00  0.00    -0.012 C  
BRANCH  17  18
HETATM   18  C   UNL     1     -10.499   6.915  69.661  1.00  0.00    -0.240 A  
HETATM   19  C   UNL     1     -10.736   6.658  71.020  1.00  0.00    -0.278 A  
HETATM   20  C   UNL     1      -9.833   4.428  70.778  1.00  0.00    -0.273 A  
HETATM   21  C   UNL     1     -10.405   5.419  71.573  1.00  0.00    -0.289 A  
HETATM   22  C   UNL     1      -9.606   4.671  69.423  1.00  0.00    -0.257 A  
HETATM   23  C   UNL     1      -9.939   5.906  68.868  1.00  0.00    -0.201 A  
ENDBRANCH  17  18
ENDBRANCH  16  17
ENDBRANCH  15  16
BRANCH  15  24
HETATM   24  C   UNL     1     -12.471  10.703  71.078  1.00  0.00    -0.413 C  
HETATM   25  O   UNL     1     -13.149  11.687  71.344  1.00  0.00    -0.375 OA 
BRANCH  24  26
HETATM   26  O   UNL     1     -12.377   9.577  71.843  1.00  0.00    -0.373 OA 
BRANCH  26  27
HETATM   27  C   UNL     1     -13.601   9.148  72.463  1.00  0.00    -0.436 C  
HETATM   28  C   UNL     1     -14.213   8.017  71.655  1.00  0.00    -0.549 C  
ENDBRANCH  26  27
ENDBRANCH  24  26
ENDBRANCH  15  24
ENDBRANCH  13  15
ENDBRANCH   1  13
BRANCH   5  29
HETATM   29  C   UNL     1     -10.849  13.461  65.153  1.00  0.00    -0.313 C  
HETATM   30  C   UNL     1     -12.130  13.509  64.322  1.00  0.00    -0.431 C  
HETATM   31  O   UNL     1     -12.184  13.127  63.160  1.00  0.00    -0.631 OA 
HETATM   32  O   UNL     1     -13.229  13.967  64.962  1.00  0.00    -0.720 OA 
ENDBRANCH   5  29
TORSDOF 9
ENDMDL
MODEL       25
REMARK 921   NORMALIZED FREE ENERGY PREDICTED BY IDOCK:   -6.22 KCAL/MOL
REMARK 922        TOTAL FREE ENERGY PREDICTED BY IDOCK:  -11.65 KCAL/MOL
REMARK 923 INTER-LIGAND FREE ENERGY PREDICTED BY IDOCK:  -10.09 KCAL/MOL
REMARK 924 INTRA-LIGAND FREE ENERGY PREDICTED BY IDOCK:   -1.56 KCAL/MOL
REMARK 927      BINDING AFFINITY PREDICTED BY RF-SCORE:    0.00 PKD
ROOT
HETATM    1  C   UNL     1     -11.336  15.403  67.829  1.00  0.00    -0.306 C  
HETATM    2  C   UNL     1     -10.546  14.672  68.911  1.00  0.00    -0.253 C  
HETATM    3  O   UNL     1     -10.901  16.292  65.604  1.00  0.00    -0.297 OA 
HETATM    4  C   UNL     1      -5.938  15.354  68.653  1.00  0.00    -0.094 A  
HETATM    5  N   UNL     1      -9.541  17.135  67.260  1.00  0.00    -0.241 N  
HETATM    6  C   UNL     1      -9.588  15.568  69.673  1.00  0.00    -0.264 C  
HETATM    7  C   UNL     1     -10.520  16.236  66.781  1.00  0.00    -0.287 C  
HETATM    8  C   UNL     1      -7.094  16.740  67.050  1.00  0.00    -0.238 A  
HETATM    9  C   UNL     1      -8.324  15.762  68.881  1.00  0.00    -0.213 A  
HETATM   10  C   UNL     1      -7.134  15.170  69.337  1.00  0.00    -0.189 A  
HETATM   11  C   UNL     1      -5.917  16.147  67.512  1.00  0.00    -0.190 A  
HETATM   12  C   UNL     1      -8.315  16.533  67.710  1.00  0.00    -0.170 A  
ENDROOT
BRANCH   1  13
HETATM   13  N   UNL     1     -12.168  14.431  67.080  1.00  0.00    -0.563 NA 
HETATM   14  H   UNL     1     -13.152  14.621  66.887  1.00  0.00     0.000 HD 
BRANCH  13  15
HETATM   15  C   UNL     1     -11.531  13.177  66.620  1.00  0.00    -0.348 C  
BRANCH  15  16
HETATM   16  C   UNL     1     -11.896  11.928  67.445  1.00  0.00    -0.239 C  
BRANCH  16  17
HETATM   17  C   UNL     1     -10.656  11.199  67.992  1.00  0.00    -0.233 C  
BRANCH  17  18
HETATM   18  C   UNL     1     -10.929  10.555  69.329  1.00  0.00    -0.291 A  
HETATM   19  C   UNL     1      -9.986   9.693  69.909  1.00  0.00    -0.273 A  
HETATM   20  C   UNL     1     -11.473   9.283  71.770  1.00  0.00    -0.448 A  
HETATM   21  C   UNL     1     -10.259   9.062  71.125  1.00  0.00    -0.363 A  
HETATM   22  C   UNL     1     -12.411  10.149  71.207  1.00  0.00    -0.510 A  
HETATM   23  C   UNL     1     -12.139  10.782  69.996  1.00  0.00    -0.423 A  
ENDBRANCH  17  18
ENDBRANCH  16  17
ENDBRANCH  15  16
BRANCH  15  24
HETATM   24  C   UNL     1     -11.983  12.934  65.161  1.00  0.00    -0.414 C  
HETATM   25  O   UNL     1     -13.147  12.796  64.813  1.00  0.00    -0.813 OA 
BRANCH  24  26
HETATM   26  O   UNL     1     -10.894  12.819  64.346  1.00  0.00    -0.323 OA 
BRANCH  26  27
HETATM   27  C   UNL     1     -10.865  11.645  63.517  1.00  0.00    -0.425 C  
HETATM   28  C   UNL     1      -9.915  10.622  64.114  1.00  0.00    -0.406 C  
ENDBRANCH  26  27
ENDBRANCH  24  26
ENDBRANCH  15  24
ENDBRANCH  13  15
ENDBRANCH   1  13
BRANCH   5  29
HETATM   29  C   UNL     1      -9.458  18.375  66.460  1.00  0.00    -0.317 C  
HETATM   30  C   UNL     1      -9.622  19.689  67.223  1.00  0.00    -0.346 C  
HETATM   31  O   UNL     1      -9.587  20.784  66.676  1.00  0.00    -0.234 OA 
HETATM   32  O   UNL     1      -9.853  19.574  68.549  1.00  0.00    -0.378 OA 
ENDBRANCH   5  29
TORSDOF 9
ENDMDL
MODEL       26
REMARK 921   NORMALIZED FREE ENERGY PREDICTED BY IDOCK:   -6.19 KCAL/MOL
REMARK 922        TOTAL FREE ENERGY PREDICTED BY IDOCK:  -11.60 KCAL/MOL
REMARK 923 INTER-LIGAND FREE ENERGY PREDICTED BY IDOCK:   -9.61 KCAL/MOL
REMARK 924 INTRA-LIGAND FREE ENERGY PREDICTED BY IDOCK:   -1.98 KCAL/MOL
REMARK 927      BINDING AFFINITY PREDICTED BY RF-SCORE:    0.00 PKD
ROOT
HETATM    1  C   UNL     1     -10.517  11.103  69.073  1.00  0.00    -0.206 C  
HETATM    2  C   UNL     1     -11.220  10.689  70.363  1.00  0.00    -0.334 C  
HETATM    3  O   UNL     1      -9.629  13.157  68.113  1.00  0.00    -0.217 OA 
HETATM    4  C   UNL     1     -13.431  14.198  72.501  1.00  0.00    -0.634 A  
HETATM    5  N   UNL     1     -11.862  13.241  68.665  1.00  0.00    -0.336 N  
HETATM    6  C   UNL     1     -12.676  11.113  70.423  1.00  0.00    -0.247 C  
HETATM    7  C   UNL     1     -10.596  12.614  68.663  1.00  0.00    -0.222 C  
HETATM    8  C   UNL     1     -12.564  14.915  70.366  1.00  0.00    -0.394 A  
HETATM    9  C   UNL     1     -12.777  12.557  70.830  1.00  0.00    -0.270 A  
HETATM   10  C   UNL     1     -13.290  12.874  72.100  1.00  0.00    -0.615 A  
HETATM   11  C   UNL     1     -13.075  15.219  71.630  1.00  0.00    -0.507 A  
HETATM   12  C   UNL     1     -12.382  13.584  69.962  1.00  0.00    -0.249 A  
ENDROOT
BRANCH   1  13
HETATM   13  N   UNL     1      -9.083  10.733  69.149  1.00  0.00    -0.335 NA 
HETATM   14  H   UNL     1      -8.449  11.219  69.784  1.00  0.00     0.000 HD 
BRANCH  13  15
HETATM   15  C   UNL     1      -8.599   9.640  68.277  1.00  0.00    -0.119 C  
BRANCH  15  16
HETATM   16  C   UNL     1      -9.501   8.391  68.248  1.00  0.00    -0.147 C  
BRANCH  16  17
HETATM   17  C   UNL     1      -9.089   7.342  69.296  1.00  0.00    -0.135 C  
BRANCH  17  18
HETATM   18  C   UNL     1     -10.002   7.363  70.498  1.00  0.00    -0.184 A  
HETATM   19  C   UNL     1     -11.337   6.946  70.383  1.00  0.00    -0.376 A  
HETATM   20  C   UNL     1     -11.728   7.488  72.706  1.00  0.00    -0.232 A  
HETATM   21  C   UNL     1     -12.194   7.008  71.484  1.00  0.00    -0.407 A  
HETATM   22  C   UNL     1     -10.399   7.892  72.833  1.00  0.00    -0.413 A  
HETATM   23  C   UNL     1      -9.541   7.827  71.735  1.00  0.00    -0.204 A  
ENDBRANCH  17  18
ENDBRANCH  16  17
ENDBRANCH  15  16
BRANCH  15  24
HETATM   24  C   UNL     1      -8.511  10.199  66.838  1.00  0.00    -0.126 C  
HETATM   25  O   UNL     1      -7.730  11.070  66.481  1.00  0.00    -0.146 OA 
BRANCH  24  26
HETATM   26  O   UNL     1      -9.480   9.637  66.057  1.00  0.00    -0.187 OA 
BRANCH  26  27
HETATM   27  C   UNL     1      -9.852  10.395  64.894  1.00  0.00    -0.334 C  
HETATM   28  C   UNL     1      -9.251   9.758  63.654  1.00  0.00    -0.229 C  
ENDBRANCH  26  27
ENDBRANCH  24  26
ENDBRANCH  15  24
ENDBRANCH  13  15
ENDBRANCH   1  13
BRANCH   5  29
HETATM   29  C   UNL     1     -12.023  14.217  67.568  1.00  0.00    -0.376 C  
HETATM   30  C   UNL     1     -12.318  13.643  66.183  1.00  0.00    -0.426 C  
HETATM   31  O   UNL     1     -12.460  14.344  65.189  1.00  0.00    -0.419 OA 
HETATM   32  O   UNL     1     -12.374  12.295  66.105  1.00  0.00    -0.588 OA 
ENDBRANCH   5  29
TORSDOF 9
ENDMDL
MODEL       27
REMARK 921   NORMALIZED FREE ENERGY PREDICTED BY IDOCK:   -6.16 KCAL/MOL
REMARK 922        TOTAL FREE ENERGY PREDICTED BY IDOCK:  -11.56 KCAL/MOL
REMARK 923 INTER-LIGAND FREE ENERGY PREDICTED BY IDOCK:  -10.46 KCAL/MOL
REMARK 924 INTRA-LIGAND FREE ENERGY PREDICTED BY IDOCK:   -1.10 KCAL/MOL
REMARK 927      BINDING AFFINITY PREDICTED BY RF-SCORE:    0.00 PKD
ROOT
HETATM    1  C   UNL     1     -11.390  11.258  68.017  1.00  0.00    -0.304 C  
HETATM    2  C   UNL     1     -10.385  10.244  67.479  1.00  0.00    -0.276 C  
HETATM    3  O   UNL     1     -11.751  12.472  70.097  1.00  0.00    -0.280 OA 
HETATM    4  C   UNL     1      -8.219   7.801  70.813  1.00  0.00    -0.107 A  
HETATM    5  N   UNL     1     -11.710  10.180  70.315  1.00  0.00    -0.277 N  
HETATM    6  C   UNL     1     -10.581   8.843  68.030  1.00  0.00    -0.226 C  
HETATM    7  C   UNL     1     -11.536  11.370  69.574  1.00  0.00    -0.331 C  
HETATM    8  C   UNL     1      -9.945   9.195  71.765  1.00  0.00    -0.257 A  
HETATM    9  C   UNL     1      -9.961   8.736  69.396  1.00  0.00    -0.196 A  
HETATM   10  C   UNL     1      -8.804   7.954  69.560  1.00  0.00    -0.142 A  
HETATM   11  C   UNL     1      -8.796   8.415  71.917  1.00  0.00    -0.267 A  
HETATM   12  C   UNL     1     -10.524   9.387  70.501  1.00  0.00    -0.274 A  
ENDROOT
BRANCH   1  13
HETATM   13  N   UNL     1     -11.059  12.607  67.499  1.00  0.00    -0.259 NA 
HETATM   14  H   UNL     1     -10.133  13.011  67.641  1.00  0.00     0.000 HD 
BRANCH  13  15
HETATM   15  C   UNL     1     -12.111  13.351  66.771  1.00  0.00    -0.365 C  
BRANCH  15  16
HETATM   16  C   UNL     1     -11.891  14.875  66.698  1.00  0.00    -0.167 C  
BRANCH  16  17
HETATM   17  C   UNL     1     -10.721  15.344  67.581  1.00  0.00    -0.292 C  
BRANCH  17  18
HETATM   18  C   UNL     1     -10.496  16.832  67.469  1.00  0.00    -0.319 A  
HETATM   19  C   UNL     1     -10.383  17.623  68.622  1.00  0.00    -0.359 A  
HETATM   20  C   UNL     1     -10.170  19.611  67.263  1.00  0.00    -0.559 A  
HETATM   21  C   UNL     1     -10.221  19.006  68.517  1.00  0.00    -0.422 A  
HETATM   22  C   UNL     1     -10.268  18.830  66.111  1.00  0.00    -0.462 A  
HETATM   23  C   UNL     1     -10.427  17.449  66.214  1.00  0.00    -0.276 A  
ENDBRANCH  17  18
ENDBRANCH  16  17
ENDBRANCH  15  16
BRANCH  15  24
HETATM   24  C   UNL     1     -12.147  12.805  65.324  1.00  0.00    -0.457 C  
HETATM   25  O   UNL     1     -13.168  12.480  64.734  1.00  0.00    -0.839 OA 
BRANCH  24  26
HETATM   26  O   UNL     1     -10.877  12.668  64.842  1.00  0.00    -0.280 OA 
BRANCH  26  27
HETATM   27  C   UNL     1     -10.766  11.993  63.578  1.00  0.00    -0.455 C  
HETATM   28  C   UNL     1      -9.927  10.738  63.741  1.00  0.00    -0.411 C  
ENDBRANCH  26  27
ENDBRANCH  24  26
ENDBRANCH  15  24
ENDBRANCH  13  15
ENDBRANCH   1  13
BRANCH   5  29
HETATM   29  C   UNL     1     -12.627  10.344  71.462  1.00  0.00    -0.439 C  
HETATM   30  C   UNL     1     -13.453   9.120  71.855  1.00  0.00    -0.430 C  
HETATM   31  O   UNL     1     -14.257   9.129  72.778  1.00  0.00    -0.552 OA 
HETATM   32  O   UNL     1     -13.273   8.020  71.091  1.00  0.00    -0.183 OA 
ENDBRANCH   5  29
TORSDOF 9
ENDMDL
MODEL       28
REMARK 921   NORMALIZED FREE ENERGY PREDICTED BY IDOCK:   -6.15 KCAL/MOL
REMARK 922        TOTAL FREE ENERGY PREDICTED BY IDOCK:  -11.53 KCAL/MOL
REMARK 923 INTER-LIGAND FREE ENERGY PREDICTED BY IDOCK:   -9.23 KCAL/MOL
REMARK 924 INTRA-LIGAND FREE ENERGY PREDICTED BY IDOCK:   -2.30 KCAL/MOL
REMARK 927      BINDING AFFINITY PREDICTED BY RF-SCORE:    0.00 PKD
ROOT
HETATM    1  C   UNL     1     -11.138  11.010  67.806  1.00  0.00    -0.295 C  
HETATM    2  C   UNL     1     -11.070  11.816  69.100  1.00  0.00    -0.294 C  
HETATM    3  O   UNL     1      -9.934  10.936  65.691  1.00  0.00    -0.227 OA 
HETATM    4  C   UNL     1      -9.046  15.991  68.601  1.00  0.00    -0.213 A  
HETATM    5  N   UNL     1     -10.859  12.982  66.202  1.00  0.00    -0.277 N  
HETATM    6  C   UNL     1     -11.620  13.225  68.966  1.00  0.00    -0.359 C  
HETATM    7  C   UNL     1     -10.507  11.652  66.523  1.00  0.00    -0.239 C  
HETATM    8  C   UNL     1      -9.310  14.912  66.457  1.00  0.00    -0.308 A  
HETATM    9  C   UNL     1     -10.585  14.125  68.348  1.00  0.00    -0.263 A  
HETATM   10  C   UNL     1      -9.982  15.116  69.142  1.00  0.00    -0.238 A  
HETATM   11  C   UNL     1      -8.716  15.893  67.254  1.00  0.00    -0.206 A  
HETATM   12  C   UNL     1     -10.228  13.999  66.999  1.00  0.00    -0.261 A  
ENDROOT
BRANCH   1  13
HETATM   13  N   UNL     1     -10.494   9.690  68.010  1.00  0.00    -0.216 NA 
HETATM   14  H   UNL     1     -10.810   8.866  67.498  1.00  0.00     0.000 HD 
BRANCH  13  15
HETATM   15  C   UNL     1      -9.378   9.602  68.978  1.00  0.00    -0.159 C  
BRANCH  15  16
HETATM   16  C   UNL     1      -9.500   8.457  70.002  1.00  0.00    -0.164 C  
BRANCH  16  17
HETATM   17  C   UNL     1     -10.074   8.930  71.350  1.00  0.00    -0.379 C  
BRANCH  17  18
HETATM   18  C   UNL     1     -11.505   8.490  71.535  1.00  0.00    -0.350 A  
HETATM   19  C   UNL     1     -11.820   7.128  71.658  1.00  0.00    -0.340 A  
HETATM   20  C   UNL     1     -14.174   7.661  71.785  1.00  0.00    -0.549 A  
HETATM   21  C   UNL     1     -13.149   6.718  71.784  1.00  0.00    -0.244 A  
HETATM   22  C   UNL     1     -13.869   9.018  71.677  1.00  0.00    -0.422 A  
HETATM   23  C   UNL     1     -12.543   9.430  71.554  1.00  0.00    -0.447 A  
ENDBRANCH  17  18
ENDBRANCH  16  17
ENDBRANCH  15  16
BRANCH  15  24
HETATM   24  C   UNL     1      -8.078   9.382  68.170  1.00  0.00    -0.110 C  
HETATM   25  O   UNL     1      -7.962   8.580  67.253  1.00  0.00    -0.100 OA 
BRANCH  24  26
HETATM   26  O   UNL     1      -7.072  10.150  68.681  1.00  0.00    -0.071 OA 
BRANCH  26  27
HETATM   27  C   UNL     1      -7.359  11.554  68.785  1.00  0.00    -0.115 C  
HETATM   28  C   UNL     1      -7.132  12.224  67.441  1.00  0.00    -0.151 C  
ENDBRANCH  26  27
ENDBRANCH  24  26
ENDBRANCH  15  24
ENDBRANCH  13  15
ENDBRANCH   1  13
BRANCH   5  29
HETATM   29  C   UNL     1     -10.979  13.211  64.746  1.00  0.00    -0.336 C  
HETATM   30  C   UNL     1     -12.278  13.853  64.263  1.00  0.00    -0.408 C  
HETATM   31  O   UNL     1     -12.507  14.083  63.082  1.00  0.00    -0.733 OA 
HETATM   32  O   UNL     1     -13.193  14.121  65.220  1.00  0.00    -0.760 OA 
ENDBRANCH   5  29
TORSDOF 9
ENDMDL
MODEL       29
REMARK 921   NORMALIZED FREE ENERGY PREDICTED BY IDOCK:   -6.01 KCAL/MOL
REMARK 922        TOTAL FREE ENERGY PREDICTED BY IDOCK:  -11.32 KCAL/MOL
REMARK 923 INTER-LIGAND FREE ENERGY PREDICTED BY IDOCK:  -10.37 KCAL/MOL
REMARK 924 INTRA-LIGAND FREE ENERGY PREDICTED BY IDOCK:   -0.95 KCAL/MOL
REMARK 927      BINDING AFFINITY PREDICTED BY RF-SCORE:    0.00 PKD
ROOT
HETATM    1  C   UNL     1     -10.474  12.856  68.570  1.00  0.00    -0.247 C  
HETATM    2  C   UNL     1     -10.379  11.578  67.740  1.00  0.00    -0.204 C  
HETATM    3  O   UNL     1     -11.839  14.872  68.580  1.00  0.00    -0.326 OA 
HETATM    4  C   UNL     1     -12.096  12.016  63.424  1.00  0.00    -0.597 A  
HETATM    5  N   UNL     1     -10.718  14.477  66.607  1.00  0.00    -0.300 N  
HETATM    6  C   UNL     1      -9.731  11.784  66.383  1.00  0.00    -0.234 C  
HETATM    7  C   UNL     1     -11.149  14.101  67.899  1.00  0.00    -0.268 C  
HETATM    8  C   UNL     1     -12.085  14.149  64.555  1.00  0.00    -0.489 A  
HETATM    9  C   UNL     1     -10.735  12.342  65.412  1.00  0.00    -0.320 A  
HETATM   10  C   UNL     1     -11.195  11.527  64.363  1.00  0.00    -0.327 A  
HETATM   11  C   UNL     1     -12.535  13.331  63.516  1.00  0.00    -0.328 A  
HETATM   12  C   UNL     1     -11.203  13.657  65.530  1.00  0.00    -0.293 A  
ENDROOT
BRANCH   1  13
HETATM   13  N   UNL     1     -11.205  12.574  69.830  1.00  0.00    -0.480 NA 
HETATM   14  H   UNL     1     -11.365  13.309  70.519  1.00  0.00     0.000 HD 
BRANCH  13  15
HETATM   15  C   UNL     1     -11.693  11.196  70.059  1.00  0.00    -0.356 C  
BRANCH  15  16
HETATM   16  C   UNL     1     -10.625  10.209  70.569  1.00  0.00    -0.243 C  
BRANCH  16  17
HETATM   17  C   UNL     1     -10.825   8.787  70.016  1.00  0.00    -0.231 C  
BRANCH  17  18
HETATM   18  C   UNL     1     -10.773   7.749  71.110  1.00  0.00    -0.245 A  
HETATM   19  C   UNL     1     -10.869   6.384  70.799  1.00  0.00    -0.321 A  
HETATM   20  C   UNL     1     -10.770   5.820  73.148  1.00  0.00    -0.292 A  
HETATM   21  C   UNL     1     -10.867   5.426  71.816  1.00  0.00    -0.242 A  
HETATM   22  C   UNL     1     -10.660   7.174  73.465  1.00  0.00    -0.416 A  
HETATM   23  C   UNL     1     -10.660   8.132  72.452  1.00  0.00    -0.393 A  
ENDBRANCH  17  18
ENDBRANCH  16  17
ENDBRANCH  15  16
BRANCH  15  24
HETATM   24  C   UNL     1     -12.817  11.273  71.119  1.00  0.00    -0.352 C  
HETATM   25  O   UNL     1     -13.193  10.326  71.796  1.00  0.00    -0.413 OA 
BRANCH  24  26
HETATM   26  O   UNL     1     -13.372  12.520  71.125  1.00  0.00    -0.029 OA 
BRANCH  26  27
HETATM   27  C   UNL     1     -13.461  13.149  72.415  1.00  0.00    -0.543 C  
HETATM   28  C   UNL     1     -13.860  14.604  72.247  1.00  0.00    -0.583 C  
ENDBRANCH  26  27
ENDBRANCH  24  26
ENDBRANCH  15  24
ENDBRANCH  13  15
ENDBRANCH   1  13
BRANCH   5  29
HETATM   29  C   UNL     1     -10.693  15.942  66.413  1.00  0.00    -0.256 C  
HETATM   30  C   UNL     1      -9.318  16.579  66.218  1.00  0.00    -0.302 C  
HETATM   31  O   UNL     1      -9.159  17.783  66.060  1.00  0.00    -0.502 OA 
HETATM   32  O   UNL     1      -8.265  15.733  66.270  1.00  0.00    -0.243 OA 
ENDBRANCH   5  29
TORSDOF 9
ENDMDL
MODEL       30
REMARK 921   NORMALIZED FREE ENERGY PREDICTED BY IDOCK:   -5.99 KCAL/MOL
REMARK 922        TOTAL FREE ENERGY PREDICTED BY IDOCK:  -11.30 KCAL/MOL
REMARK 923 INTER-LIGAND FREE ENERGY PREDICTED BY IDOCK:   -9.13 KCAL/MOL
REMARK 924 INTRA-LIGAND FREE ENERGY PREDICTED BY IDOCK:   -2.17 KCAL/MOL
REMARK 927      BINDING AFFINITY PREDICTED BY RF-SCORE:    0.00 PKD
ROOT
HETATM    1  C   UNL     1     -10.626  11.974  68.621  1.00  0.00    -0.229 C  
HETATM    2  C   UNL     1     -11.151  10.991  67.578  1.00  0.00    -0.366 C  
HETATM    3  O   UNL     1     -10.818  14.359  69.072  1.00  0.00    -0.241 OA 
HETATM    4  C   UNL     1     -12.314  12.999  63.530  1.00  0.00    -0.500 A  
HETATM    5  N   UNL     1      -9.986  13.836  66.989  1.00  0.00    -0.246 N  
HETATM    6  C   UNL     1     -10.451  11.099  66.236  1.00  0.00    -0.312 C  
HETATM    7  C   UNL     1     -10.580  13.489  68.223  1.00  0.00    -0.250 C  
HETATM    8  C   UNL     1     -11.281  14.603  65.009  1.00  0.00    -0.388 A  
HETATM    9  C   UNL     1     -11.022  12.244  65.447  1.00  0.00    -0.341 A  
HETATM   10  C   UNL     1     -11.796  11.968  64.306  1.00  0.00    -0.431 A  
HETATM   11  C   UNL     1     -12.049  14.318  63.877  1.00  0.00    -0.247 A  
HETATM   12  C   UNL     1     -10.784  13.573  65.822  1.00  0.00    -0.275 A  
ENDROOT
BRANCH   1  13
HETATM   13  N   UNL     1     -11.433  11.859  69.860  1.00  0.00    -0.495 NA 
HETATM   14  H   UNL     1     -11.793  12.690  70.330  1.00  0.00     0.000 HD 
BRANCH  13  15
HETATM   15  C   UNL     1     -11.700  10.506  70.395  1.00  0.00    -0.344 C  
BRANCH  15  16
HETATM   16  C   UNL     1     -10.479   9.808  71.023  1.00  0.00    -0.230 C  
BRANCH  16  17
HETATM   17  C   UNL     1     -10.457   8.294  70.744  1.00  0.00    -0.223 C  
BRANCH  17  18
HETATM   18  C   UNL     1     -10.110   7.995  69.306  1.00  0.00    -0.198 A  
HETATM   19  C   UNL     1     -11.013   7.303  68.486  1.00  0.00    -0.029 A  
HETATM   20  C   UNL     1      -9.430   7.357  66.659  1.00  0.00    -0.240 A  
HETATM   21  C   UNL     1     -10.673   6.987  67.168  1.00  0.00    -0.433 A  
HETATM   22  C   UNL     1      -8.531   8.057  67.464  1.00  0.00    -0.127 A  
HETATM   23  C   UNL     1      -8.870   8.376  68.778  1.00  0.00    -0.140 A  
ENDBRANCH  17  18
ENDBRANCH  16  17
ENDBRANCH  15  16
BRANCH  15  24
HETATM   24  C   UNL     1     -12.785  10.645  71.488  1.00  0.00    -0.444 C  
HETATM   25  O   UNL     1     -13.390  11.679  71.734  1.00  0.00    -0.399 OA 
BRANCH  24  26
HETATM   26  O   UNL     1     -12.906   9.474  72.180  1.00  0.00    -0.388 OA 
BRANCH  26  27
HETATM   27  C   UNL     1     -14.122   8.743  71.949  1.00  0.00    -0.420 C  
HETATM   28  C   UNL     1     -13.792   7.329  71.505  1.00  0.00    -0.463 C  
ENDBRANCH  26  27
ENDBRANCH  24  26
ENDBRANCH  15  24
ENDBRANCH  13  15
ENDBRANCH   1  13
BRANCH   5  29
HETATM   29  C   UNL     1      -9.235  15.108  67.050  1.00  0.00    -0.223 C  
HETATM   30  C   UNL     1      -7.721  14.998  67.220  1.00  0.00    -0.202 C  
HETATM   31  O   UNL     1      -6.987  15.975  67.297  1.00  0.00    -0.171 OA 
HETATM   32  O   UNL     1      -7.231  13.742  67.324  1.00  0.00    -0.136 OA 
ENDBRANCH   5  29
TORSDOF 9
ENDMDL
MODEL       31
REMARK 921   NORMALIZED FREE ENERGY PREDICTED BY IDOCK:   -5.99 KCAL/MOL
REMARK 922        TOTAL FREE ENERGY PREDICTED BY IDOCK:  -11.30 KCAL/MOL
REMARK 923 INTER-LIGAND FREE ENERGY PREDICTED BY IDOCK:   -9.96 KCAL/MOL
REMARK 924 INTRA-LIGAND FREE ENERGY PREDICTED BY IDOCK:   -1.34 KCAL/MOL
REMARK 927      BINDING AFFINITY PREDICTED BY RF-SCORE:    0.00 PKD
ROOT
HETATM    1  C   UNL     1     -10.407  14.583  67.139  1.00  0.00    -0.265 C  
HETATM    2  C   UNL     1     -11.034  15.440  66.043  1.00  0.00    -0.286 C  
HETATM    3  O   UNL     1      -9.821  14.847  69.487  1.00  0.00    -0.162 OA 
HETATM    4  C   UNL     1     -10.595  20.028  66.773  1.00  0.00    -0.454 A  
HETATM    5  N   UNL     1      -8.841  16.377  68.072  1.00  0.00    -0.182 N  
HETATM    6  C   UNL     1     -10.094  16.493  65.485  1.00  0.00    -0.203 C  
HETATM    7  C   UNL     1      -9.748  15.329  68.349  1.00  0.00    -0.213 C  
HETATM    8  C   UNL     1      -9.367  18.780  68.436  1.00  0.00    -0.382 A  
HETATM    9  C   UNL     1     -10.055  17.686  66.399  1.00  0.00    -0.356 A  
HETATM   10  C   UNL     1     -10.640  18.892  65.972  1.00  0.00    -0.470 A  
HETATM   11  C   UNL     1      -9.951  19.974  68.003  1.00  0.00    -0.550 A  
HETATM   12  C   UNL     1      -9.437  17.618  67.654  1.00  0.00    -0.258 A  
ENDROOT
BRANCH   1  13
HETATM   13  N   UNL     1     -11.426  13.654  67.686  1.00  0.00    -0.307 NA 
HETATM   14  H   UNL     1     -12.321  14.002  68.031  1.00  0.00     0.000 HD 
BRANCH  13  15
HETATM   15  C   UNL     1     -11.108  12.210  67.716  1.00  0.00    -0.250 C  
BRANCH  15  16
HETATM   16  C   UNL     1     -12.099  11.347  68.521  1.00  0.00    -0.168 C  
BRANCH  16  17
HETATM   17  C   UNL     1     -11.988  11.583  70.038  1.00  0.00    -0.435 C  
BRANCH  17  18
HETATM   18  C   UNL     1     -11.872  10.285  70.799  1.00  0.00    -0.459 A  
HETATM   19  C   UNL     1     -10.613   9.717  71.046  1.00  0.00    -0.362 A  
HETATM   20  C   UNL     1     -11.657   7.827  72.134  1.00  0.00    -0.367 A  
HETATM   21  C   UNL     1     -10.509   8.493  71.711  1.00  0.00    -0.370 A  
HETATM   22  C   UNL     1     -12.912   8.392  71.905  1.00  0.00    -0.381 A  
HETATM   23  C   UNL     1     -13.018   9.615  71.243  1.00  0.00    -0.446 A  
ENDBRANCH  17  18
ENDBRANCH  16  17
ENDBRANCH  15  16
BRANCH  15  24
HETATM   24  C   UNL     1     -11.112  11.703  66.254  1.00  0.00    -0.290 C  
HETATM   25  O   UNL     1     -10.187  11.099  65.730  1.00  0.00    -0.240 OA 
BRANCH  24  26
HETATM   26  O   UNL     1     -12.257  12.098  65.625  1.00  0.00    -0.571 OA 
BRANCH  26  27
HETATM   27  C   UNL     1     -12.304  11.843  64.211  1.00  0.00    -0.211 C  
HETATM   28  C   UNL     1     -11.993  13.120  63.451  1.00  0.00    -0.552 C  
ENDBRANCH  26  27
ENDBRANCH  24  26
ENDBRANCH  15  24
ENDBRANCH  13  15
ENDBRANCH   1  13
BRANCH   5  29
HETATM   29  C   UNL     1      -7.714  16.430  69.027  1.00  0.00    -0.235 C  
HETATM   30  C   UNL     1      -6.342  16.034  68.484  1.00  0.00    -0.115 C  
HETATM   31  O   UNL     1      -5.332  16.023  69.175  1.00  0.00    -0.108 OA 
HETATM   32  O   UNL     1      -6.311  15.650  67.188  1.00  0.00    -0.308 OA 
ENDBRANCH   5  29
TORSDOF 9
ENDMDL
MODEL       32
REMARK 921   NORMALIZED FREE ENERGY PREDICTED BY IDOCK:   -5.97 KCAL/MOL
REMARK 922        TOTAL FREE ENERGY PREDICTED BY IDOCK:  -11.27 KCAL/MOL
REMARK 923 INTER-LIGAND FREE ENERGY PREDICTED BY IDOCK:   -9.76 KCAL/MOL
REMARK 924 INTRA-LIGAND FREE ENERGY PREDICTED BY IDOCK:   -1.52 KCAL/MOL
REMARK 927      BINDING AFFINITY PREDICTED BY RF-SCORE:    0.00 PKD
ROOT
HETATM    1  C   UNL     1     -11.180  11.341  67.761  1.00  0.00    -0.291 C  
HETATM    2  C   UNL     1     -12.158  11.999  68.731  1.00  0.00    -0.166 C  
HETATM    3  O   UNL     1     -10.550   9.073  67.135  1.00  0.00    -0.272 OA 
HETATM    4  C   UNL     1     -13.363   9.269  72.318  1.00  0.00    -0.547 A  
HETATM    5  N   UNL     1     -10.307   9.557  69.373  1.00  0.00    -0.204 N  
HETATM    6  C   UNL     1     -11.712  11.935  70.180  1.00  0.00    -0.337 C  
HETATM    7  C   UNL     1     -10.746   9.866  68.067  1.00  0.00    -0.248 C  
HETATM    8  C   UNL     1     -11.642   8.219  70.990  1.00  0.00    -0.301 A  
HETATM    9  C   UNL     1     -12.040  10.587  70.761  1.00  0.00    -0.470 A  
HETATM   10  C   UNL     1     -13.053  10.491  71.730  1.00  0.00    -0.570 A  
HETATM   11  C   UNL     1     -12.651   8.133  71.953  1.00  0.00    -0.368 A  
HETATM   12  C   UNL     1     -11.344   9.438  70.363  1.00  0.00    -0.248 A  
ENDROOT
BRANCH   1  13
HETATM   13  N   UNL     1     -11.746  11.368  66.391  1.00  0.00    -0.276 NA 
HETATM   14  H   UNL     1     -12.035  10.507  65.926  1.00  0.00     0.000 HD 
BRANCH  13  15
HETATM   15  C   UNL     1     -11.879  12.679  65.718  1.00  0.00    -0.444 C  
BRANCH  15  16
HETATM   16  C   UNL     1     -10.756  13.685  66.037  1.00  0.00    -0.280 C  
BRANCH  16  17
HETATM   17  C   UNL     1     -11.291  14.987  66.659  1.00  0.00    -0.289 C  
BRANCH  17  18
HETATM   18  C   UNL     1     -10.182  15.973  66.935  1.00  0.00    -0.280 A  
HETATM   19  C   UNL     1      -9.088  16.073  66.063  1.00  0.00    -0.361 A  
HETATM   20  C   UNL     1      -8.074  17.739  67.493  1.00  0.00    -0.228 A  
HETATM   21  C   UNL     1      -8.040  16.954  66.343  1.00  0.00    -0.350 A  
HETATM   22  C   UNL     1      -9.165  17.655  68.358  1.00  0.00    -0.288 A  
HETATM   23  C   UNL     1     -10.214  16.779  68.079  1.00  0.00    -0.300 A  
ENDBRANCH  17  18
ENDBRANCH  16  17
ENDBRANCH  15  16
BRANCH  15  24
HETATM   24  C   UNL     1     -11.867  12.421  64.193  1.00  0.00    -0.413 C  
HETATM   25  O   UNL     1     -12.861  12.155  63.530  1.00  0.00    -0.768 OA 
BRANCH  24  26
HETATM   26  O   UNL     1     -10.587  12.454  63.721  1.00  0.00    -0.399 OA 
BRANCH  26  27
HETATM   27  C   UNL     1     -10.125  11.241  63.103  1.00  0.00    -0.345 C  
HETATM   28  C   UNL     1      -9.227  10.486  64.067  1.00  0.00    -0.286 C  
ENDBRANCH  26  27
ENDBRANCH  24  26
ENDBRANCH  15  24
ENDBRANCH  13  15
ENDBRANCH   1  13
BRANCH   5  29
HETATM   29  C   UNL     1      -9.206   8.571  69.393  1.00  0.00    -0.153 C  
HETATM   30  C   UNL     1      -7.792   9.131  69.539  1.00  0.00    -0.082 C  
HETATM   31  O   UNL     1      -6.795   8.421  69.555  1.00  0.00    -0.041 OA 
HETATM   32  O   UNL     1      -7.698  10.477  69.609  1.00  0.00    -0.154 OA 
ENDBRANCH   5  29
TORSDOF 9
ENDMDL
MODEL       33
REMARK 921   NORMALIZED FREE ENERGY PREDICTED BY IDOCK:   -5.97 KCAL/MOL
REMARK 922        TOTAL FREE ENERGY PREDICTED BY IDOCK:  -11.26 KCAL/MOL
REMARK 923 INTER-LIGAND FREE ENERGY PREDICTED BY IDOCK:   -9.11 KCAL/MOL
REMARK 924 INTRA-LIGAND FREE ENERGY PREDICTED BY IDOCK:   -2.15 KCAL/MOL
REMARK 927      BINDING AFFINITY PREDICTED BY RF-SCORE:    0.00 PKD
ROOT
HETATM    1  C   UNL     1     -10.468  10.937  69.182  1.00  0.00    -0.221 C  
HETATM    2  C   UNL     1     -11.330  10.550  70.380  1.00  0.00    -0.411 C  
HETATM    3  O   UNL     1      -9.258  12.910  68.424  1.00  0.00    -0.198 OA 
HETATM    4  C   UNL     1     -13.301  14.196  72.524  1.00  0.00    -0.616 A  
HETATM    5  N   UNL     1     -11.508  13.240  68.787  1.00  0.00    -0.283 N  
HETATM    6  C   UNL     1     -12.726  11.146  70.340  1.00  0.00    -0.247 C  
HETATM    7  C   UNL     1     -10.329  12.464  68.857  1.00  0.00    -0.049 C  
HETATM    8  C   UNL     1     -12.161  14.903  70.516  1.00  0.00    -0.378 A  
HETATM    9  C   UNL     1     -12.692  12.570  70.821  1.00  0.00    -0.209 A  
HETATM   10  C   UNL     1     -13.279  12.886  72.059  1.00  0.00    -0.549 A  
HETATM   11  C   UNL     1     -12.748  15.207  71.748  1.00  0.00    -0.423 A  
HETATM   12  C   UNL     1     -12.101  13.581  70.052  1.00  0.00    -0.341 A  
ENDROOT
BRANCH   1  13
HETATM   13  N   UNL     1      -9.100  10.390  69.359  1.00  0.00    -0.323 NA 
HETATM   14  H   UNL     1      -8.286  10.884  68.991  1.00  0.00     0.000 HD 
BRANCH  13  15
HETATM   15  C   UNL     1      -8.951   9.109  70.084  1.00  0.00    -0.198 C  
BRANCH  15  16
HETATM   16  C   UNL     1      -8.948   7.856  69.186  1.00  0.00    -0.145 C  
BRANCH  16  17
HETATM   17  C   UNL     1     -10.331   7.183  69.110  1.00  0.00    -0.205 C  
BRANCH  17  18
HETATM   18  C   UNL     1     -10.701   6.517  70.412  1.00  0.00    -0.306 A  
HETATM   19  C   UNL     1     -11.811   6.961  71.147  1.00  0.00    -0.395 A  
HETATM   20  C   UNL     1     -11.339   5.342  72.879  1.00  0.00    -0.368 A  
HETATM   21  C   UNL     1     -12.127   6.374  72.374  1.00  0.00    -0.168 A  
HETATM   22  C   UNL     1     -10.241   4.885  72.149  1.00  0.00    -0.257 A  
HETATM   23  C   UNL     1      -9.926   5.468  70.922  1.00  0.00    -0.260 A  
ENDBRANCH  17  18
ENDBRANCH  16  17
ENDBRANCH  15  16
BRANCH  15  24
HETATM   24  C   UNL     1      -7.601   9.157  70.838  1.00  0.00    -0.124 C  
HETATM   25  O   UNL     1      -6.820  10.098  70.798  1.00  0.00    -0.317 OA 
BRANCH  24  26
HETATM   26  O   UNL     1      -7.382   7.973  71.482  1.00  0.00    -0.063 OA 
BRANCH  26  27
HETATM   27  C   UNL     1      -7.184   8.071  72.902  1.00  0.00    -0.103 C  
HETATM   28  C   UNL     1      -8.508   7.869  73.617  1.00  0.00    -0.299 C  
ENDBRANCH  26  27
ENDBRANCH  24  26
ENDBRANCH  15  24
ENDBRANCH  13  15
ENDBRANCH   1  13
BRANCH   5  29
HETATM   29  C   UNL     1     -11.451  14.280  67.739  1.00  0.00    -0.329 C  
HETATM   30  C   UNL     1     -11.942  13.876  66.350  1.00  0.00    -0.438 C  
HETATM   31  O   UNL     1     -11.934  14.640  65.394  1.00  0.00    -0.341 OA 
HETATM   32  O   UNL     1     -12.353  12.595  66.222  1.00  0.00    -0.550 OA 
ENDBRANCH   5  29
TORSDOF 9
ENDMDL
MODEL       34
REMARK 921   NORMALIZED FREE ENERGY PREDICTED BY IDOCK:   -5.96 KCAL/MOL
REMARK 922        TOTAL FREE ENERGY PREDICTED BY IDOCK:  -11.25 KCAL/MOL
REMARK 923 INTER-LIGAND FREE ENERGY PREDICTED BY IDOCK:   -9.58 KCAL/MOL
REMARK 924 INTRA-LIGAND FREE ENERGY PREDICTED BY IDOCK:   -1.67 KCAL/MOL
REMARK 927      BINDING AFFINITY PREDICTED BY RF-SCORE:    0.00 PKD
ROOT
HETATM    1  C   UNL     1     -10.748  14.999  67.816  1.00  0.00    -0.278 C  
HETATM    2  C   UNL     1     -11.409  15.746  66.660  1.00  0.00     0.109 C  
HETATM    3  O   UNL     1      -9.761  15.570  69.968  1.00  0.00    -0.260 OA 
HETATM    4  C   UNL     1     -10.188  20.241  66.390  1.00  0.00    -0.463 A  
HETATM    5  N   UNL     1      -8.806  16.629  68.160  1.00  0.00    -0.201 N  
HETATM    6  C   UNL     1     -10.426  16.501  65.785  1.00  0.00    -0.343 C  
HETATM    7  C   UNL     1      -9.801  15.822  68.757  1.00  0.00    -0.214 C  
HETATM    8  C   UNL     1      -8.908  19.113  68.098  1.00  0.00    -0.360 A  
HETATM    9  C   UNL     1     -10.066  17.813  66.428  1.00  0.00    -0.357 A  
HETATM   10  C   UNL     1     -10.527  19.006  65.847  1.00  0.00    -0.468 A  
HETATM   11  C   UNL     1      -9.371  20.294  67.512  1.00  0.00    -0.513 A  
HETATM   12  C   UNL     1      -9.272  17.860  67.582  1.00  0.00    -0.258 A  
ENDROOT
BRANCH   1  13
HETATM   13  N   UNL     1     -11.792  14.376  68.665  1.00  0.00    -0.391 NA 
HETATM   14  H   UNL     1     -12.432  14.949  69.215  1.00  0.00     0.000 HD 
BRANCH  13  15
HETATM   15  C   UNL     1     -11.877  12.899  68.692  1.00  0.00    -0.312 C  
BRANCH  15  16
HETATM   16  C   UNL     1     -10.621  12.171  68.176  1.00  0.00    -0.236 C  
BRANCH  16  17
HETATM   17  C   UNL     1     -10.963  10.995  67.243  1.00  0.00    -0.356 C  
BRANCH  17  18
HETATM   18  C   UNL     1     -10.632  11.306  65.804  1.00  0.00    -0.306 A  
HETATM   19  C   UNL     1     -11.153  12.453  65.187  1.00  0.00    -0.348 A  
HETATM   20  C   UNL     1     -10.093  11.840  63.103  1.00  0.00    -0.386 A  
HETATM   21  C   UNL     1     -10.883  12.717  63.843  1.00  0.00    -0.447 A  
HETATM   22  C   UNL     1      -9.559  10.705  63.713  1.00  0.00    -0.354 A  
HETATM   23  C   UNL     1      -9.825  10.441  65.056  1.00  0.00    -0.384 A  
ENDBRANCH  17  18
ENDBRANCH  16  17
ENDBRANCH  15  16
BRANCH  15  24
HETATM   24  C   UNL     1     -12.105  12.474  70.161  1.00  0.00    -0.292 C  
HETATM   25  O   UNL     1     -12.108  13.245  71.111  1.00  0.00    -0.221 OA 
BRANCH  24  26
HETATM   26  O   UNL     1     -12.221  11.116  70.244  1.00  0.00    -0.310 OA 
BRANCH  26  27
HETATM   27  C   UNL     1     -12.542  10.602  71.548  1.00  0.00    -0.412 C  
HETATM   28  C   UNL     1     -11.931   9.223  71.718  1.00  0.00    -0.455 C  
ENDBRANCH  26  27
ENDBRANCH  24  26
ENDBRANCH  15  24
ENDBRANCH  13  15
ENDBRANCH   1  13
BRANCH   5  29
HETATM   29  C   UNL     1      -7.546  16.652  68.932  1.00  0.00    -0.240 C  
HETATM   30  C   UNL     1      -6.266  16.347  68.155  1.00  0.00    -0.126 C  
HETATM   31  O   UNL     1      -5.160  16.322  68.679  1.00  0.00    -0.102 OA 
HETATM   32  O   UNL     1      -6.428  16.061  66.844  1.00  0.00    -0.295 OA 
ENDBRANCH   5  29
TORSDOF 9
ENDMDL
MODEL       35
REMARK 921   NORMALIZED FREE ENERGY PREDICTED BY IDOCK:   -5.95 KCAL/MOL
REMARK 922        TOTAL FREE ENERGY PREDICTED BY IDOCK:  -11.23 KCAL/MOL
REMARK 923 INTER-LIGAND FREE ENERGY PREDICTED BY IDOCK:   -9.67 KCAL/MOL
REMARK 924 INTRA-LIGAND FREE ENERGY PREDICTED BY IDOCK:   -1.56 KCAL/MOL
REMARK 927      BINDING AFFINITY PREDICTED BY RF-SCORE:    0.00 PKD
ROOT
HETATM    1  C   UNL     1      -9.638  11.940  68.263  1.00  0.00    -0.201 C  
HETATM    2  C   UNL     1      -9.739  10.842  67.208  1.00  0.00    -0.187 C  
HETATM    3  O   UNL     1     -10.902  13.925  68.890  1.00  0.00    -0.251 OA 
HETATM    4  C   UNL     1     -12.170  12.093  63.427  1.00  0.00    -0.635 A  
HETATM    5  N   UNL     1     -10.161  13.904  66.710  1.00  0.00    -0.259 N  
HETATM    6  C   UNL     1      -9.332  11.297  65.819  1.00  0.00    -0.245 C  
HETATM    7  C   UNL     1     -10.372  13.293  67.966  1.00  0.00    -0.241 C  
HETATM    8  C   UNL     1     -11.878  13.974  64.912  1.00  0.00    -0.402 A  
HETATM    9  C   UNL     1     -10.469  12.032  65.164  1.00  0.00    -0.328 A  
HETATM   10  C   UNL     1     -11.137  11.431  64.083  1.00  0.00    -0.382 A  
HETATM   11  C   UNL     1     -12.535  13.369  63.838  1.00  0.00    -0.313 A  
HETATM   12  C   UNL     1     -10.858  13.304  65.604  1.00  0.00    -0.279 A  
ENDROOT
BRANCH   1  13
HETATM   13  N   UNL     1     -10.146  11.430  69.560  1.00  0.00    -0.393 NA 
HETATM   14  H   UNL     1      -9.729  11.730  70.441  1.00  0.00     0.000 HD 
BRANCH  13  15
HETATM   15  C   UNL     1     -11.275  10.473  69.538  1.00  0.00    -0.271 C  
BRANCH  15  16
HETATM   16  C   UNL     1     -10.911   9.037  69.962  1.00  0.00    -0.230 C  
BRANCH  16  17
HETATM   17  C   UNL     1     -10.101   8.996  71.270  1.00  0.00    -0.384 C  
BRANCH  17  18
HETATM   18  C   UNL     1     -10.364   7.732  72.052  1.00  0.00    -0.267 A  
HETATM   19  C   UNL     1     -10.115   7.686  73.432  1.00  0.00    -0.379 A  
HETATM   20  C   UNL     1     -10.764   5.358  73.492  1.00  0.00    -0.331 A  
HETATM   21  C   UNL     1     -10.315   6.503  74.147  1.00  0.00    -0.351 A  
HETATM   22  C   UNL     1     -11.027   5.399  72.123  1.00  0.00    -0.265 A  
HETATM   23  C   UNL     1     -10.830   6.580  71.408  1.00  0.00    -0.289 A  
ENDBRANCH  17  18
ENDBRANCH  16  17
ENDBRANCH  15  16
BRANCH  15  24
HETATM   24  C   UNL     1     -12.349  11.001  70.517  1.00  0.00    -0.373 C  
HETATM   25  O   UNL     1     -12.241  12.028  71.174  1.00  0.00    -0.256 OA 
BRANCH  24  26
HETATM   26  O   UNL     1     -13.388  10.118  70.595  1.00  0.00    -0.310 OA 
BRANCH  26  27
HETATM   27  C   UNL     1     -13.642   9.578  71.902  1.00  0.00    -0.391 C  
HETATM   28  C   UNL     1     -14.276   8.205  71.774  1.00  0.00    -0.548 C  
ENDBRANCH  26  27
ENDBRANCH  24  26
ENDBRANCH  15  24
ENDBRANCH  13  15
ENDBRANCH   1  13
BRANCH   5  29
HETATM   29  C   UNL     1     -10.113  15.379  66.787  1.00  0.00    -0.262 C  
HETATM   30  C   UNL     1      -8.729  16.009  66.935  1.00  0.00    -0.229 C  
HETATM   31  O   UNL     1      -8.554  17.217  67.023  1.00  0.00    -0.213 OA 
HETATM   32  O   UNL     1      -7.693  15.143  67.005  1.00  0.00    -0.205 OA 
ENDBRANCH   5  29
TORSDOF 9
ENDMDL
MODEL       36
REMARK 921   NORMALIZED FREE ENERGY PREDICTED BY IDOCK:   -5.91 KCAL/MOL
REMARK 922        TOTAL FREE ENERGY PREDICTED BY IDOCK:  -11.17 KCAL/MOL
REMARK 923 INTER-LIGAND FREE ENERGY PREDICTED BY IDOCK:   -9.57 KCAL/MOL
REMARK 924 INTRA-LIGAND FREE ENERGY PREDICTED BY IDOCK:   -1.60 KCAL/MOL
REMARK 927      BINDING AFFINITY PREDICTED BY RF-SCORE:    0.00 PKD
ROOT
HETATM    1  C   UNL     1     -10.206  13.065  68.215  1.00  0.00    -0.246 C  
HETATM    2  C   UNL     1     -10.999  13.542  67.001  1.00  0.00    -0.297 C  
HETATM    3  O   UNL     1      -8.144  11.835  68.621  1.00  0.00    -0.148 OA 
HETATM    4  C   UNL     1     -10.163  11.073  63.131  1.00  0.00    -0.300 A  
HETATM    5  N   UNL     1      -9.698  10.714  67.343  1.00  0.00    -0.165 N  
HETATM    6  C   UNL     1     -11.756  12.431  66.297  1.00  0.00    -0.457 C  
HETATM    7  C   UNL     1      -9.217  11.867  68.004  1.00  0.00    -0.190 C  
HETATM    8  C   UNL     1      -9.043  10.086  65.028  1.00  0.00    -0.255 A  
HETATM    9  C   UNL     1     -10.828  11.667  65.393  1.00  0.00    -0.336 A  
HETATM   10  C   UNL     1     -10.978  11.789  64.001  1.00  0.00    -0.451 A  
HETATM   11  C   UNL     1      -9.200  10.214  63.645  1.00  0.00    -0.320 A  
HETATM   12  C   UNL     1      -9.833  10.830  65.916  1.00  0.00    -0.239 A  
ENDROOT
BRANCH   1  13
HETATM   13  N   UNL     1      -9.427  14.196  68.774  1.00  0.00    -0.349 NA 
HETATM   14  H   UNL     1      -8.716  14.041  69.488  1.00  0.00     0.000 HD 
BRANCH  13  15
HETATM   15  C   UNL     1      -9.713  15.556  68.266  1.00  0.00    -0.201 C  
BRANCH  15  16
HETATM   16  C   UNL     1     -10.484  16.462  69.245  1.00  0.00    -0.303 C  
BRANCH  16  17
HETATM   17  C   UNL     1     -11.972  16.081  69.353  1.00  0.00    -0.188 C  
BRANCH  17  18
HETATM   18  C   UNL     1     -12.330  15.611  70.741  1.00  0.00    -0.466 A  
HETATM   19  C   UNL     1     -11.746  16.210  71.867  1.00  0.00    -0.575 A  
HETATM   20  C   UNL     1     -12.924  14.680  73.321  1.00  0.00    -0.569 A  
HETATM   21  C   UNL     1     -12.044  15.745  73.150  1.00  0.00    -0.603 A  
HETATM   22  C   UNL     1     -13.520  14.087  72.207  1.00  0.00    -0.597 A  
HETATM   23  C   UNL     1     -13.227  14.552  70.926  1.00  0.00    -0.373 A  
ENDBRANCH  17  18
ENDBRANCH  16  17
ENDBRANCH  15  16
BRANCH  15  24
HETATM   24  C   UNL     1      -8.355  16.232  67.961  1.00  0.00    -0.165 C  
HETATM   25  O   UNL     1      -7.647  15.957  67.002  1.00  0.00    -0.197 OA 
BRANCH  24  26
HETATM   26  O   UNL     1      -8.036  17.113  68.954  1.00  0.00    -0.256 OA 
BRANCH  26  27
HETATM   27  C   UNL     1      -7.293  18.270  68.536  1.00  0.00    -0.286 C  
HETATM   28  C   UNL     1      -8.207  19.482  68.511  1.00  0.00    -0.373 C  
ENDBRANCH  26  27
ENDBRANCH  24  26
ENDBRANCH  15  24
ENDBRANCH  13  15
ENDBRANCH   1  13
BRANCH   5  29
HETATM   29  C   UNL     1      -9.139   9.461  67.892  1.00  0.00    -0.129 C  
HETATM   30  C   UNL     1      -9.953   8.775  68.988  1.00  0.00    -0.191 C  
HETATM   31  O   UNL     1      -9.594   7.739  69.533  1.00  0.00    -0.160 OA 
HETATM   32  O   UNL     1     -11.090   9.404  69.357  1.00  0.00    -0.189 OA 
ENDBRANCH   5  29
TORSDOF 9
ENDMDL
MODEL       37
REMARK 921   NORMALIZED FREE ENERGY PREDICTED BY IDOCK:   -5.89 KCAL/MOL
REMARK 922        TOTAL FREE ENERGY PREDICTED BY IDOCK:  -11.15 KCAL/MOL
REMARK 923 INTER-LIGAND FREE ENERGY PREDICTED BY IDOCK:   -9.06 KCAL/MOL
REMARK 924 INTRA-LIGAND FREE ENERGY PREDICTED BY IDOCK:   -2.08 KCAL/MOL
REMARK 927      BINDING AFFINITY PREDICTED BY RF-SCORE:    0.00 PKD
ROOT
HETATM    1  C   UNL     1     -10.186  10.826  69.789  1.00  0.00     0.029 C  
HETATM    2  C   UNL     1     -11.451   9.973  69.726  1.00  0.00    -0.240 C  
HETATM    3  O   UNL     1      -7.891  10.664  68.993  1.00  0.00    -0.117 OA 
HETATM    4  C   UNL     1     -10.616   5.432  69.054  1.00  0.00    -0.217 A  
HETATM    5  N   UNL     1      -8.566   8.927  70.346  1.00  0.00    -0.162 N  
HETATM    6  C   UNL     1     -11.422   8.776  70.658  1.00  0.00    -0.263 C  
HETATM    7  C   UNL     1      -8.814  10.095  69.590  1.00  0.00    -0.164 C  
HETATM    8  C   UNL     1      -8.549   6.639  69.372  1.00  0.00    -0.135 A  
HETATM    9  C   UNL     1     -10.634   7.657  70.035  1.00  0.00    -0.240 A  
HETATM   10  C   UNL     1     -11.312   6.504  69.603  1.00  0.00    -0.443 A  
HETATM   11  C   UNL     1      -9.232   5.497  68.946  1.00  0.00    -0.141 A  
HETATM   12  C   UNL     1      -9.243   7.741  69.894  1.00  0.00    -0.146 A  
ENDROOT
BRANCH   1  13
HETATM   13  N   UNL     1     -10.268  11.909  68.779  1.00  0.00    -0.348 NA 
HETATM   14  H   UNL     1      -9.441  12.446  68.518  1.00  0.00     0.000 HD 
BRANCH  13  15
HETATM   15  C   UNL     1     -11.583  12.187  68.160  1.00  0.00    -0.337 C  
BRANCH  15  16
HETATM   16  C   UNL     1     -12.134  13.602  68.423  1.00  0.00    -0.312 C  
BRANCH  16  17
HETATM   17  C   UNL     1     -11.207  14.436  69.326  1.00  0.00    -0.308 C  
BRANCH  17  18
HETATM   18  C   UNL     1     -11.851  14.746  70.655  1.00  0.00    -0.364 A  
HETATM   19  C   UNL     1     -12.836  13.898  71.183  1.00  0.00    -0.423 A  
HETATM   20  C   UNL     1     -13.116  15.367  73.082  1.00  0.00    -0.643 A  
HETATM   21  C   UNL     1     -13.464  14.209  72.391  1.00  0.00    -0.616 A  
HETATM   22  C   UNL     1     -12.127  16.209  72.571  1.00  0.00    -0.644 A  
HETATM   23  C   UNL     1     -11.498  15.899  71.367  1.00  0.00    -0.484 A  
ENDBRANCH  17  18
ENDBRANCH  16  17
ENDBRANCH  15  16
BRANCH  15  24
HETATM   24  C   UNL     1     -11.423  12.014  66.632  1.00  0.00    -0.346 C  
HETATM   25  O   UNL     1     -12.304  12.246  65.814  1.00  0.00    -0.622 OA 
BRANCH  24  26
HETATM   26  O   UNL     1     -10.194  11.494  66.344  1.00  0.00    -0.212 OA 
BRANCH  26  27
HETATM   27  C   UNL     1     -10.194  10.361  65.461  1.00  0.00    -0.246 C  
HETATM   28  C   UNL     1     -10.013   9.086  66.265  1.00  0.00    -0.352 C  
ENDBRANCH  26  27
ENDBRANCH  24  26
ENDBRANCH  15  24
ENDBRANCH  13  15
ENDBRANCH   1  13
BRANCH   5  29
HETATM   29  C   UNL     1      -7.156   8.807  70.773  1.00  0.00    -0.069 C  
HETATM   30  C   UNL     1      -6.906   8.697  72.276  1.00  0.00    -0.037 C  
HETATM   31  O   UNL     1      -5.785   8.606  72.759  1.00  0.00    -0.068 OA 
HETATM   32  O   UNL     1      -8.006   8.748  73.060  1.00  0.00    -0.393 OA 
ENDBRANCH   5  29
TORSDOF 9
ENDMDL
MODEL       38
REMARK 921   NORMALIZED FREE ENERGY PREDICTED BY IDOCK:   -5.88 KCAL/MOL
REMARK 922        TOTAL FREE ENERGY PREDICTED BY IDOCK:  -11.12 KCAL/MOL
REMARK 923 INTER-LIGAND FREE ENERGY PREDICTED BY IDOCK:   -9.85 KCAL/MOL
REMARK 924 INTRA-LIGAND FREE ENERGY PREDICTED BY IDOCK:   -1.28 KCAL/MOL
REMARK 927      BINDING AFFINITY PREDICTED BY RF-SCORE:    0.00 PKD
ROOT
HETATM    1  C   UNL     1     -11.297  11.474  68.236  1.00  0.00    -0.286 C  
HETATM    2  C   UNL     1     -12.351  11.559  69.337  1.00  0.00    -0.157 C  
HETATM    3  O   UNL     1     -10.303   9.730  66.858  1.00  0.00    -0.233 OA 
HETATM    4  C   UNL     1     -12.984   7.551  71.640  1.00  0.00    -0.397 A  
HETATM    5  N   UNL     1     -10.093   9.401  69.127  1.00  0.00    -0.188 N  
HETATM    6  C   UNL     1     -11.866  11.049  70.681  1.00  0.00    -0.434 C  
HETATM    7  C   UNL     1     -10.609  10.084  68.004  1.00  0.00    -0.235 C  
HETATM    8  C   UNL     1     -11.139   7.362  70.094  1.00  0.00    -0.265 A  
HETATM    9  C   UNL     1     -11.944   9.548  70.722  1.00  0.00    -0.326 A  
HETATM   10  C   UNL     1     -12.902   8.936  71.548  1.00  0.00    -0.383 A  
HETATM   11  C   UNL     1     -12.095   6.763  70.919  1.00  0.00    -0.421 A  
HETATM   12  C   UNL     1     -11.070   8.757  69.964  1.00  0.00    -0.162 A  
ENDROOT
BRANCH   1  13
HETATM   13  N   UNL     1     -11.892  11.901  66.946  1.00  0.00    -0.610 NA 
HETATM   14  H   UNL     1     -12.066  11.227  66.200  1.00  0.00     0.000 HD 
BRANCH  13  15
HETATM   15  C   UNL     1     -12.226  13.332  66.773  1.00  0.00    -0.280 C  
BRANCH  15  16
HETATM   16  C   UNL     1     -11.089  14.308  67.134  1.00  0.00    -0.318 C  
BRANCH  16  17
HETATM   17  C   UNL     1      -9.848  14.123  66.242  1.00  0.00    -0.321 C  
BRANCH  17  18
HETATM   18  C   UNL     1      -8.691  14.971  66.709  1.00  0.00    -0.293 A  
HETATM   19  C   UNL     1      -7.779  14.472  67.651  1.00  0.00    -0.194 A  
HETATM   20  C   UNL     1      -6.592  16.578  67.650  1.00  0.00    -0.171 A  
HETATM   21  C   UNL     1      -6.734  15.274  68.117  1.00  0.00    -0.137 A  
HETATM   22  C   UNL     1      -7.487  17.078  66.703  1.00  0.00    -0.300 A  
HETATM   23  C   UNL     1      -8.528  16.278  66.235  1.00  0.00    -0.369 A  
ENDBRANCH  17  18
ENDBRANCH  16  17
ENDBRANCH  15  16
BRANCH  15  24
HETATM   24  C   UNL     1     -12.585  13.548  65.285  1.00  0.00    -0.468 C  
HETATM   25  O   UNL     1     -12.624  14.641  64.735  1.00  0.00    -0.514 OA 
BRANCH  24  26
HETATM   26  O   UNL     1     -12.925  12.359  64.707  1.00  0.00    -0.786 OA 
BRANCH  26  27
HETATM   27  C   UNL     1     -12.394  12.139  63.390  1.00  0.00    -0.538 C  
HETATM   28  C   UNL     1     -10.916  11.802  63.485  1.00  0.00    -0.499 C  
ENDBRANCH  26  27
ENDBRANCH  24  26
ENDBRANCH  15  24
ENDBRANCH  13  15
ENDBRANCH   1  13
BRANCH   5  29
HETATM   29  C   UNL     1      -8.839   8.675  68.833  1.00  0.00    -0.138 C  
HETATM   30  C   UNL     1      -7.760   8.715  69.914  1.00  0.00    -0.084 C  
HETATM   31  O   UNL     1      -6.673   8.166  69.789  1.00  0.00    -0.039 OA 
HETATM   32  O   UNL     1      -8.060   9.434  71.018  1.00  0.00    -0.300 OA 
ENDBRANCH   5  29
TORSDOF 9
ENDMDL
MODEL       39
REMARK 921   NORMALIZED FREE ENERGY PREDICTED BY IDOCK:   -5.87 KCAL/MOL
REMARK 922        TOTAL FREE ENERGY PREDICTED BY IDOCK:  -11.12 KCAL/MOL
REMARK 923 INTER-LIGAND FREE ENERGY PREDICTED BY IDOCK:   -9.35 KCAL/MOL
REMARK 924 INTRA-LIGAND FREE ENERGY PREDICTED BY IDOCK:   -1.77 KCAL/MOL
REMARK 927      BINDING AFFINITY PREDICTED BY RF-SCORE:    0.00 PKD
ROOT
HETATM    1  C   UNL     1     -10.252  10.446  68.387  1.00  0.00    -0.165 C  
HETATM    2  C   UNL     1      -9.534   9.950  67.135  1.00  0.00    -0.190 C  
HETATM    3  O   UNL     1     -12.460  11.305  68.947  1.00  0.00    -0.433 OA 
HETATM    4  C   UNL     1     -11.345  11.592  63.160  1.00  0.00    -0.153 A  
HETATM    5  N   UNL     1     -11.349  12.494  67.317  1.00  0.00    -0.295 N  
HETATM    6  C   UNL     1      -9.121  11.064  66.191  1.00  0.00    -0.208 C  
HETATM    7  C   UNL     1     -11.490  11.385  68.182  1.00  0.00    -0.305 C  
HETATM    8  C   UNL     1     -12.404  12.624  65.069  1.00  0.00    -0.561 A  
HETATM    9  C   UNL     1     -10.294  11.489  65.351  1.00  0.00    -0.322 A  
HETATM   10  C   UNL     1     -10.295  11.187  63.978  1.00  0.00    -0.437 A  
HETATM   11  C   UNL     1     -12.396  12.319  63.705  1.00  0.00    -0.637 A  
HETATM   12  C   UNL     1     -11.370  12.190  65.912  1.00  0.00    -0.356 A  
ENDROOT
BRANCH   1  13
HETATM   13  N   UNL     1     -10.699   9.285  69.194  1.00  0.00    -0.311 NA 
HETATM   14  H   UNL     1     -11.137   8.476  68.753  1.00  0.00     0.000 HD 
BRANCH  13  15
HETATM   15  C   UNL     1     -10.491   9.334  70.658  1.00  0.00    -0.262 C  
BRANCH  15  16
HETATM   16  C   UNL     1     -11.500   8.509  71.481  1.00  0.00    -0.350 C  
BRANCH  16  17
HETATM   17  C   UNL     1     -11.852   7.169  70.810  1.00  0.00    -0.367 C  
BRANCH  17  18
HETATM   18  C   UNL     1     -11.248   5.998  71.545  1.00  0.00    -0.326 A  
HETATM   19  C   UNL     1     -11.726   5.630  72.811  1.00  0.00    -0.233 A  
HETATM   20  C   UNL     1     -10.064   3.880  72.955  1.00  0.00    -0.213 A  
HETATM   21  C   UNL     1     -11.136   4.575  73.511  1.00  0.00    -0.398 A  
HETATM   22  C   UNL     1      -9.591   4.231  71.690  1.00  0.00    -0.228 A  
HETATM   23  C   UNL     1     -10.180   5.282  70.989  1.00  0.00    -0.299 A  
ENDBRANCH  17  18
ENDBRANCH  16  17
ENDBRANCH  15  16
BRANCH  15  24
HETATM   24  C   UNL     1      -9.076   8.780  70.945  1.00  0.00    -0.208 C  
HETATM   25  O   UNL     1      -8.371   8.222  70.115  1.00  0.00    -0.118 OA 
BRANCH  24  26
HETATM   26  O   UNL     1      -8.771   8.933  72.267  1.00  0.00    -0.395 OA 
BRANCH  26  27
HETATM   27  C   UNL     1      -8.059   7.839  72.867  1.00  0.00    -0.126 C  
HETATM   28  C   UNL     1      -8.736   7.441  74.167  1.00  0.00    -0.267 C  
ENDBRANCH  26  27
ENDBRANCH  24  26
ENDBRANCH  15  24
ENDBRANCH  13  15
ENDBRANCH   1  13
BRANCH   5  29
HETATM   29  C   UNL     1     -12.088  13.686  67.785  1.00  0.00    -0.290 C  
HETATM   30  C   UNL     1     -11.248  14.915  68.129  1.00  0.00    -0.299 C  
HETATM   31  O   UNL     1     -11.736  15.960  68.539  1.00  0.00    -0.383 OA 
HETATM   32  O   UNL     1      -9.911  14.771  67.992  1.00  0.00    -0.214 OA 
ENDBRANCH   5  29
TORSDOF 9
ENDMDL
MODEL       40
REMARK 921   NORMALIZED FREE ENERGY PREDICTED BY IDOCK:   -5.86 KCAL/MOL
REMARK 922        TOTAL FREE ENERGY PREDICTED BY IDOCK:  -11.10 KCAL/MOL
REMARK 923 INTER-LIGAND FREE ENERGY PREDICTED BY IDOCK:   -9.71 KCAL/MOL
REMARK 924 INTRA-LIGAND FREE ENERGY PREDICTED BY IDOCK:   -1.39 KCAL/MOL
REMARK 927      BINDING AFFINITY PREDICTED BY RF-SCORE:    0.00 PKD
ROOT
HETATM    1  C   UNL     1     -10.948  11.333  69.244  1.00  0.00    -0.243 C  
HETATM    2  C   UNL     1     -10.906  10.273  70.341  1.00  0.00    -0.320 C  
HETATM    3  O   UNL     1     -11.689  11.468  66.929  1.00  0.00    -0.533 OA 
HETATM    4  C   UNL     1     -10.932   5.898  68.719  1.00  0.00    -0.311 A  
HETATM    5  N   UNL     1     -10.115   9.839  67.343  1.00  0.00    -0.194 N  
HETATM    6  C   UNL     1      -9.816   9.236  70.140  1.00  0.00    -0.250 C  
HETATM    7  C   UNL     1     -11.028  10.833  67.761  1.00  0.00    -0.297 C  
HETATM    8  C   UNL     1     -10.762   7.478  66.902  1.00  0.00    -0.299 A  
HETATM    9  C   UNL     1     -10.269   8.197  69.152  1.00  0.00    -0.219 A  
HETATM   10  C   UNL     1     -10.544   6.896  69.607  1.00  0.00    -0.258 A  
HETATM   11  C   UNL     1     -11.033   6.188  67.364  1.00  0.00    -0.409 A  
HETATM   12  C   UNL     1     -10.405   8.503  67.791  1.00  0.00    -0.237 A  
ENDROOT
BRANCH   1  13
HETATM   13  N   UNL     1     -12.099  12.239  69.475  1.00  0.00    -0.244 NA 
HETATM   14  H   UNL     1     -13.044  11.966  69.204  1.00  0.00     0.000 HD 
BRANCH  13  15
HETATM   15  C   UNL     1     -11.838  13.551  70.109  1.00  0.00    -0.278 C  
BRANCH  15  16
HETATM   16  C   UNL     1     -12.146  14.770  69.219  1.00  0.00    -0.296 C  
BRANCH  16  17
HETATM   17  C   UNL     1     -11.201  14.871  68.008  1.00  0.00    -0.318 C  
BRANCH  17  18
HETATM   18  C   UNL     1     -10.708  16.281  67.797  1.00  0.00    -0.325 A  
HETATM   19  C   UNL     1     -10.407  16.744  66.508  1.00  0.00    -0.301 A  
HETATM   20  C   UNL     1      -9.704  18.873  67.412  1.00  0.00    -0.357 A  
HETATM   21  C   UNL     1      -9.909  18.035  66.318  1.00  0.00    -0.310 A  
HETATM   22  C   UNL     1     -10.014  18.426  68.697  1.00  0.00    -0.415 A  
HETATM   23  C   UNL     1     -10.515  17.139  68.887  1.00  0.00    -0.346 A  
ENDBRANCH  17  18
ENDBRANCH  16  17
ENDBRANCH  15  16
BRANCH  15  24
HETATM   24  C   UNL     1     -12.729  13.643  71.369  1.00  0.00    -0.352 C  
HETATM   25  O   UNL     1     -13.220  12.679  71.941  1.00  0.00    -0.450 OA 
BRANCH  24  26
HETATM   26  O   UNL     1     -12.947  14.951  71.695  1.00  0.00    -0.300 OA 
BRANCH  26  27
HETATM   27  C   UNL     1     -13.458  15.180  73.018  1.00  0.00    -0.452 C  
HETATM   28  C   UNL     1     -12.310  15.489  73.963  1.00  0.00    -0.791 C  
ENDBRANCH  26  27
ENDBRANCH  24  26
ENDBRANCH  15  24
ENDBRANCH  13  15
ENDBRANCH   1  13
BRANCH   5  29
HETATM   29  C   UNL     1      -9.661  10.025  65.949  1.00  0.00    -0.247 C  
HETATM   30  C   UNL     1      -8.184  10.364  65.753  1.00  0.00    -0.156 C  
HETATM   31  O   UNL     1      -7.686  10.555  64.651  1.00  0.00    -0.099 OA 
HETATM   32  O   UNL     1      -7.454  10.484  66.884  1.00  0.00    -0.102 OA 
ENDBRANCH   5  29
TORSDOF 9
ENDMDL
MODEL       41
REMARK 921   NORMALIZED FREE ENERGY PREDICTED BY IDOCK:   -5.82 KCAL/MOL
REMARK 922        TOTAL FREE ENERGY PREDICTED BY IDOCK:  -11.04 KCAL/MOL
REMARK 923 INTER-LIGAND FREE ENERGY PREDICTED BY IDOCK:   -9.34 KCAL/MOL
REMARK 924 INTRA-LIGAND FREE ENERGY PREDICTED BY IDOCK:   -1.70 KCAL/MOL
REMARK 927      BINDING AFFINITY PREDICTED BY RF-SCORE:    0.00 PKD
ROOT
HETATM    1  C   UNL     1     -10.186  14.378  66.479  1.00  0.00    -0.274 C  
HETATM    2  C   UNL     1      -8.940  13.849  67.185  1.00  0.00    -0.242 C  
HETATM    3  O   UNL     1     -10.683  15.972  64.707  1.00  0.00    -0.611 OA 
HETATM    4  C   UNL     1      -5.293  16.752  66.977  1.00  0.00    -0.157 A  
HETATM    5  N   UNL     1      -9.518  16.847  66.490  1.00  0.00    -0.263 N  
HETATM    6  C   UNL     1      -8.341  14.832  68.174  1.00  0.00    -0.144 C  
HETATM    7  C   UNL     1     -10.073  15.769  65.765  1.00  0.00    -0.371 C  
HETATM    8  C   UNL     1      -7.261  17.789  66.038  1.00  0.00    -0.322 A  
HETATM    9  C   UNL     1      -7.500  15.846  67.447  1.00  0.00    -0.217 A  
HETATM   10  C   UNL     1      -6.104  15.811  67.603  1.00  0.00    -0.179 A  
HETATM   11  C   UNL     1      -5.874  17.747  66.200  1.00  0.00    -0.249 A  
HETATM   12  C   UNL     1      -8.087  16.825  66.635  1.00  0.00    -0.265 A  
ENDROOT
BRANCH   1  13
HETATM   13  N   UNL     1     -10.639  13.391  65.469  1.00  0.00    -0.283 NA 
HETATM   14  H   UNL     1     -11.193  13.681  64.663  1.00  0.00     0.000 HD 
BRANCH  13  15
HETATM   15  C   UNL     1     -10.265  11.972  65.664  1.00  0.00    -0.252 C  
BRANCH  15  16
HETATM   16  C   UNL     1     -11.256  11.155  66.516  1.00  0.00    -0.151 C  
BRANCH  16  17
HETATM   17  C   UNL     1     -10.609  10.595  67.796  1.00  0.00    -0.275 C  
BRANCH  17  18
HETATM   18  C   UNL     1     -11.357  11.024  69.035  1.00  0.00    -0.345 A  
HETATM   19  C   UNL     1     -11.733  12.364  69.210  1.00  0.00    -0.386 A  
HETATM   20  C   UNL     1     -12.666  11.841  71.378  1.00  0.00    -0.413 A  
HETATM   21  C   UNL     1     -12.385  12.768  70.377  1.00  0.00    -0.324 A  
HETATM   22  C   UNL     1     -12.308  10.504  71.206  1.00  0.00    -0.502 A  
HETATM   23  C   UNL     1     -11.660  10.098  70.040  1.00  0.00    -0.323 A  
ENDBRANCH  17  18
ENDBRANCH  16  17
ENDBRANCH  15  16
BRANCH  15  24
HETATM   24  C   UNL     1     -10.185  11.317  64.266  1.00  0.00    -0.327 C  
HETATM   25  O   UNL     1     -10.480  11.880  63.221  1.00  0.00    -0.414 OA 
BRANCH  24  26
HETATM   26  O   UNL     1      -9.817  10.007  64.382  1.00  0.00    -0.296 OA 
BRANCH  26  27
HETATM   27  C   UNL     1      -8.757   9.584  63.510  1.00  0.00    -0.220 C  
HETATM   28  C   UNL     1      -7.418   9.794  64.194  1.00  0.00    -0.135 C  
ENDBRANCH  26  27
ENDBRANCH  24  26
ENDBRANCH  15  24
ENDBRANCH  13  15
ENDBRANCH   1  13
BRANCH   5  29
HETATM   29  C   UNL     1     -10.170  18.139  66.190  1.00  0.00    -0.367 C  
HETATM   30  C   UNL     1     -10.571  18.995  67.390  1.00  0.00    -0.474 C  
HETATM   31  O   UNL     1     -11.130  20.078  67.277  1.00  0.00    -0.197 OA 
HETATM   32  O   UNL     1     -10.309  18.463  68.605  1.00  0.00    -0.363 OA 
ENDBRANCH   5  29
TORSDOF 9
ENDMDL
MODEL       42
REMARK 921   NORMALIZED FREE ENERGY PREDICTED BY IDOCK:   -5.81 KCAL/MOL
REMARK 922        TOTAL FREE ENERGY PREDICTED BY IDOCK:  -11.03 KCAL/MOL
REMARK 923 INTER-LIGAND FREE ENERGY PREDICTED BY IDOCK:   -8.57 KCAL/MOL
REMARK 924 INTRA-LIGAND FREE ENERGY PREDICTED BY IDOCK:   -2.45 KCAL/MOL
REMARK 927      BINDING AFFINITY PREDICTED BY RF-SCORE:    0.00 PKD
ROOT
HETATM    1  C   UNL     1     -10.518  10.146  68.125  1.00  0.00    -0.206 C  
HETATM    2  C   UNL     1      -9.949   9.765  66.761  1.00  0.00    -0.278 C  
HETATM    3  O   UNL     1     -12.567  11.145  68.982  1.00  0.00    -0.370 OA 
HETATM    4  C   UNL     1     -11.821  12.154  63.217  1.00  0.00    -0.466 A  
HETATM    5  N   UNL     1     -11.437  12.434  67.444  1.00  0.00    -0.329 N  
HETATM    6  C   UNL     1      -9.474  10.955  65.949  1.00  0.00    -0.241 C  
HETATM    7  C   UNL     1     -11.648  11.232  68.157  1.00  0.00    -0.289 C  
HETATM    8  C   UNL     1     -12.620  13.003  65.332  1.00  0.00    -0.481 A  
HETATM    9  C   UNL     1     -10.643  11.620  65.277  1.00  0.00    -0.333 A  
HETATM   10  C   UNL     1     -10.773  11.524  63.881  1.00  0.00    -0.458 A  
HETATM   11  C   UNL     1     -12.740  12.901  63.943  1.00  0.00    -0.223 A  
HETATM   12  C   UNL     1     -11.589  12.342  66.017  1.00  0.00    -0.401 A  
ENDROOT
BRANCH   1  13
HETATM   13  N   UNL     1     -11.042   8.934  68.800  1.00  0.00    -0.433 NA 
HETATM   14  H   UNL     1     -11.956   8.552  68.557  1.00  0.00     0.000 HD 
BRANCH  13  15
HETATM   15  C   UNL     1     -10.201   8.295  69.837  1.00  0.00    -0.201 C  
BRANCH  15  16
HETATM   16  C   UNL     1      -9.359   9.274  70.678  1.00  0.00    -0.329 C  
BRANCH  16  17
HETATM   17  C   UNL     1      -7.849   9.000  70.566  1.00  0.00    -0.138 C  
BRANCH  17  18
HETATM   18  C   UNL     1      -7.211   9.820  69.471  1.00  0.00    -0.087 A  
HETATM   19  C   UNL     1      -7.145  11.217  69.576  1.00  0.00    -0.088 A  
HETATM   20  C   UNL     1      -6.110  11.353  67.395  1.00  0.00    -0.074 A  
HETATM   21  C   UNL     1      -6.595  11.978  68.542  1.00  0.00    -0.062 A  
HETATM   22  C   UNL     1      -6.160   9.963  67.288  1.00  0.00    -0.059 A  
HETATM   23  C   UNL     1      -6.705   9.201  68.321  1.00  0.00    -0.060 A  
ENDBRANCH  17  18
ENDBRANCH  16  17
ENDBRANCH  15  16
BRANCH  15  24
HETATM   24  C   UNL     1     -11.145   7.533  70.796  1.00  0.00    -0.265 C  
HETATM   25  O   UNL     1     -11.677   6.462  70.535  1.00  0.00    -0.386 OA 
BRANCH  24  26
HETATM   26  O   UNL     1     -11.355   8.265  71.928  1.00  0.00    -0.270 OA 
BRANCH  26  27
HETATM   27  C   UNL     1     -12.732   8.489  72.272  1.00  0.00    -0.367 C  
HETATM   28  C   UNL     1     -13.114   9.922  71.948  1.00  0.00    -0.559 C  
ENDBRANCH  26  27
ENDBRANCH  24  26
ENDBRANCH  15  24
ENDBRANCH  13  15
ENDBRANCH   1  13
BRANCH   5  29
HETATM   29  C   UNL     1     -11.997  13.616  68.132  1.00  0.00    -0.355 C  
HETATM   30  C   UNL     1     -11.007  14.719  68.505  1.00  0.00    -0.258 C  
HETATM   31  O   UNL     1     -11.341  15.742  69.088  1.00  0.00    -0.300 OA 
HETATM   32  O   UNL     1      -9.715  14.482  68.187  1.00  0.00    -0.208 OA 
ENDBRANCH   5  29
TORSDOF 9
ENDMDL
MODEL       43
REMARK 921   NORMALIZED FREE ENERGY PREDICTED BY IDOCK:   -5.80 KCAL/MOL
REMARK 922        TOTAL FREE ENERGY PREDICTED BY IDOCK:  -11.01 KCAL/MOL
REMARK 923 INTER-LIGAND FREE ENERGY PREDICTED BY IDOCK:   -9.03 KCAL/MOL
REMARK 924 INTRA-LIGAND FREE ENERGY PREDICTED BY IDOCK:   -1.98 KCAL/MOL
REMARK 927      BINDING AFFINITY PREDICTED BY RF-SCORE:    0.00 PKD
ROOT
HETATM    1  C   UNL     1     -10.430   9.871  68.188  1.00  0.00    -0.215 C  
HETATM    2  C   UNL     1      -9.862   9.437  66.840  1.00  0.00    -0.261 C  
HETATM    3  O   UNL     1     -12.430  11.003  68.995  1.00  0.00    -0.449 OA 
HETATM    4  C   UNL     1     -11.525  11.886  63.232  1.00  0.00    -0.376 A  
HETATM    5  N   UNL     1     -11.198  12.200  67.462  1.00  0.00    -0.277 N  
HETATM    6  C   UNL     1      -9.302  10.585  66.021  1.00  0.00    -0.215 C  
HETATM    7  C   UNL     1     -11.493  11.023  68.185  1.00  0.00    -0.302 C  
HETATM    8  C   UNL     1     -12.307  12.810  65.321  1.00  0.00    -0.546 A  
HETATM    9  C   UNL     1     -10.417  11.311  65.319  1.00  0.00    -0.341 A  
HETATM   10  C   UNL     1     -10.529  11.203  63.922  1.00  0.00    -0.445 A  
HETATM   11  C   UNL     1     -12.409  12.697  63.932  1.00  0.00    -0.546 A  
HETATM   12  C   UNL     1     -11.330  12.098  66.033  1.00  0.00    -0.358 A  
ENDROOT
BRANCH   1  13
HETATM   13  N   UNL     1     -11.038   8.702  68.869  1.00  0.00    -0.420 NA 
HETATM   14  H   UNL     1     -11.814   8.193  68.445  1.00  0.00     0.000 HD 
BRANCH  13  15
HETATM   15  C   UNL     1     -10.487   8.295  70.180  1.00  0.00    -0.225 C  
BRANCH  15  16
HETATM   16  C   UNL     1      -9.552   9.330  70.836  1.00  0.00    -0.339 C  
BRANCH  16  17
HETATM   17  C   UNL     1      -8.125   8.789  71.039  1.00  0.00    -0.186 C  
BRANCH  17  18
HETATM   18  C   UNL     1      -8.050   7.828  72.200  1.00  0.00    -0.136 A  
HETATM   19  C   UNL     1      -7.346   6.621  72.078  1.00  0.00    -0.090 A  
HETATM   20  C   UNL     1      -7.986   5.995  74.324  1.00  0.00    -0.102 A  
HETATM   21  C   UNL     1      -7.315   5.711  73.137  1.00  0.00    -0.095 A  
HETATM   22  C   UNL     1      -8.678   7.200  74.458  1.00  0.00    -0.228 A  
HETATM   23  C   UNL     1      -8.707   8.111  73.403  1.00  0.00    -0.318 A  
ENDBRANCH  17  18
ENDBRANCH  16  17
ENDBRANCH  15  16
BRANCH  15  24
HETATM   24  C   UNL     1     -11.681   8.060  71.134  1.00  0.00    -0.284 C  
HETATM   25  O   UNL     1     -12.065   8.864  71.972  1.00  0.00    -0.338 OA 
BRANCH  24  26
HETATM   26  O   UNL     1     -12.184   6.803  70.955  1.00  0.00    -0.377 OA 
BRANCH  26  27
HETATM   27  C   UNL     1     -11.283   5.728  71.267  1.00  0.00    -0.153 C  
HETATM   28  C   UNL     1     -11.284   5.478  72.764  1.00  0.00    -0.358 C  
ENDBRANCH  26  27
ENDBRANCH  24  26
ENDBRANCH  15  24
ENDBRANCH  13  15
ENDBRANCH   1  13
BRANCH   5  29
HETATM   29  C   UNL     1     -11.697  13.423  68.124  1.00  0.00    -0.362 C  
HETATM   30  C   UNL     1     -10.639  14.384  68.666  1.00  0.00    -0.252 C  
HETATM   31  O   UNL     1     -10.921  15.425  69.246  1.00  0.00    -0.233 OA 
HETATM   32  O   UNL     1      -9.355  13.997  68.503  1.00  0.00    -0.206 OA 
ENDBRANCH   5  29
TORSDOF 9
ENDMDL
MODEL       44
REMARK 921   NORMALIZED FREE ENERGY PREDICTED BY IDOCK:   -5.78 KCAL/MOL
REMARK 922        TOTAL FREE ENERGY PREDICTED BY IDOCK:  -10.98 KCAL/MOL
REMARK 923 INTER-LIGAND FREE ENERGY PREDICTED BY IDOCK:   -9.23 KCAL/MOL
REMARK 924 INTRA-LIGAND FREE ENERGY PREDICTED BY IDOCK:   -1.75 KCAL/MOL
REMARK 927      BINDING AFFINITY PREDICTED BY RF-SCORE:    0.00 PKD
ROOT
HETATM    1  C   UNL     1     -10.238  11.102  67.541  1.00  0.00    -0.186 C  
HETATM    2  C   UNL     1     -10.821  10.852  68.929  1.00  0.00    -0.262 C  
HETATM    3  O   UNL     1      -9.194  12.958  66.359  1.00  0.00    -0.221 OA 
HETATM    4  C   UNL     1     -12.208  14.738  71.108  1.00  0.00    -0.388 A  
HETATM    5  N   UNL     1     -11.302  13.399  67.173  1.00  0.00    -0.302 N  
HETATM    6  C   UNL     1     -12.181  11.492  69.140  1.00  0.00    -0.221 C  
HETATM    7  C   UNL     1     -10.150  12.590  67.055  1.00  0.00    -0.216 C  
HETATM    8  C   UNL     1     -11.529  15.228  68.843  1.00  0.00    -0.346 A  
HETATM    9  C   UNL     1     -12.018  12.950  69.470  1.00  0.00    -0.346 A  
HETATM   10  C   UNL     1     -12.312  13.393  70.772  1.00  0.00    -0.433 A  
HETATM   11  C   UNL     1     -11.824  15.658  70.140  1.00  0.00    -0.381 A  
HETATM   12  C   UNL     1     -11.595  13.869  68.501  1.00  0.00    -0.332 A  
ENDROOT
BRANCH   1  13
HETATM   13  N   UNL     1      -8.875  10.524  67.464  1.00  0.00    -0.131 NA 
HETATM   14  H   UNL     1      -8.104  10.925  67.999  1.00  0.00     0.000 HD 
BRANCH  13  15
HETATM   15  C   UNL     1      -8.665   9.349  66.590  1.00  0.00    -0.131 C  
BRANCH  15  16
HETATM   16  C   UNL     1      -9.737   8.249  66.719  1.00  0.00    -0.307 C  
BRANCH  16  17
HETATM   17  C   UNL     1      -9.302   7.111  67.660  1.00  0.00    -0.135 C  
BRANCH  17  18
HETATM   18  C   UNL     1      -9.965   7.217  69.011  1.00  0.00    -0.177 A  
HETATM   19  C   UNL     1      -9.374   7.971  70.035  1.00  0.00    -0.156 A  
HETATM   20  C   UNL     1     -11.148   7.342  71.553  1.00  0.00    -0.266 A  
HETATM   21  C   UNL     1      -9.965   8.033  71.300  1.00  0.00    -0.211 A  
HETATM   22  C   UNL     1     -11.750   6.601  70.536  1.00  0.00    -0.453 A  
HETATM   23  C   UNL     1     -11.163   6.541  69.272  1.00  0.00    -0.390 A  
ENDBRANCH  17  18
ENDBRANCH  16  17
ENDBRANCH  15  16
BRANCH  15  24
HETATM   24  C   UNL     1      -8.673   9.852  65.127  1.00  0.00    -0.165 C  
HETATM   25  O   UNL     1      -9.670   9.909  64.421  1.00  0.00    -0.274 OA 
BRANCH  24  26
HETATM   26  O   UNL     1      -7.401  10.142  64.724  1.00  0.00    -0.141 OA 
BRANCH  26  27
HETATM   27  C   UNL     1      -6.998   9.551  63.477  1.00  0.00    -0.103 C  
HETATM   28  C   UNL     1      -5.826  10.324  62.901  1.00  0.00    -0.135 C  
ENDBRANCH  26  27
ENDBRANCH  24  26
ENDBRANCH  15  24
ENDBRANCH  13  15
ENDBRANCH   1  13
BRANCH   5  29
HETATM   29  C   UNL     1     -11.461  14.343  66.047  1.00  0.00    -0.349 C  
HETATM   30  C   UNL     1     -12.401  13.911  64.923  1.00  0.00    -0.420 C  
HETATM   31  O   UNL     1     -12.608  14.596  63.930  1.00  0.00    -0.834 OA 
HETATM   32  O   UNL     1     -12.970  12.694  65.068  1.00  0.00    -0.812 OA 
ENDBRANCH   5  29
TORSDOF 9
ENDMDL
MODEL       45
REMARK 921   NORMALIZED FREE ENERGY PREDICTED BY IDOCK:   -5.78 KCAL/MOL
REMARK 922        TOTAL FREE ENERGY PREDICTED BY IDOCK:  -10.97 KCAL/MOL
REMARK 923 INTER-LIGAND FREE ENERGY PREDICTED BY IDOCK:   -9.44 KCAL/MOL
REMARK 924 INTRA-LIGAND FREE ENERGY PREDICTED BY IDOCK:   -1.53 KCAL/MOL
REMARK 927      BINDING AFFINITY PREDICTED BY RF-SCORE:    0.00 PKD
ROOT
HETATM    1  C   UNL     1      -8.969   9.580  68.049  1.00  0.00    -0.123 C  
HETATM    2  C   UNL     1      -8.746  10.029  69.490  1.00  0.00    -0.205 C  
HETATM    3  O   UNL     1     -10.806   8.673  66.733  1.00  0.00    -0.145 OA 
HETATM    4  C   UNL     1     -11.706   8.094  72.535  1.00  0.00    -0.457 A  
HETATM    5  N   UNL     1     -10.250   7.434  68.593  1.00  0.00    -0.187 N  
HETATM    6  C   UNL     1      -8.618   8.878  70.471  1.00  0.00    -0.208 C  
HETATM    7  C   UNL     1     -10.150   8.585  67.779  1.00  0.00    -0.211 C  
HETATM    8  C   UNL     1     -11.997   7.135  70.338  1.00  0.00    -0.190 A  
HETATM    9  C   UNL     1      -9.981   8.362  70.841  1.00  0.00    -0.230 A  
HETATM   10  C   UNL     1     -10.465   8.585  72.142  1.00  0.00    -0.412 A  
HETATM   11  C   UNL     1     -12.468   7.362  71.634  1.00  0.00    -0.381 A  
HETATM   12  C   UNL     1     -10.763   7.656  69.918  1.00  0.00    -0.249 A  
ENDROOT
BRANCH   1  13
HETATM   13  N   UNL     1      -9.178  10.768  67.186  1.00  0.00    -0.147 NA 
HETATM   14  H   UNL     1      -8.551  10.967  66.407  1.00  0.00     0.000 HD 
BRANCH  13  15
HETATM   15  C   UNL     1     -10.322  11.656  67.489  1.00  0.00    -0.197 C  
BRANCH  15  16
HETATM   16  C   UNL     1     -10.021  12.771  68.510  1.00  0.00    -0.168 C  
BRANCH  16  17
HETATM   17  C   UNL     1     -11.255  13.641  68.812  1.00  0.00    -0.314 C  
BRANCH  17  18
HETATM   18  C   UNL     1     -12.006  13.146  70.024  1.00  0.00    -0.391 A  
HETATM   19  C   UNL     1     -12.136  11.771  70.266  1.00  0.00    -0.426 A  
HETATM   20  C   UNL     1     -13.480  12.221  72.225  1.00  0.00    -0.365 A  
HETATM   21  C   UNL     1     -12.870  11.313  71.363  1.00  0.00    -0.515 A  
HETATM   22  C   UNL     1     -13.343  13.591  71.999  1.00  0.00    -0.563 A  
HETATM   23  C   UNL     1     -12.609  14.051  70.906  1.00  0.00    -0.431 A  
ENDBRANCH  17  18
ENDBRANCH  16  17
ENDBRANCH  15  16
BRANCH  15  24
HETATM   24  C   UNL     1     -10.753  12.327  66.164  1.00  0.00    -0.261 C  
HETATM   25  O   UNL     1     -10.058  13.106  65.526  1.00  0.00    -0.289 OA 
BRANCH  24  26
HETATM   26  O   UNL     1     -12.039  11.983  65.860  1.00  0.00    -0.546 OA 
BRANCH  26  27
HETATM   27  C   UNL     1     -12.651  12.751  64.811  1.00  0.00    -0.446 C  
HETATM   28  C   UNL     1     -12.526  12.006  63.493  1.00  0.00    -0.654 C  
ENDBRANCH  26  27
ENDBRANCH  24  26
ENDBRANCH  15  24
ENDBRANCH  13  15
ENDBRANCH   1  13
BRANCH   5  29
HETATM   29  C   UNL     1     -10.720   6.245  67.852  1.00  0.00    -0.305 C  
HETATM   30  C   UNL     1      -9.708   5.115  67.666  1.00  0.00    -0.148 C  
HETATM   31  O   UNL     1      -9.968   4.083  67.061  1.00  0.00    -0.176 OA 
HETATM   32  O   UNL     1      -8.478   5.337  68.179  1.00  0.00    -0.098 OA 
ENDBRANCH   5  29
TORSDOF 9
ENDMDL
MODEL       46
REMARK 921   NORMALIZED FREE ENERGY PREDICTED BY IDOCK:   -5.74 KCAL/MOL
REMARK 922        TOTAL FREE ENERGY PREDICTED BY IDOCK:  -10.91 KCAL/MOL
REMARK 923 INTER-LIGAND FREE ENERGY PREDICTED BY IDOCK:   -9.49 KCAL/MOL
REMARK 924 INTRA-LIGAND FREE ENERGY PREDICTED BY IDOCK:   -1.42 KCAL/MOL
REMARK 927      BINDING AFFINITY PREDICTED BY RF-SCORE:    0.00 PKD
ROOT
HETATM    1  C   UNL     1     -11.031  11.407  68.322  1.00  0.00    -0.216 C  
HETATM    2  C   UNL     1     -11.400  12.350  69.464  1.00  0.00    -0.250 C  
HETATM    3  O   UNL     1      -9.442  11.385  66.477  1.00  0.00    -0.190 OA 
HETATM    4  C   UNL     1     -10.276  16.805  68.651  1.00  0.00    -0.298 A  
HETATM    5  N   UNL     1     -10.873  13.188  66.493  1.00  0.00    -0.278 N  
HETATM    6  C   UNL     1     -12.205  13.556  69.017  1.00  0.00    -0.224 C  
HETATM    7  C   UNL     1     -10.312  12.031  67.076  1.00  0.00    -0.211 C  
HETATM    8  C   UNL     1      -9.865  15.453  66.693  1.00  0.00    -0.269 A  
HETATM    9  C   UNL     1     -11.290  14.604  68.446  1.00  0.00    -0.312 A  
HETATM   10  C   UNL     1     -11.088  15.797  69.161  1.00  0.00    -0.283 A  
HETATM   11  C   UNL     1      -9.671  16.636  67.412  1.00  0.00    -0.251 A  
HETATM   12  C   UNL     1     -10.652  14.414  67.213  1.00  0.00    -0.279 A  
ENDROOT
BRANCH   1  13
HETATM   13  N   UNL     1     -10.168  10.317  68.839  1.00  0.00    -0.193 NA 
HETATM   14  H   UNL     1      -9.164  10.312  68.657  1.00  0.00     0.000 HD 
BRANCH  13  15
HETATM   15  C   UNL     1     -10.805   9.237  69.624  1.00  0.00    -0.212 C  
BRANCH  15  16
HETATM   16  C   UNL     1     -10.515   7.811  69.117  1.00  0.00    -0.219 C  
BRANCH  16  17
HETATM   17  C   UNL     1     -11.550   6.787  69.614  1.00  0.00    -0.234 C  
BRANCH  17  18
HETATM   18  C   UNL     1     -11.021   5.970  70.767  1.00  0.00    -0.364 A  
HETATM   19  C   UNL     1     -11.685   5.972  72.003  1.00  0.00    -0.315 A  
HETATM   20  C   UNL     1      -9.989   4.528  72.941  1.00  0.00    -0.198 A  
HETATM   21  C   UNL     1     -11.170   5.252  73.083  1.00  0.00    -0.382 A  
HETATM   22  C   UNL     1      -9.329   4.510  71.712  1.00  0.00    -0.194 A  
HETATM   23  C   UNL     1      -9.843   5.225  70.632  1.00  0.00    -0.264 A  
ENDBRANCH  17  18
ENDBRANCH  16  17
ENDBRANCH  15  16
BRANCH  15  24
HETATM   24  C   UNL     1     -10.277   9.344  71.074  1.00  0.00    -0.299 C  
HETATM   25  O   UNL     1      -9.097   9.266  71.387  1.00  0.00    -0.299 OA 
BRANCH  24  26
HETATM   26  O   UNL     1     -11.321   9.457  71.947  1.00  0.00    -0.370 OA 
BRANCH  26  27
HETATM   27  C   UNL     1     -12.603   9.705  71.347  1.00  0.00    -0.371 C  
HETATM   28  C   UNL     1     -13.689   9.022  72.159  1.00  0.00    -0.536 C  
ENDBRANCH  26  27
ENDBRANCH  24  26
ENDBRANCH  15  24
ENDBRANCH  13  15
ENDBRANCH   1  13
BRANCH   5  29
HETATM   29  C   UNL     1     -10.747  13.211  65.021  1.00  0.00    -0.323 C  
HETATM   30  C   UNL     1     -12.033  12.996  64.224  1.00  0.00    -0.402 C  
HETATM   31  O   UNL     1     -12.062  12.979  63.000  1.00  0.00    -0.448 OA 
HETATM   32  O   UNL     1     -13.149  12.782  64.955  1.00  0.00    -0.811 OA 
ENDBRANCH   5  29
TORSDOF 9
ENDMDL
MODEL       47
REMARK 921   NORMALIZED FREE ENERGY PREDICTED BY IDOCK:   -5.74 KCAL/MOL
REMARK 922        TOTAL FREE ENERGY PREDICTED BY IDOCK:  -10.91 KCAL/MOL
REMARK 923 INTER-LIGAND FREE ENERGY PREDICTED BY IDOCK:   -9.76 KCAL/MOL
REMARK 924 INTRA-LIGAND FREE ENERGY PREDICTED BY IDOCK:   -1.15 KCAL/MOL
REMARK 927      BINDING AFFINITY PREDICTED BY RF-SCORE:    0.00 PKD
ROOT
HETATM    1  C   UNL     1      -9.925  12.062  68.284  1.00  0.00    -0.203 C  
HETATM    2  C   UNL     1      -8.418  11.828  68.332  1.00  0.00    -0.155 C  
HETATM    3  O   UNL     1     -11.870  10.936  67.346  1.00  0.00    -0.465 OA 
HETATM    4  C   UNL     1      -6.827   9.138  64.867  1.00  0.00    -0.081 A  
HETATM    5  N   UNL     1     -10.244  11.489  65.812  1.00  0.00    -0.239 N  
HETATM    6  C   UNL     1      -7.715  12.134  67.022  1.00  0.00    -0.112 C  
HETATM    7  C   UNL     1     -10.726  11.360  67.133  1.00  0.00    -0.249 C  
HETATM    8  C   UNL     1      -9.170   9.630  64.555  1.00  0.00    -0.277 A  
HETATM    9  C   UNL     1      -7.866  10.976  66.074  1.00  0.00    -0.077 A  
HETATM   10  C   UNL     1      -6.738  10.196  65.766  1.00  0.00    -0.110 A  
HETATM   11  C   UNL     1      -8.044   8.860  64.255  1.00  0.00    -0.158 A  
HETATM   12  C   UNL     1      -9.102  10.676  65.487  1.00  0.00    -0.190 A  
ENDROOT
BRANCH   1  13
HETATM   13  N   UNL     1     -10.532  11.645  69.571  1.00  0.00    -0.429 NA 
HETATM   14  H   UNL     1     -10.302  10.746  69.994  1.00  0.00     0.000 HD 
BRANCH  13  15
HETATM   15  C   UNL     1     -11.482  12.573  70.225  1.00  0.00     0.211 C  
BRANCH  15  16
HETATM   16  C   UNL     1     -12.231  13.515  69.263  1.00  0.00    -0.257 C  
BRANCH  16  17
HETATM   17  C   UNL     1     -11.970  15.000  69.571  1.00  0.00    -0.346 C  
BRANCH  17  18
HETATM   18  C   UNL     1     -12.415  15.369  70.965  1.00  0.00    -0.469 A  
HETATM   19  C   UNL     1     -13.764  15.257  71.334  1.00  0.00    -0.602 A  
HETATM   20  C   UNL     1     -13.260  16.141  73.527  1.00  0.00    -0.526 A  
HETATM   21  C   UNL     1     -14.182  15.641  72.610  1.00  0.00    -0.394 A  
HETATM   22  C   UNL     1     -11.914  16.243  73.173  1.00  0.00    -0.562 A  
HETATM   23  C   UNL     1     -11.494  15.857  71.901  1.00  0.00    -0.442 A  
ENDBRANCH  17  18
ENDBRANCH  16  17
ENDBRANCH  15  16
BRANCH  15  24
HETATM   24  C   UNL     1     -12.534  11.714  70.965  1.00  0.00    -0.334 C  
HETATM   25  O   UNL     1     -13.270  12.132  71.849  1.00  0.00    -0.478 OA 
BRANCH  24  26
HETATM   26  O   UNL     1     -12.461  10.417  70.545  1.00  0.00    -0.311 OA 
BRANCH  26  27
HETATM   27  C   UNL     1     -13.009   9.443  71.449  1.00  0.00    -0.346 C  
HETATM   28  C   UNL     1     -11.894   8.566  71.992  1.00  0.00    -0.429 C  
ENDBRANCH  26  27
ENDBRANCH  24  26
ENDBRANCH  15  24
ENDBRANCH  13  15
ENDBRANCH   1  13
BRANCH   5  29
HETATM   29  C   UNL     1     -11.327  11.602  64.812  1.00  0.00    -0.201 C  
HETATM   30  C   UNL     1     -11.468  12.951  64.110  1.00  0.00    -0.396 C  
HETATM   31  O   UNL     1     -12.331  13.178  63.272  1.00  0.00    -0.712 OA 
HETATM   32  O   UNL     1     -10.598  13.910  64.498  1.00  0.00    -0.424 OA 
ENDBRANCH   5  29
TORSDOF 9
ENDMDL
MODEL       48
REMARK 921   NORMALIZED FREE ENERGY PREDICTED BY IDOCK:   -5.73 KCAL/MOL
REMARK 922        TOTAL FREE ENERGY PREDICTED BY IDOCK:  -10.90 KCAL/MOL
REMARK 923 INTER-LIGAND FREE ENERGY PREDICTED BY IDOCK:   -9.46 KCAL/MOL
REMARK 924 INTRA-LIGAND FREE ENERGY PREDICTED BY IDOCK:   -1.44 KCAL/MOL
REMARK 927      BINDING AFFINITY PREDICTED BY RF-SCORE:    0.00 PKD
ROOT
HETATM    1  C   UNL     1     -10.893  13.284  68.852  1.00  0.00    -0.210 C  
HETATM    2  C   UNL     1     -11.996  12.676  69.713  1.00  0.00    -0.365 C  
HETATM    3  O   UNL     1      -9.067  14.866  69.156  1.00  0.00    -0.192 OA 
HETATM    4  C   UNL     1     -13.121  15.273  73.423  1.00  0.00    -0.612 A  
HETATM    5  N   UNL     1     -11.153  15.691  69.675  1.00  0.00    -0.272 N  
HETATM    6  C   UNL     1     -13.138  13.634  70.000  1.00  0.00     0.550 C  
HETATM    7  C   UNL     1     -10.273  14.642  69.328  1.00  0.00    -0.147 C  
HETATM    8  C   UNL     1     -11.544  16.439  72.015  1.00  0.00    -0.339 A  
HETATM    9  C   UNL     1     -12.765  14.558  71.126  1.00  0.00    -0.408 A  
HETATM   10  C   UNL     1     -13.411  14.416  72.367  1.00  0.00    -0.557 A  
HETATM   11  C   UNL     1     -12.191  16.290  73.244  1.00  0.00    -0.616 A  
HETATM   12  C   UNL     1     -11.801  15.559  70.953  1.00  0.00    -0.371 A  
ENDROOT
BRANCH   1  13
HETATM   13  N   UNL     1      -9.783  12.310  68.708  1.00  0.00    -0.411 NA 
HETATM   14  H   UNL     1      -8.815  12.592  68.860  1.00  0.00     0.000 HD 
BRANCH  13  15
HETATM   15  C   UNL     1     -10.122  10.918  68.339  1.00  0.00    -0.183 C  
BRANCH  15  16
HETATM   16  C   UNL     1      -9.503  10.434  67.013  1.00  0.00    -0.189 C  
BRANCH  16  17
HETATM   17  C   UNL     1      -8.991  11.596  66.142  1.00  0.00    -0.180 C  
BRANCH  17  18
HETATM   18  C   UNL     1     -10.062  12.111  65.212  1.00  0.00    -0.291 A  
HETATM   19  C   UNL     1     -10.477  13.449  65.278  1.00  0.00    -0.334 A  
HETATM   20  C   UNL     1     -12.116  13.050  63.547  1.00  0.00    -0.617 A  
HETATM   21  C   UNL     1     -11.499  13.915  64.448  1.00  0.00    -0.376 A  
HETATM   22  C   UNL     1     -11.700  11.721  63.465  1.00  0.00    -0.485 A  
HETATM   23  C   UNL     1     -10.678  11.255  64.291  1.00  0.00    -0.416 A  
ENDBRANCH  17  18
ENDBRANCH  16  17
ENDBRANCH  15  16
BRANCH  15  24
HETATM   24  C   UNL     1      -9.605   9.998  69.470  1.00  0.00    -0.230 C  
HETATM   25  O   UNL     1      -8.439   9.943  69.836  1.00  0.00    -0.186 OA 
BRANCH  24  26
HETATM   26  O   UNL     1     -10.619   9.212  69.935  1.00  0.00    -0.216 OA 
BRANCH  26  27
HETATM   27  C   UNL     1     -10.917   9.352  71.334  1.00  0.00    -0.373 C  
HETATM   28  C   UNL     1     -12.421   9.403  71.533  1.00  0.00    -0.450 C  
ENDBRANCH  26  27
ENDBRANCH  24  26
ENDBRANCH  15  24
ENDBRANCH  13  15
ENDBRANCH   1  13
BRANCH   5  29
HETATM   29  C   UNL     1     -10.645  17.023  69.285  1.00  0.00    -0.276 C  
HETATM   30  C   UNL     1     -10.718  17.371  67.799  1.00  0.00    -0.332 C  
HETATM   31  O   UNL     1     -10.318  18.435  67.345  1.00  0.00    -0.354 OA 
HETATM   32  O   UNL     1     -11.220  16.408  66.994  1.00  0.00    -0.024 OA 
ENDBRANCH   5  29
TORSDOF 9
ENDMDL
MODEL       49
REMARK 921   NORMALIZED FREE ENERGY PREDICTED BY IDOCK:   -5.72 KCAL/MOL
REMARK 922        TOTAL FREE ENERGY PREDICTED BY IDOCK:  -10.88 KCAL/MOL
REMARK 923 INTER-LIGAND FREE ENERGY PREDICTED BY IDOCK:   -9.41 KCAL/MOL
REMARK 924 INTRA-LIGAND FREE ENERGY PREDICTED BY IDOCK:   -1.47 KCAL/MOL
REMARK 927      BINDING AFFINITY PREDICTED BY RF-SCORE:    0.00 PKD
ROOT
HETATM    1  C   UNL     1     -10.745   9.371  67.888  1.00  0.00    -0.210 C  
HETATM    2  C   UNL     1     -10.635   8.363  66.748  1.00  0.00    -0.227 C  
HETATM    3  O   UNL     1      -9.389  10.056  69.791  1.00  0.00    -0.220 OA 
HETATM    4  C   UNL     1      -7.774   4.794  67.668  1.00  0.00    -0.086 A  
HETATM    5  N   UNL     1      -9.925   7.817  69.748  1.00  0.00    -0.186 N  
HETATM    6  C   UNL     1     -10.875   6.928  67.181  1.00  0.00    -0.447 C  
HETATM    7  C   UNL     1      -9.881   9.105  69.169  1.00  0.00    -0.171 C  
HETATM    8  C   UNL     1      -8.050   6.189  69.620  1.00  0.00    -0.112 A  
HETATM    9  C   UNL     1      -9.627   6.363  67.802  1.00  0.00    -0.123 A  
HETATM   10  C   UNL     1      -8.913   5.368  67.113  1.00  0.00    -0.112 A  
HETATM   11  C   UNL     1      -7.347   5.200  68.927  1.00  0.00    -0.065 A  
HETATM   12  C   UNL     1      -9.179   6.801  69.055  1.00  0.00    -0.136 A  
ENDROOT
BRANCH   1  13
HETATM   13  N   UNL     1     -10.401  10.724  67.388  1.00  0.00    -0.200 NA 
HETATM   14  H   UNL     1      -9.497  10.909  66.953  1.00  0.00     0.000 HD 
BRANCH  13  15
HETATM   15  C   UNL     1     -11.408  11.798  67.539  1.00  0.00    -0.310 C  
BRANCH  15  16
HETATM   16  C   UNL     1     -11.047  12.880  68.576  1.00  0.00    -0.299 C  
BRANCH  16  17
HETATM   17  C   UNL     1     -12.140  13.955  68.711  1.00  0.00    -0.344 C  
BRANCH  17  18
HETATM   18  C   UNL     1     -12.530  14.180  70.152  1.00  0.00    -0.391 A  
HETATM   19  C   UNL     1     -12.898  13.098  70.965  1.00  0.00    -0.295 A  
HETATM   20  C   UNL     1     -13.343  14.605  72.803  1.00  0.00    -0.593 A  
HETATM   21  C   UNL     1     -13.302  13.313  72.285  1.00  0.00    -0.630 A  
HETATM   22  C   UNL     1     -12.965  15.685  72.005  1.00  0.00    -0.530 A  
HETATM   23  C   UNL     1     -12.559  15.473  70.688  1.00  0.00    -0.493 A  
ENDBRANCH  17  18
ENDBRANCH  16  17
ENDBRANCH  15  16
BRANCH  15  24
HETATM   24  C   UNL     1     -11.559  12.489  66.164  1.00  0.00    -0.395 C  
HETATM   25  O   UNL     1     -12.575  12.458  65.483  1.00  0.00    -0.616 OA 
BRANCH  24  26
HETATM   26  O   UNL     1     -10.376  13.063  65.794  1.00  0.00    -0.277 OA 
BRANCH  26  27
HETATM   27  C   UNL     1     -10.485  14.178  64.894  1.00  0.00    -0.438 C  
HETATM   28  C   UNL     1     -10.454  15.475  65.682  1.00  0.00    -0.393 C  
ENDBRANCH  26  27
ENDBRANCH  24  26
ENDBRANCH  15  24
ENDBRANCH  13  15
ENDBRANCH   1  13
BRANCH   5  29
HETATM   29  C   UNL     1      -9.861   7.847  71.224  1.00  0.00    -0.168 C  
HETATM   30  C   UNL     1     -11.160   7.541  71.968  1.00  0.00    -0.247 C  
HETATM   31  O   UNL     1     -11.244   7.546  73.190  1.00  0.00    -0.369 OA 
HETATM   32  O   UNL     1     -12.240   7.300  71.192  1.00  0.00    -0.324 OA 
ENDBRANCH   5  29
TORSDOF 9
ENDMDL
MODEL       50
REMARK 921   NORMALIZED FREE ENERGY PREDICTED BY IDOCK:   -5.71 KCAL/MOL
REMARK 922        TOTAL FREE ENERGY PREDICTED BY IDOCK:  -10.87 KCAL/MOL
REMARK 923 INTER-LIGAND FREE ENERGY PREDICTED BY IDOCK:   -9.73 KCAL/MOL
REMARK 924 INTRA-LIGAND FREE ENERGY PREDICTED BY IDOCK:   -1.14 KCAL/MOL
REMARK 927      BINDING AFFINITY PREDICTED BY RF-SCORE:    0.00 PKD
ROOT
HETATM    1  C   UNL     1      -9.022   9.341  68.350  1.00  0.00    -0.129 C  
HETATM    2  C   UNL     1      -8.797   9.789  69.792  1.00  0.00    -0.241 C  
HETATM    3  O   UNL     1     -10.801   8.271  67.078  1.00  0.00    -0.245 OA 
HETATM    4  C   UNL     1     -11.440   7.518  72.894  1.00  0.00    -0.311 A  
HETATM    5  N   UNL     1     -10.060   7.068  68.896  1.00  0.00    -0.168 N  
HETATM    6  C   UNL     1      -8.519   8.643  70.746  1.00  0.00    -0.181 C  
HETATM    7  C   UNL     1     -10.104   8.235  68.100  1.00  0.00    -0.200 C  
HETATM    8  C   UNL     1     -11.707   6.567  70.691  1.00  0.00    -0.436 A  
HETATM    9  C   UNL     1      -9.810   7.985  71.151  1.00  0.00    -0.198 A  
HETATM   10  C   UNL     1     -10.269   8.138  72.471  1.00  0.00    -0.383 A  
HETATM   11  C   UNL     1     -12.155   6.725  72.005  1.00  0.00    -0.344 A  
HETATM   12  C   UNL     1     -10.548   7.217  70.241  1.00  0.00    -0.227 A  
ENDROOT
BRANCH   1  13
HETATM   13  N   UNL     1      -9.379  10.515  67.516  1.00  0.00    -0.149 NA 
HETATM   14  H   UNL     1      -8.705  10.924  66.870  1.00  0.00     0.000 HD 
BRANCH  13  15
HETATM   15  C   UNL     1     -10.743  11.075  67.650  1.00  0.00    -0.238 C  
BRANCH  15  16
HETATM   16  C   UNL     1     -10.887  12.174  68.720  1.00  0.00    -0.265 C  
BRANCH  16  17
HETATM   17  C   UNL     1     -11.725  11.716  69.927  1.00  0.00    -0.414 C  
BRANCH  17  18
HETATM   18  C   UNL     1     -12.384  12.880  70.625  1.00  0.00    -0.385 A  
HETATM   19  C   UNL     1     -13.121  12.678  71.802  1.00  0.00    -0.461 A  
HETATM   20  C   UNL     1     -13.687  15.027  71.876  1.00  0.00    -0.548 A  
HETATM   21  C   UNL     1     -13.768  13.749  72.423  1.00  0.00    -0.692 A  
HETATM   22  C   UNL     1     -12.945  15.239  70.714  1.00  0.00    -0.492 A  
HETATM   23  C   UNL     1     -12.296  14.172  70.094  1.00  0.00    -0.413 A  
ENDBRANCH  17  18
ENDBRANCH  16  17
ENDBRANCH  15  16
BRANCH  15  24
HETATM   24  C   UNL     1     -11.129  11.686  66.283  1.00  0.00    -0.290 C  
HETATM   25  O   UNL     1     -10.472  11.560  65.259  1.00  0.00    -0.264 OA 
BRANCH  24  26
HETATM   26  O   UNL     1     -12.257  12.445  66.411  1.00  0.00    -0.604 OA 
BRANCH  26  27
HETATM   27  C   UNL     1     -12.292  13.638  65.611  1.00  0.00    -0.478 C  
HETATM   28  C   UNL     1     -11.520  14.744  66.309  1.00  0.00    -0.316 C  
ENDBRANCH  26  27
ENDBRANCH  24  26
ENDBRANCH  15  24
ENDBRANCH  13  15
ENDBRANCH   1  13
BRANCH   5  29
HETATM   29  C   UNL     1     -10.432   5.848  68.149  1.00  0.00    -0.233 C  
HETATM   30  C   UNL     1      -9.398   4.723  68.124  1.00  0.00    -0.134 C  
HETATM   31  O   UNL     1      -9.578   3.668  67.530  1.00  0.00    -0.202 OA 
HETATM   32  O   UNL     1      -8.238   4.977  68.770  1.00  0.00    -0.084 OA 
ENDBRANCH   5  29
TORSDOF 9
ENDMDL
MODEL       51
REMARK 921   NORMALIZED FREE ENERGY PREDICTED BY IDOCK:   -5.70 KCAL/MOL
REMARK 922        TOTAL FREE ENERGY PREDICTED BY IDOCK:  -10.85 KCAL/MOL
REMARK 923 INTER-LIGAND FREE ENERGY PREDICTED BY IDOCK:   -8.67 KCAL/MOL
REMARK 924 INTRA-LIGAND FREE ENERGY PREDICTED BY IDOCK:   -2.18 KCAL/MOL
REMARK 927      BINDING AFFINITY PREDICTED BY RF-SCORE:    0.00 PKD
ROOT
HETATM    1  C   UNL     1     -10.792  10.483  67.472  1.00  0.00    -0.301 C  
HETATM    2  C   UNL     1     -11.367  10.460  68.886  1.00  0.00    -0.278 C  
HETATM    3  O   UNL     1      -9.388  11.967  66.147  1.00  0.00    -0.224 OA 
HETATM    4  C   UNL     1     -11.735  14.688  70.826  1.00  0.00    -0.336 A  
HETATM    5  N   UNL     1     -11.305  12.938  66.973  1.00  0.00    -0.293 N  
HETATM    6  C   UNL     1     -12.533  11.413  69.081  1.00  0.00     0.107 C  
HETATM    7  C   UNL     1     -10.378  11.876  66.885  1.00  0.00    -0.210 C  
HETATM    8  C   UNL     1     -11.042  14.867  68.520  1.00  0.00    -0.275 A  
HETATM    9  C   UNL     1     -12.024  12.809  69.309  1.00  0.00    -0.300 A  
HETATM   10  C   UNL     1     -12.161  13.386  70.583  1.00  0.00    -0.374 A  
HETATM   11  C   UNL     1     -11.182  15.432  69.791  1.00  0.00    -0.297 A  
HETATM   12  C   UNL     1     -11.433  13.543  68.272  1.00  0.00    -0.310 A  
ENDROOT
BRANCH   1  13
HETATM   13  N   UNL     1      -9.604   9.597  67.407  1.00  0.00    -0.144 NA 
HETATM   14  H   UNL     1      -8.990   9.602  66.592  1.00  0.00     0.000 HD 
BRANCH  13  15
HETATM   15  C   UNL     1      -9.335   8.707  68.558  1.00  0.00    -0.138 C  
BRANCH  15  16
HETATM   16  C   UNL     1      -9.334   7.202  68.223  1.00  0.00    -0.130 C  
BRANCH  16  17
HETATM   17  C   UNL     1     -10.727   6.565  68.373  1.00  0.00    -0.339 C  
BRANCH  17  18
HETATM   18  C   UNL     1     -11.046   6.250  69.814  1.00  0.00    -0.473 A  
HETATM   19  C   UNL     1     -12.000   7.005  70.512  1.00  0.00    -0.315 A  
HETATM   20  C   UNL     1     -11.576   5.727  72.519  1.00  0.00    -0.321 A  
HETATM   21  C   UNL     1     -12.262   6.743  71.858  1.00  0.00    -0.377 A  
HETATM   22  C   UNL     1     -10.635   4.961  71.829  1.00  0.00    -0.164 A  
HETATM   23  C   UNL     1     -10.374   5.220  70.484  1.00  0.00    -0.336 A  
ENDBRANCH  17  18
ENDBRANCH  16  17
ENDBRANCH  15  16
BRANCH  15  24
HETATM   24  C   UNL     1      -7.938   9.073  69.111  1.00  0.00    -0.101 C  
HETATM   25  O   UNL     1      -7.278  10.035  68.741  1.00  0.00    -0.072 OA 
BRANCH  24  26
HETATM   26  O   UNL     1      -7.524   8.127  70.005  1.00  0.00    -0.063 OA 
BRANCH  26  27
HETATM   27  C   UNL     1      -7.456   8.560  71.374  1.00  0.00    -0.102 C  
HETATM   28  C   UNL     1      -8.742   8.189  72.091  1.00  0.00    -0.234 C  
ENDBRANCH  26  27
ENDBRANCH  24  26
ENDBRANCH  15  24
ENDBRANCH  13  15
ENDBRANCH   1  13
BRANCH   5  29
HETATM   29  C   UNL     1     -11.280  13.823  65.790  1.00  0.00    -0.297 C  
HETATM   30  C   UNL     1     -12.319  13.540  64.705  1.00  0.00    -0.392 C  
HETATM   31  O   UNL     1     -12.395  14.191  63.671  1.00  0.00    -0.741 OA 
HETATM   32  O   UNL     1     -13.137  12.489  64.935  1.00  0.00    -0.833 OA 
ENDBRANCH   5  29
TORSDOF 9
ENDMDL
MODEL       52
REMARK 921   NORMALIZED FREE ENERGY PREDICTED BY IDOCK:   -5.70 KCAL/MOL
REMARK 922        TOTAL FREE ENERGY PREDICTED BY IDOCK:  -10.85 KCAL/MOL
REMARK 923 INTER-LIGAND FREE ENERGY PREDICTED BY IDOCK:   -9.57 KCAL/MOL
REMARK 924 INTRA-LIGAND FREE ENERGY PREDICTED BY IDOCK:   -1.28 KCAL/MOL
REMARK 927      BINDING AFFINITY PREDICTED BY RF-SCORE:    0.00 PKD
ROOT
HETATM    1  C   UNL     1     -10.716  11.151  69.153  1.00  0.00    -0.221 C  
HETATM    2  C   UNL     1     -11.434  10.829  70.461  1.00  0.00    -0.367 C  
HETATM    3  O   UNL     1      -9.680  13.101  68.127  1.00  0.00    -0.218 OA 
HETATM    4  C   UNL     1     -13.340  14.557  72.519  1.00  0.00    -0.565 A  
HETATM    5  N   UNL     1     -11.894  13.374  68.697  1.00  0.00    -0.348 N  
HETATM    6  C   UNL     1     -12.852  11.367  70.522  1.00  0.00    -0.123 C  
HETATM    7  C   UNL     1     -10.681  12.651  68.701  1.00  0.00    -0.242 C  
HETATM    8  C   UNL     1     -12.443  15.145  70.356  1.00  0.00    -0.416 A  
HETATM    9  C   UNL     1     -12.834  12.825  70.889  1.00  0.00    -0.187 A  
HETATM   10  C   UNL     1     -13.307  13.216  72.154  1.00  0.00    -0.621 A  
HETATM   11  C   UNL     1     -12.915  15.523  71.615  1.00  0.00    -0.540 A  
HETATM   12  C   UNL     1     -12.370  13.793  69.989  1.00  0.00    -0.300 A  
ENDROOT
BRANCH   1  13
HETATM   13  N   UNL     1      -9.314  10.671  69.227  1.00  0.00    -0.356 NA 
HETATM   14  H   UNL     1      -8.533  11.312  69.090  1.00  0.00     0.000 HD 
BRANCH  13  15
HETATM   15  C   UNL     1      -9.082   9.236  69.504  1.00  0.00    -0.160 C  
BRANCH  15  16
HETATM   16  C   UNL     1      -8.388   8.463  68.366  1.00  0.00    -0.131 C  
BRANCH  16  17
HETATM   17  C   UNL     1      -9.388   7.907  67.337  1.00  0.00    -0.169 C  
BRANCH  17  18
HETATM   18  C   UNL     1      -9.343   8.678  66.040  1.00  0.00    -0.284 A  
HETATM   19  C   UNL     1      -8.476   8.286  65.010  1.00  0.00    -0.141 A  
HETATM   20  C   UNL     1      -9.191  10.163  63.665  1.00  0.00    -0.320 A  
HETATM   21  C   UNL     1      -8.403   9.027  63.828  1.00  0.00    -0.178 A  
HETATM   22  C   UNL     1     -10.066  10.552  64.679  1.00  0.00    -0.408 A  
HETATM   23  C   UNL     1     -10.143   9.813  65.859  1.00  0.00    -0.314 A  
ENDBRANCH  17  18
ENDBRANCH  16  17
ENDBRANCH  15  16
BRANCH  15  24
HETATM   24  C   UNL     1      -8.184   9.146  70.760  1.00  0.00    -0.190 C  
HETATM   25  O   UNL     1      -7.253   9.903  70.999  1.00  0.00    -0.330 OA 
BRANCH  24  26
HETATM   26  O   UNL     1      -8.532   8.058  71.508  1.00  0.00    -0.107 OA 
BRANCH  26  27
HETATM   27  C   UNL     1      -9.423   8.324  72.605  1.00  0.00    -0.284 C  
HETATM   28  C   UNL     1      -8.863   7.714  73.877  1.00  0.00    -0.311 C  
ENDBRANCH  26  27
ENDBRANCH  24  26
ENDBRANCH  15  24
ENDBRANCH  13  15
ENDBRANCH   1  13
BRANCH   5  29
HETATM   29  C   UNL     1     -11.991  14.330  67.574  1.00  0.00    -0.376 C  
HETATM   30  C   UNL     1     -12.313  13.739  66.203  1.00  0.00    -0.452 C  
HETATM   31  O   UNL     1     -12.408  14.421  65.190  1.00  0.00    -0.407 OA 
HETATM   32  O   UNL     1     -12.451  12.395  66.159  1.00  0.00    -0.507 OA 
ENDBRANCH   5  29
TORSDOF 9
ENDMDL
MODEL       53
REMARK 921   NORMALIZED FREE ENERGY PREDICTED BY IDOCK:   -5.69 KCAL/MOL
REMARK 922        TOTAL FREE ENERGY PREDICTED BY IDOCK:  -10.84 KCAL/MOL
REMARK 923 INTER-LIGAND FREE ENERGY PREDICTED BY IDOCK:   -8.94 KCAL/MOL
REMARK 924 INTRA-LIGAND FREE ENERGY PREDICTED BY IDOCK:   -1.89 KCAL/MOL
REMARK 927      BINDING AFFINITY PREDICTED BY RF-SCORE:    0.00 PKD
ROOT
HETATM    1  C   UNL     1     -10.209  12.463  68.323  1.00  0.00    -0.229 C  
HETATM    2  C   UNL     1      -8.732  12.081  68.374  1.00  0.00    -0.147 C  
HETATM    3  O   UNL     1     -12.234  11.600  67.283  1.00  0.00    -0.414 OA 
HETATM    4  C   UNL     1      -7.340   9.492  64.751  1.00  0.00    -0.112 A  
HETATM    5  N   UNL     1     -10.532  12.095  65.813  1.00  0.00    -0.245 N  
HETATM    6  C   UNL     1      -7.977  12.406  67.098  1.00  0.00    -0.153 C  
HETATM    7  C   UNL     1     -11.051  11.924  67.116  1.00  0.00    -0.293 C  
HETATM    8  C   UNL     1      -9.618  10.231  64.443  1.00  0.00    -0.378 A  
HETATM    9  C   UNL     1      -8.220  11.336  66.070  1.00  0.00    -0.045 A  
HETATM   10  C   UNL     1      -7.167  10.472  65.722  1.00  0.00    -0.135 A  
HETATM   11  C   UNL     1      -8.565   9.377  64.105  1.00  0.00    -0.216 A  
HETATM   12  C   UNL     1      -9.468  11.199  65.447  1.00  0.00    -0.222 A  
ENDROOT
BRANCH   1  13
HETATM   13  N   UNL     1     -10.879  12.021  69.570  1.00  0.00    -0.452 NA 
HETATM   14  H   UNL     1     -10.840  11.046  69.869  1.00  0.00     0.000 HD 
BRANCH  13  15
HETATM   15  C   UNL     1     -11.604  13.034  70.368  1.00  0.00     0.131 C  
BRANCH  15  16
HETATM   16  C   UNL     1     -12.207  14.191  69.547  1.00  0.00    -0.351 C  
BRANCH  16  17
HETATM   17  C   UNL     1     -11.731  15.571  70.036  1.00  0.00    -0.363 C  
BRANCH  17  18
HETATM   18  C   UNL     1     -10.612  16.112  69.180  1.00  0.00    -0.276 A  
HETATM   19  C   UNL     1      -9.283  15.744  69.432  1.00  0.00    -0.263 A  
HETATM   20  C   UNL     1      -8.521  17.189  67.651  1.00  0.00    -0.204 A  
HETATM   21  C   UNL     1      -8.243  16.281  68.669  1.00  0.00    -0.214 A  
HETATM   22  C   UNL     1      -9.842  17.551  67.384  1.00  0.00    -0.297 A  
HETATM   23  C   UNL     1     -10.881  17.014  68.143  1.00  0.00    -0.338 A  
ENDBRANCH  17  18
ENDBRANCH  16  17
ENDBRANCH  15  16
BRANCH  15  24
HETATM   24  C   UNL     1     -12.763  12.311  71.093  1.00  0.00    -0.243 C  
HETATM   25  O   UNL     1     -13.421  12.799  72.002  1.00  0.00    -0.495 OA 
BRANCH  24  26
HETATM   26  O   UNL     1     -12.884  11.033  70.627  1.00  0.00    -0.295 OA 
BRANCH  26  27
HETATM   27  C   UNL     1     -13.348  10.068  71.585  1.00  0.00    -0.373 C  
HETATM   28  C   UNL     1     -12.195   9.176  72.011  1.00  0.00    -0.443 C  
ENDBRANCH  26  27
ENDBRANCH  24  26
ENDBRANCH  15  24
ENDBRANCH  13  15
ENDBRANCH   1  13
BRANCH   5  29
HETATM   29  C   UNL     1     -11.579  12.381  64.810  1.00  0.00    -0.341 C  
HETATM   30  C   UNL     1     -11.857  13.855  64.516  1.00  0.00    -0.426 C  
HETATM   31  O   UNL     1     -12.707  14.225  63.717  1.00  0.00    -0.779 OA 
HETATM   32  O   UNL     1     -11.128  14.743  65.228  1.00  0.00    -0.332 OA 
ENDBRANCH   5  29
TORSDOF 9
ENDMDL
MODEL       54
REMARK 921   NORMALIZED FREE ENERGY PREDICTED BY IDOCK:   -5.67 KCAL/MOL
REMARK 922        TOTAL FREE ENERGY PREDICTED BY IDOCK:  -10.80 KCAL/MOL
REMARK 923 INTER-LIGAND FREE ENERGY PREDICTED BY IDOCK:   -9.51 KCAL/MOL
REMARK 924 INTRA-LIGAND FREE ENERGY PREDICTED BY IDOCK:   -1.29 KCAL/MOL
REMARK 927      BINDING AFFINITY PREDICTED BY RF-SCORE:    0.00 PKD
ROOT
HETATM    1  C   UNL     1     -10.795  10.207  67.541  1.00  0.00    -0.290 C  
HETATM    2  C   UNL     1      -9.910   9.561  66.478  1.00  0.00    -0.305 C  
HETATM    3  O   UNL     1     -10.656  10.673  69.927  1.00  0.00    -0.238 OA 
HETATM    4  C   UNL     1      -6.769   6.579  68.213  1.00  0.00    -0.068 A  
HETATM    5  N   UNL     1     -10.410   8.454  69.364  1.00  0.00    -0.213 N  
HETATM    6  C   UNL     1      -9.859   8.047  66.569  1.00  0.00    -0.289 C  
HETATM    7  C   UNL     1     -10.520   9.824  69.036  1.00  0.00    -0.213 C  
HETATM    8  C   UNL     1      -8.258   7.352  69.949  1.00  0.00    -0.132 A  
HETATM    9  C   UNL     1      -8.886   7.628  67.636  1.00  0.00    -0.125 A  
HETATM   10  C   UNL     1      -7.680   7.013  67.256  1.00  0.00    -0.109 A  
HETATM   11  C   UNL     1      -7.063   6.741  69.561  1.00  0.00    -0.072 A  
HETATM   12  C   UNL     1      -9.169   7.827  68.994  1.00  0.00    -0.143 A  
ENDROOT
BRANCH   1  13
HETATM   13  N   UNL     1     -10.704  11.683  67.432  1.00  0.00    -0.222 NA 
HETATM   14  H   UNL     1      -9.807  12.161  67.518  1.00  0.00     0.000 HD 
BRANCH  13  15
HETATM   15  C   UNL     1     -11.952  12.442  67.196  1.00  0.00    -0.177 C  
BRANCH  15  16
HETATM   16  C   UNL     1     -12.054  13.773  67.965  1.00  0.00    -0.315 C  
BRANCH  16  17
HETATM   17  C   UNL     1     -11.302  13.736  69.308  1.00  0.00    -0.325 C  
BRANCH  17  18
HETATM   18  C   UNL     1     -12.197  14.120  70.461  1.00  0.00    -0.431 A  
HETATM   19  C   UNL     1     -12.729  13.135  71.306  1.00  0.00    -0.396 A  
HETATM   20  C   UNL     1     -13.935  14.822  72.550  1.00  0.00    -0.527 A  
HETATM   21  C   UNL     1     -13.593  13.487  72.346  1.00  0.00    -0.709 A  
HETATM   22  C   UNL     1     -13.399  15.810  71.722  1.00  0.00    -0.450 A  
HETATM   23  C   UNL     1     -12.533  15.460  70.686  1.00  0.00    -0.478 A  
ENDBRANCH  17  18
ENDBRANCH  16  17
ENDBRANCH  15  16
BRANCH  15  24
HETATM   24  C   UNL     1     -12.022  12.759  65.684  1.00  0.00    -0.452 C  
HETATM   25  O   UNL     1     -13.061  12.831  65.040  1.00  0.00    -0.811 OA 
BRANCH  24  26
HETATM   26  O   UNL     1     -10.763  12.866  65.167  1.00  0.00    -0.289 OA 
BRANCH  26  27
HETATM   27  C   UNL     1     -10.691  12.997  63.738  1.00  0.00    -0.188 C  
HETATM   28  C   UNL     1     -10.162  11.708  63.134  1.00  0.00    -0.396 C  
ENDBRANCH  26  27
ENDBRANCH  24  26
ENDBRANCH  15  24
ENDBRANCH  13  15
ENDBRANCH   1  13
BRANCH   5  29
HETATM   29  C   UNL     1     -10.990   8.129  70.684  1.00  0.00    -0.244 C  
HETATM   30  C   UNL     1     -11.781   6.826  70.778  1.00  0.00    -0.386 C  
HETATM   31  O   UNL     1     -12.322   6.449  71.809  1.00  0.00    -0.333 OA 
HETATM   32  O   UNL     1     -11.888   6.119  69.631  1.00  0.00    -0.187 OA 
ENDBRANCH   5  29
TORSDOF 9
ENDMDL
MODEL       55
REMARK 921   NORMALIZED FREE ENERGY PREDICTED BY IDOCK:   -5.66 KCAL/MOL
REMARK 922        TOTAL FREE ENERGY PREDICTED BY IDOCK:  -10.80 KCAL/MOL
REMARK 923 INTER-LIGAND FREE ENERGY PREDICTED BY IDOCK:   -9.33 KCAL/MOL
REMARK 924 INTRA-LIGAND FREE ENERGY PREDICTED BY IDOCK:   -1.47 KCAL/MOL
REMARK 927      BINDING AFFINITY PREDICTED BY RF-SCORE:    0.00 PKD
ROOT
HETATM    1  C   UNL     1     -10.242  12.740  68.336  1.00  0.00    -0.236 C  
HETATM    2  C   UNL     1     -10.551  13.864  69.322  1.00  0.00    -0.062 C  
HETATM    3  O   UNL     1      -9.039  12.501  66.233  1.00  0.00    -0.179 OA 
HETATM    4  C   UNL     1     -10.373  18.123  67.424  1.00  0.00    -0.402 A  
HETATM    5  N   UNL     1     -10.729  14.064  66.202  1.00  0.00    -0.287 N  
HETATM    6  C   UNL     1     -11.619  14.825  68.831  1.00  0.00    -0.340 C  
HETATM    7  C   UNL     1      -9.881  13.151  66.867  1.00  0.00    -0.249 C  
HETATM    8  C   UNL     1     -10.103  16.425  65.730  1.00  0.00    -0.352 A  
HETATM    9  C   UNL     1     -11.016  15.822  67.881  1.00  0.00    -0.324 A  
HETATM   10  C   UNL     1     -10.893  17.163  68.286  1.00  0.00    -0.314 A  
HETATM   11  C   UNL     1      -9.986  17.754  66.142  1.00  0.00    -0.283 A  
HETATM   12  C   UNL     1     -10.592  15.439  66.601  1.00  0.00    -0.306 A  
ENDROOT
BRANCH   1  13
HETATM   13  N   UNL     1      -9.126  11.915  68.859  1.00  0.00    -0.391 NA 
HETATM   14  H   UNL     1      -8.246  12.344  69.143  1.00  0.00     0.000 HD 
BRANCH  13  15
HETATM   15  C   UNL     1      -9.328  10.453  68.956  1.00  0.00    -0.194 C  
BRANCH  15  16
HETATM   16  C   UNL     1      -8.688   9.794  70.193  1.00  0.00    -0.215 C  
BRANCH  16  17
HETATM   17  C   UNL     1      -8.567   8.266  70.050  1.00  0.00    -0.128 C  
BRANCH  17  18
HETATM   18  C   UNL     1      -9.498   7.540  70.990  1.00  0.00    -0.162 A  
HETATM   19  C   UNL     1     -10.054   6.305  70.626  1.00  0.00    -0.230 A  
HETATM   20  C   UNL     1     -11.302   6.233  72.696  1.00  0.00    -0.283 A  
HETATM   21  C   UNL     1     -10.951   5.655  71.478  1.00  0.00    -0.268 A  
HETATM   22  C   UNL     1     -10.744   7.455  73.071  1.00  0.00    -0.413 A  
HETATM   23  C   UNL     1      -9.845   8.103  72.224  1.00  0.00    -0.329 A  
ENDBRANCH  17  18
ENDBRANCH  16  17
ENDBRANCH  15  16
BRANCH  15  24
HETATM   24  C   UNL     1     -10.852  10.197  69.014  1.00  0.00    -0.224 C  
HETATM   25  O   UNL     1     -11.544  10.371  70.007  1.00  0.00    -0.261 OA 
BRANCH  24  26
HETATM   26  O   UNL     1     -11.286   9.677  67.828  1.00  0.00    -0.142 OA 
BRANCH  26  27
HETATM   27  C   UNL     1     -10.265   9.104  66.995  1.00  0.00    -0.263 C  
HETATM   28  C   UNL     1     -10.451   7.599  66.922  1.00  0.00    -0.388 C  
ENDBRANCH  26  27
ENDBRANCH  24  26
ENDBRANCH  15  24
ENDBRANCH  13  15
ENDBRANCH   1  13
BRANCH   5  29
HETATM   29  C   UNL     1     -10.881  13.767  64.763  1.00  0.00    -0.401 C  
HETATM   30  C   UNL     1     -12.311  13.699  64.228  1.00  0.00    -0.335 C  
HETATM   31  O   UNL     1     -12.572  13.449  63.059  1.00  0.00    -0.669 OA 
HETATM   32  O   UNL     1     -13.289  13.896  65.140  1.00  0.00    -0.698 OA 
ENDBRANCH   5  29
TORSDOF 9
ENDMDL
MODEL       56
REMARK 921   NORMALIZED FREE ENERGY PREDICTED BY IDOCK:   -5.66 KCAL/MOL
REMARK 922        TOTAL FREE ENERGY PREDICTED BY IDOCK:  -10.79 KCAL/MOL
REMARK 923 INTER-LIGAND FREE ENERGY PREDICTED BY IDOCK:   -9.33 KCAL/MOL
REMARK 924 INTRA-LIGAND FREE ENERGY PREDICTED BY IDOCK:   -1.47 KCAL/MOL
REMARK 927      BINDING AFFINITY PREDICTED BY RF-SCORE:    0.00 PKD
ROOT
HETATM    1  C   UNL     1     -10.836  10.855  69.486  1.00  0.00    -0.238 C  
HETATM    2  C   UNL     1      -9.404  10.369  69.277  1.00  0.00    -0.202 C  
HETATM    3  O   UNL     1     -12.334  11.217  71.371  1.00  0.00    -0.299 OA 
HETATM    4  C   UNL     1      -7.814   7.686  72.747  1.00  0.00    -0.127 A  
HETATM    5  N   UNL     1     -11.520   9.072  71.187  1.00  0.00    -0.287 N  
HETATM    6  C   UNL     1      -9.245   8.868  69.437  1.00  0.00    -0.146 C  
HETATM    7  C   UNL     1     -11.553  10.434  70.814  1.00  0.00    -0.358 C  
HETATM    8  C   UNL     1     -10.151   8.197  73.070  1.00  0.00    -0.290 A  
HETATM    9  C   UNL     1      -9.155   8.511  70.895  1.00  0.00    -0.208 A  
HETATM   10  C   UNL     1      -7.929   8.059  71.412  1.00  0.00    -0.109 A  
HETATM   11  C   UNL     1      -8.928   7.747  73.575  1.00  0.00    -0.327 A  
HETATM   12  C   UNL     1     -10.273   8.610  71.735  1.00  0.00    -0.308 A  
ENDROOT
BRANCH   1  13
HETATM   13  N   UNL     1     -10.873  12.336  69.406  1.00  0.00    -0.457 NA 
HETATM   14  H   UNL     1     -10.761  12.909  70.242  1.00  0.00     0.000 HD 
BRANCH  13  15
HETATM   15  C   UNL     1     -11.076  12.957  68.079  1.00  0.00    -0.253 C  
BRANCH  15  16
HETATM   16  C   UNL     1     -11.882  12.100  67.082  1.00  0.00    -0.292 C  
BRANCH  16  17
HETATM   17  C   UNL     1     -11.641  12.516  65.620  1.00  0.00    -0.435 C  
BRANCH  17  18
HETATM   18  C   UNL     1     -10.705  11.565  64.914  1.00  0.00    -0.357 A  
HETATM   19  C   UNL     1     -10.518  11.651  63.527  1.00  0.00    -0.498 A  
HETATM   20  C   UNL     1      -9.038   9.740  63.586  1.00  0.00    -0.269 A  
HETATM   21  C   UNL     1      -9.687  10.742  62.868  1.00  0.00    -0.337 A  
HETATM   22  C   UNL     1      -9.209   9.655  64.968  1.00  0.00    -0.310 A  
HETATM   23  C   UNL     1     -10.035  10.564  65.628  1.00  0.00    -0.332 A  
ENDBRANCH  17  18
ENDBRANCH  16  17
ENDBRANCH  15  16
BRANCH  15  24
HETATM   24  C   UNL     1     -11.845  14.281  68.299  1.00  0.00    -0.335 C  
HETATM   25  O   UNL     1     -11.820  15.231  67.528  1.00  0.00    -0.241 OA 
BRANCH  24  26
HETATM   26  O   UNL     1     -12.482  14.259  69.506  1.00  0.00    -0.292 OA 
BRANCH  26  27
HETATM   27  C   UNL     1     -12.370  15.461  70.285  1.00  0.00    -0.388 C  
HETATM   28  C   UNL     1     -11.658  15.160  71.592  1.00  0.00    -0.463 C  
ENDBRANCH  26  27
ENDBRANCH  24  26
ENDBRANCH  15  24
ENDBRANCH  13  15
ENDBRANCH   1  13
BRANCH   5  29
HETATM   29  C   UNL     1     -12.773   8.618  71.825  1.00  0.00    -0.359 C  
HETATM   30  C   UNL     1     -13.270   7.226  71.437  1.00  0.00    -0.346 C  
HETATM   31  O   UNL     1     -14.301   6.740  71.884  1.00  0.00    -0.290 OA 
HETATM   32  O   UNL     1     -12.519   6.566  70.528  1.00  0.00    -0.173 OA 
ENDBRANCH   5  29
TORSDOF 9
ENDMDL
MODEL       57
REMARK 921   NORMALIZED FREE ENERGY PREDICTED BY IDOCK:   -5.65 KCAL/MOL
REMARK 922        TOTAL FREE ENERGY PREDICTED BY IDOCK:  -10.78 KCAL/MOL
REMARK 923 INTER-LIGAND FREE ENERGY PREDICTED BY IDOCK:   -9.33 KCAL/MOL
REMARK 924 INTRA-LIGAND FREE ENERGY PREDICTED BY IDOCK:   -1.45 KCAL/MOL
REMARK 927      BINDING AFFINITY PREDICTED BY RF-SCORE:    0.00 PKD
ROOT
HETATM    1  C   UNL     1     -10.325  12.505  67.009  1.00  0.00    -0.224 C  
HETATM    2  C   UNL     1      -8.890  12.945  67.283  1.00  0.00    -0.206 C  
HETATM    3  O   UNL     1     -12.066  11.281  68.191  1.00  0.00    -0.635 OA 
HETATM    4  C   UNL     1      -6.714  10.347  70.490  1.00  0.00    -0.039 A  
HETATM    5  N   UNL     1     -10.094  10.125  67.917  1.00  0.00    -0.169 N  
HETATM    6  C   UNL     1      -7.881  11.815  67.190  1.00  0.00    -0.166 C  
HETATM    7  C   UNL     1     -10.879  11.297  67.840  1.00  0.00    -0.228 C  
HETATM    8  C   UNL     1      -8.881   9.418  69.970  1.00  0.00    -0.231 A  
HETATM    9  C   UNL     1      -7.882  11.018  68.465  1.00  0.00    -0.129 A  
HETATM   10  C   UNL     1      -6.768  11.095  69.319  1.00  0.00    -0.103 A  
HETATM   11  C   UNL     1      -7.769   9.501  70.811  1.00  0.00    -0.094 A  
HETATM   12  C   UNL     1      -8.964  10.195  68.804  1.00  0.00    -0.147 A  
ENDROOT
BRANCH   1  13
HETATM   13  N   UNL     1     -11.243  13.652  67.218  1.00  0.00    -0.300 NA 
HETATM   14  H   UNL     1     -11.609  13.869  68.145  1.00  0.00     0.000 HD 
BRANCH  13  15
HETATM   15  C   UNL     1     -11.613  14.471  66.042  1.00  0.00    -0.356 C  
BRANCH  15  16
HETATM   16  C   UNL     1     -10.446  15.250  65.405  1.00  0.00    -0.422 C  
BRANCH  16  17
HETATM   17  C   UNL     1     -10.802  16.721  65.126  1.00  0.00    -0.150 C  
BRANCH  17  18
HETATM   18  C   UNL     1     -10.396  17.622  66.267  1.00  0.00    -0.342 A  
HETATM   19  C   UNL     1     -10.606  19.006  66.188  1.00  0.00    -0.495 A  
HETATM   20  C   UNL     1      -9.559  19.309  68.346  1.00  0.00    -0.450 A  
HETATM   21  C   UNL     1     -10.189  19.844  67.225  1.00  0.00    -0.572 A  
HETATM   22  C   UNL     1      -9.359  17.932  68.439  1.00  0.00    -0.290 A  
HETATM   23  C   UNL     1      -9.777  17.093  67.406  1.00  0.00    -0.253 A  
ENDBRANCH  17  18
ENDBRANCH  16  17
ENDBRANCH  15  16
BRANCH  15  24
HETATM   24  C   UNL     1     -12.187  13.513  64.971  1.00  0.00    -0.419 C  
HETATM   25  O   UNL     1     -13.265  12.942  65.062  1.00  0.00    -0.765 OA 
BRANCH  24  26
HETATM   26  O   UNL     1     -11.283  13.342  63.962  1.00  0.00    -0.369 OA 
BRANCH  26  27
HETATM   27  C   UNL     1     -11.231  12.022  63.397  1.00  0.00    -0.398 C  
HETATM   28  C   UNL     1      -9.813  11.486  63.480  1.00  0.00    -0.407 C  
ENDBRANCH  26  27
ENDBRANCH  24  26
ENDBRANCH  15  24
ENDBRANCH  13  15
ENDBRANCH   1  13
BRANCH   5  29
HETATM   29  C   UNL     1     -10.902   8.889  67.911  1.00  0.00    -0.030 C  
HETATM   30  C   UNL     1     -10.451   7.783  66.958  1.00  0.00    -0.349 C  
HETATM   31  O   UNL     1     -11.041   6.717  66.849  1.00  0.00    -0.400 OA 
HETATM   32  O   UNL     1      -9.369   8.068  66.199  1.00  0.00    -0.192 OA 
ENDBRANCH   5  29
TORSDOF 9
ENDMDL
MODEL       58
REMARK 921   NORMALIZED FREE ENERGY PREDICTED BY IDOCK:   -5.65 KCAL/MOL
REMARK 922        TOTAL FREE ENERGY PREDICTED BY IDOCK:  -10.78 KCAL/MOL
REMARK 923 INTER-LIGAND FREE ENERGY PREDICTED BY IDOCK:   -9.29 KCAL/MOL
REMARK 924 INTRA-LIGAND FREE ENERGY PREDICTED BY IDOCK:   -1.49 KCAL/MOL
REMARK 927      BINDING AFFINITY PREDICTED BY RF-SCORE:    0.00 PKD
ROOT
HETATM    1  C   UNL     1     -10.371  11.177  66.849  1.00  0.00    -0.231 C  
HETATM    2  C   UNL     1      -9.554  11.087  65.562  1.00  0.00    -0.263 C  
HETATM    3  O   UNL     1     -10.036  10.669  69.206  1.00  0.00    -0.218 OA 
HETATM    4  C   UNL     1      -6.107   7.948  65.748  1.00  0.00    -0.038 A  
HETATM    5  N   UNL     1      -9.722   8.887  67.784  1.00  0.00    -0.155 N  
HETATM    6  C   UNL     1      -9.412   9.671  65.033  1.00  0.00    -0.312 C  
HETATM    7  C   UNL     1      -9.937  10.259  68.042  1.00  0.00    -0.153 C  
HETATM    8  C   UNL     1      -7.468   7.836  67.738  1.00  0.00    -0.104 A  
HETATM    9  C   UNL     1      -8.322   8.950  65.777  1.00  0.00    -0.139 A  
HETATM   10  C   UNL     1      -7.125   8.645  65.106  1.00  0.00    -0.086 A  
HETATM   11  C   UNL     1      -6.282   7.536  67.063  1.00  0.00    -0.052 A  
HETATM   12  C   UNL     1      -8.488   8.569  67.115  1.00  0.00    -0.118 A  
ENDROOT
BRANCH   1  13
HETATM   13  N   UNL     1     -10.372  12.578  67.337  1.00  0.00    -0.215 NA 
HETATM   14  H   UNL     1      -9.583  12.948  67.868  1.00  0.00     0.000 HD 
BRANCH  13  15
HETATM   15  C   UNL     1     -11.549  13.421  67.033  1.00  0.00    -0.356 C  
BRANCH  15  16
HETATM   16  C   UNL     1     -12.099  14.218  68.231  1.00  0.00    -0.278 C  
BRANCH  16  17
HETATM   17  C   UNL     1     -11.144  14.202  69.438  1.00  0.00    -0.261 C  
BRANCH  17  18
HETATM   18  C   UNL     1     -11.857  14.550  70.721  1.00  0.00    -0.367 A  
HETATM   19  C   UNL     1     -12.823  13.684  71.255  1.00  0.00    -0.424 A  
HETATM   20  C   UNL     1     -13.252  15.237  73.057  1.00  0.00    -0.617 A  
HETATM   21  C   UNL     1     -13.515  14.027  72.418  1.00  0.00    -0.639 A  
HETATM   22  C   UNL     1     -12.283  16.098  72.541  1.00  0.00    -0.609 A  
HETATM   23  C   UNL     1     -11.589  15.755  71.382  1.00  0.00    -0.511 A  
ENDBRANCH  17  18
ENDBRANCH  16  17
ENDBRANCH  15  16
BRANCH  15  24
HETATM   24  C   UNL     1     -11.126  14.431  65.941  1.00  0.00    -0.319 C  
HETATM   25  O   UNL     1     -10.583  15.504  66.166  1.00  0.00    -0.298 OA 
BRANCH  24  26
HETATM   26  O   UNL     1     -11.518  13.986  64.712  1.00  0.00    -0.340 OA 
BRANCH  26  27
HETATM   27  C   UNL     1     -12.654  13.106  64.708  1.00  0.00    -0.364 C  
HETATM   28  C   UNL     1     -12.503  12.081  63.598  1.00  0.00    -0.637 C  
ENDBRANCH  26  27
ENDBRANCH  24  26
ENDBRANCH  15  24
ENDBRANCH  13  15
ENDBRANCH   1  13
BRANCH   5  29
HETATM   29  C   UNL     1     -10.157   8.015  68.895  1.00  0.00    -0.201 C  
HETATM   30  C   UNL     1     -10.951   6.767  68.511  1.00  0.00    -0.192 C  
HETATM   31  O   UNL     1     -11.380   5.972  69.337  1.00  0.00    -0.398 OA 
HETATM   32  O   UNL     1     -11.192   6.607  67.191  1.00  0.00    -0.392 OA 
ENDBRANCH   5  29
TORSDOF 9
ENDMDL
MODEL       59
REMARK 921   NORMALIZED FREE ENERGY PREDICTED BY IDOCK:   -5.65 KCAL/MOL
REMARK 922        TOTAL FREE ENERGY PREDICTED BY IDOCK:  -10.77 KCAL/MOL
REMARK 923 INTER-LIGAND FREE ENERGY PREDICTED BY IDOCK:   -9.35 KCAL/MOL
REMARK 924 INTRA-LIGAND FREE ENERGY PREDICTED BY IDOCK:   -1.42 KCAL/MOL
REMARK 927      BINDING AFFINITY PREDICTED BY RF-SCORE:    0.00 PKD
ROOT
HETATM    1  C   UNL     1      -9.628  17.971  66.424  1.00  0.00    -0.295 C  
HETATM    2  C   UNL     1      -9.978  18.799  67.657  1.00  0.00    -0.390 C  
HETATM    3  O   UNL     1      -7.815  16.504  65.724  1.00  0.00    -0.007 OA 
HETATM    4  C   UNL     1      -6.274  19.974  70.239  1.00  0.00    -0.386 A  
HETATM    5  N   UNL     1      -7.161  18.635  66.301  1.00  0.00    -0.237 N  
HETATM    6  C   UNL     1      -9.165  20.074  67.782  1.00  0.00    -0.435 C  
HETATM    7  C   UNL     1      -8.120  17.601  66.210  1.00  0.00    -0.246 C  
HETATM    8  C   UNL     1      -5.579  18.876  68.205  1.00  0.00    -0.185 A  
HETATM    9  C   UNL     1      -7.814  19.768  68.369  1.00  0.00    -0.329 A  
HETATM   10  C   UNL     1      -7.523  20.206  69.673  1.00  0.00     0.249 A  
HETATM   11  C   UNL     1      -5.299  19.315  69.501  1.00  0.00    -0.206 A  
HETATM   12  C   UNL     1      -6.846  19.071  67.635  1.00  0.00    -0.212 A  
ENDROOT
BRANCH   1  13
HETATM   13  N   UNL     1     -10.402  16.705  66.442  1.00  0.00    -0.311 NA 
HETATM   14  H   UNL     1     -11.001  16.446  65.658  1.00  0.00     0.000 HD 
BRANCH  13  15
HETATM   15  C   UNL     1     -10.280  15.831  67.629  1.00  0.00    -0.266 C  
BRANCH  15  16
HETATM   16  C   UNL     1     -11.520  15.810  68.545  1.00  0.00    -0.381 C  
BRANCH  16  17
HETATM   17  C   UNL     1     -11.172  16.106  70.015  1.00  0.00    -0.359 C  
BRANCH  17  18
HETATM   18  C   UNL     1     -11.958  15.235  70.963  1.00  0.00    -0.395 A  
HETATM   19  C   UNL     1     -12.337  13.937  70.587  1.00  0.00    -0.451 A  
HETATM   20  C   UNL     1     -13.500  13.646  72.687  1.00  0.00    -0.608 A  
HETATM   21  C   UNL     1     -13.104  13.148  71.448  1.00  0.00    -0.352 A  
HETATM   22  C   UNL     1     -13.116  14.930  73.074  1.00  0.00    -0.605 A  
HETATM   23  C   UNL     1     -12.348  15.718  72.218  1.00  0.00    -0.540 A  
ENDBRANCH  17  18
ENDBRANCH  16  17
ENDBRANCH  15  16
BRANCH  15  24
HETATM   24  C   UNL     1     -10.038  14.390  67.122  1.00  0.00    -0.253 C  
HETATM   25  O   UNL     1      -9.630  13.472  67.820  1.00  0.00    -0.206 OA 
BRANCH  24  26
HETATM   26  O   UNL     1     -10.268  14.321  65.778  1.00  0.00    -0.305 OA 
BRANCH  26  27
HETATM   27  C   UNL     1     -11.254  13.359  65.370  1.00  0.00    -0.288 C  
HETATM   28  C   UNL     1     -12.641  13.961  65.501  1.00  0.00    -0.560 C  
ENDBRANCH  26  27
ENDBRANCH  24  26
ENDBRANCH  15  24
ENDBRANCH  13  15
ENDBRANCH   1  13
BRANCH   5  29
HETATM   29  C   UNL     1      -6.052  18.478  65.337  1.00  0.00    -0.266 C  
HETATM   30  C   UNL     1      -6.011  19.472  64.177  1.00  0.00    -0.222 C  
HETATM   31  O   UNL     1      -5.153  19.441  63.305  1.00  0.00    -0.199 OA 
HETATM   32  O   UNL     1      -7.014  20.377  64.144  1.00  0.00    -0.100 OA 
ENDBRANCH   5  29
TORSDOF 9
ENDMDL
MODEL       60
REMARK 921   NORMALIZED FREE ENERGY PREDICTED BY IDOCK:   -5.63 KCAL/MOL
REMARK 922        TOTAL FREE ENERGY PREDICTED BY IDOCK:  -10.74 KCAL/MOL
REMARK 923 INTER-LIGAND FREE ENERGY PREDICTED BY IDOCK:   -8.86 KCAL/MOL
REMARK 924 INTRA-LIGAND FREE ENERGY PREDICTED BY IDOCK:   -1.88 KCAL/MOL
REMARK 927      BINDING AFFINITY PREDICTED BY RF-SCORE:    0.00 PKD
ROOT
HETATM    1  C   UNL     1     -10.766  10.402  68.457  1.00  0.00    -0.221 C  
HETATM    2  C   UNL     1     -11.946  11.096  69.131  1.00  0.00    -0.413 C  
HETATM    3  O   UNL     1     -10.114   8.117  67.924  1.00  0.00    -0.177 OA 
HETATM    4  C   UNL     1     -14.313   8.343  72.062  1.00  0.00    -0.555 A  
HETATM    5  N   UNL     1     -10.513   8.508  70.157  1.00  0.00    -0.215 N  
HETATM    6  C   UNL     1     -11.951  10.953  70.642  1.00  0.00    -0.467 C  
HETATM    7  C   UNL     1     -10.529   8.890  68.797  1.00  0.00    -0.200 C  
HETATM    8  C   UNL     1     -12.341   7.216  71.242  1.00  0.00    -0.418 A  
HETATM    9  C   UNL     1     -12.514   9.614  71.031  1.00  0.00    -0.382 A  
HETATM   10  C   UNL     1     -13.772   9.558  71.655  1.00  0.00    -0.365 A  
HETATM   11  C   UNL     1     -13.592   7.172  71.862  1.00  0.00    -0.279 A  
HETATM   12  C   UNL     1     -11.801   8.431  70.794  1.00  0.00    -0.163 A  
ENDROOT
BRANCH   1  13
HETATM   13  N   UNL     1     -10.900  10.514  66.984  1.00  0.00    -0.255 NA 
HETATM   14  H   UNL     1     -11.407   9.809  66.448  1.00  0.00     0.000 HD 
BRANCH  13  15
HETATM   15  C   UNL     1     -10.278  11.678  66.314  1.00  0.00    -0.227 C  
BRANCH  15  16
HETATM   16  C   UNL     1      -8.788  11.891  66.644  1.00  0.00    -0.191 C  
BRANCH  16  17
HETATM   17  C   UNL     1      -8.577  12.877  67.807  1.00  0.00    -0.185 C  
BRANCH  17  18
HETATM   18  C   UNL     1      -9.315  14.174  67.582  1.00  0.00    -0.209 A  
HETATM   19  C   UNL     1      -8.860  15.093  66.625  1.00  0.00    -0.321 A  
HETATM   20  C   UNL     1     -10.630  16.627  67.227  1.00  0.00    -0.281 A  
HETATM   21  C   UNL     1      -9.517  16.313  66.449  1.00  0.00    -0.322 A  
HETATM   22  C   UNL     1     -11.096  15.712  68.172  1.00  0.00    -0.330 A  
HETATM   23  C   UNL     1     -10.444  14.493  68.346  1.00  0.00    -0.246 A  
ENDBRANCH  17  18
ENDBRANCH  16  17
ENDBRANCH  15  16
BRANCH  15  24
HETATM   24  C   UNL     1     -10.402  11.456  64.789  1.00  0.00    -0.294 C  
HETATM   25  O   UNL     1      -9.598  10.828  64.114  1.00  0.00    -0.234 OA 
BRANCH  24  26
HETATM   26  O   UNL     1     -11.488  12.128  64.304  1.00  0.00    -0.330 OA 
BRANCH  26  27
HETATM   27  C   UNL     1     -11.425  13.560  64.408  1.00  0.00    -0.394 C  
HETATM   28  C   UNL     1     -12.664  14.075  65.119  1.00  0.00    -0.419 C  
ENDBRANCH  26  27
ENDBRANCH  24  26
ENDBRANCH  15  24
ENDBRANCH  13  15
ENDBRANCH   1  13
BRANCH   5  29
HETATM   29  C   UNL     1      -9.527   7.445  70.445  1.00  0.00    -0.165 C  
HETATM   30  C   UNL     1      -8.565   7.704  71.604  1.00  0.00    -0.116 C  
HETATM   31  O   UNL     1      -7.694   6.910  71.935  1.00  0.00    -0.093 OA 
HETATM   32  O   UNL     1      -8.703   8.896  72.227  1.00  0.00    -0.395 OA 
ENDBRANCH   5  29
TORSDOF 9
ENDMDL
MODEL       61
REMARK 921   NORMALIZED FREE ENERGY PREDICTED BY IDOCK:   -5.63 KCAL/MOL
REMARK 922        TOTAL FREE ENERGY PREDICTED BY IDOCK:  -10.74 KCAL/MOL
REMARK 923 INTER-LIGAND FREE ENERGY PREDICTED BY IDOCK:   -8.85 KCAL/MOL
REMARK 924 INTRA-LIGAND FREE ENERGY PREDICTED BY IDOCK:   -1.89 KCAL/MOL
REMARK 927      BINDING AFFINITY PREDICTED BY RF-SCORE:    0.00 PKD
ROOT
HETATM    1  C   UNL     1     -10.821  11.589  68.855  1.00  0.00    -0.218 C  
HETATM    2  C   UNL     1      -9.514  12.209  68.367  1.00  0.00    -0.179 C  
HETATM    3  O   UNL     1     -11.582  10.353  70.810  1.00  0.00    -0.327 OA 
HETATM    4  C   UNL     1      -5.708  10.291  70.266  1.00  0.00    -0.065 A  
HETATM    5  N   UNL     1      -9.823   9.385  69.683  1.00  0.00    -0.182 N  
HETATM    6  C   UNL     1      -8.509  11.188  67.867  1.00  0.00    -0.131 C  
HETATM    7  C   UNL     1     -10.721  10.448  69.925  1.00  0.00    -0.279 C  
HETATM    8  C   UNL     1      -7.690   9.081  70.927  1.00  0.00    -0.149 A  
HETATM    9  C   UNL     1      -7.783  10.567  69.029  1.00  0.00    -0.125 A  
HETATM   10  C   UNL     1      -6.424  10.871  69.225  1.00  0.00    -0.071 A  
HETATM   11  C   UNL     1      -6.340   9.389  71.113  1.00  0.00    -0.074 A  
HETATM   12  C   UNL     1      -8.433   9.686  69.902  1.00  0.00    -0.198 A  
ENDROOT
BRANCH   1  13
HETATM   13  N   UNL     1     -11.695  12.650  69.411  1.00  0.00    -0.314 NA 
HETATM   14  H   UNL     1     -12.488  12.417  70.008  1.00  0.00     0.000 HD 
BRANCH  13  15
HETATM   15  C   UNL     1     -11.383  14.057  69.074  1.00  0.00    -0.281 C  
BRANCH  15  16
HETATM   16  C   UNL     1     -12.108  14.597  67.826  1.00  0.00    -0.211 C  
BRANCH  16  17
HETATM   17  C   UNL     1     -11.150  14.824  66.642  1.00  0.00    -0.333 C  
BRANCH  17  18
HETATM   18  C   UNL     1     -11.318  13.769  65.576  1.00  0.00    -0.313 A  
HETATM   19  C   UNL     1     -10.221  13.358  64.805  1.00  0.00    -0.339 A  
HETATM   20  C   UNL     1     -11.644  11.875  63.532  1.00  0.00    -0.537 A  
HETATM   21  C   UNL     1     -10.385  12.414  63.789  1.00  0.00    -0.454 A  
HETATM   22  C   UNL     1     -12.738  12.268  64.304  1.00  0.00    -0.413 A  
HETATM   23  C   UNL     1     -12.575  13.208  65.321  1.00  0.00    -0.531 A  
ENDBRANCH  17  18
ENDBRANCH  16  17
ENDBRANCH  15  16
BRANCH  15  24
HETATM   24  C   UNL     1     -11.802  14.927  70.282  1.00  0.00    -0.307 C  
HETATM   25  O   UNL     1     -11.020  15.532  71.003  1.00  0.00    -0.345 OA 
BRANCH  24  26
HETATM   26  O   UNL     1     -13.153  14.853  70.468  1.00  0.00    -0.337 OA 
BRANCH  26  27
HETATM   27  C   UNL     1     -13.597  14.992  71.828  1.00  0.00    -0.429 C  
HETATM   28  C   UNL     1     -13.595  13.635  72.507  1.00  0.00    -0.675 C  
ENDBRANCH  26  27
ENDBRANCH  24  26
ENDBRANCH  15  24
ENDBRANCH  13  15
ENDBRANCH   1  13
BRANCH   5  29
HETATM   29  C   UNL     1     -10.336   8.080  70.150  1.00  0.00    -0.215 C  
HETATM   30  C   UNL     1     -10.744   7.081  69.068  1.00  0.00    -0.210 C  
HETATM   31  O   UNL     1     -11.195   5.972  69.323  1.00  0.00    -0.384 OA 
HETATM   32  O   UNL     1     -10.614   7.511  67.793  1.00  0.00    -0.227 OA 
ENDBRANCH   5  29
TORSDOF 9
ENDMDL
MODEL       62
REMARK 921   NORMALIZED FREE ENERGY PREDICTED BY IDOCK:   -5.61 KCAL/MOL
REMARK 922        TOTAL FREE ENERGY PREDICTED BY IDOCK:  -10.72 KCAL/MOL
REMARK 923 INTER-LIGAND FREE ENERGY PREDICTED BY IDOCK:   -9.71 KCAL/MOL
REMARK 924 INTRA-LIGAND FREE ENERGY PREDICTED BY IDOCK:   -1.01 KCAL/MOL
REMARK 927      BINDING AFFINITY PREDICTED BY RF-SCORE:    0.00 PKD
ROOT
HETATM    1  C   UNL     1     -10.839  14.558  67.573  1.00  0.00    -0.289 C  
HETATM    2  C   UNL     1     -11.522  14.720  66.218  1.00  0.00    -0.316 C  
HETATM    3  O   UNL     1      -8.903  13.377  68.459  1.00  0.00    -0.157 OA 
HETATM    4  C   UNL     1     -10.652  11.226  63.251  1.00  0.00    -0.326 A  
HETATM    5  N   UNL     1     -10.460  12.033  67.423  1.00  0.00    -0.213 N  
HETATM    6  C   UNL     1     -12.319  13.502  65.791  1.00  0.00    -0.516 C  
HETATM    7  C   UNL     1      -9.933  13.296  67.776  1.00  0.00    -0.223 C  
HETATM    8  C   UNL     1      -9.721  10.747  65.427  1.00  0.00    -0.297 A  
HETATM    9  C   UNL     1     -11.400  12.465  65.205  1.00  0.00    -0.374 A  
HETATM   10  C   UNL     1     -11.460  12.201  63.826  1.00  0.00    -0.548 A  
HETATM   11  C   UNL     1      -9.787  10.492  64.055  1.00  0.00    -0.387 A  
HETATM   12  C   UNL     1     -10.503  11.753  66.013  1.00  0.00    -0.246 A  
ENDROOT
BRANCH   1  13
HETATM   13  N   UNL     1     -10.011  15.756  67.858  1.00  0.00    -0.225 NA 
HETATM   14  H   UNL     1      -9.372  16.130  67.156  1.00  0.00     0.000 HD 
BRANCH  13  15
HETATM   15  C   UNL     1     -10.140  16.391  69.188  1.00  0.00    -0.278 C  
BRANCH  15  16
HETATM   16  C   UNL     1     -10.175  17.931  69.166  1.00  0.00    -0.187 C  
BRANCH  16  17
HETATM   17  C   UNL     1     -10.107  18.503  67.739  1.00  0.00    -0.391 C  
BRANCH  17  18
HETATM   18  C   UNL     1      -8.791  19.192  67.473  1.00  0.00    -0.329 A  
HETATM   19  C   UNL     1      -7.935  19.522  68.535  1.00  0.00    -0.383 A  
HETATM   20  C   UNL     1      -6.387  20.557  66.993  1.00  0.00    -0.278 A  
HETATM   21  C   UNL     1      -6.739  20.200  68.293  1.00  0.00    -0.336 A  
HETATM   22  C   UNL     1      -7.227  20.220  65.930  1.00  0.00    -0.268 A  
HETATM   23  C   UNL     1      -8.420  19.540  66.169  1.00  0.00    -0.329 A  
ENDBRANCH  17  18
ENDBRANCH  16  17
ENDBRANCH  15  16
BRANCH  15  24
HETATM   24  C   UNL     1     -11.463  15.892  69.815  1.00  0.00    -0.342 C  
HETATM   25  O   UNL     1     -12.571  16.082  69.332  1.00  0.00     0.004 OA 
BRANCH  24  26
HETATM   26  O   UNL     1     -11.215  15.287  71.013  1.00  0.00    -0.330 OA 
BRANCH  26  27
HETATM   27  C   UNL     1     -11.877  15.870  72.148  1.00  0.00    -0.517 C  
HETATM   28  C   UNL     1     -12.736  14.822  72.832  1.00  0.00    -0.521 C  
ENDBRANCH  26  27
ENDBRANCH  24  26
ENDBRANCH  15  24
ENDBRANCH  13  15
ENDBRANCH   1  13
BRANCH   5  29
HETATM   29  C   UNL     1     -10.029  10.954  68.336  1.00  0.00    -0.178 C  
HETATM   30  C   UNL     1     -11.115  10.329  69.211  1.00  0.00    -0.245 C  
HETATM   31  O   UNL     1     -10.887   9.436  70.017  1.00  0.00    -0.223 OA 
HETATM   32  O   UNL     1     -12.354  10.850  69.072  1.00  0.00    -0.464 OA 
ENDBRANCH   5  29
TORSDOF 9
ENDMDL
MODEL       63
REMARK 921   NORMALIZED FREE ENERGY PREDICTED BY IDOCK:   -5.59 KCAL/MOL
REMARK 922        TOTAL FREE ENERGY PREDICTED BY IDOCK:  -10.69 KCAL/MOL
REMARK 923 INTER-LIGAND FREE ENERGY PREDICTED BY IDOCK:   -9.02 KCAL/MOL
REMARK 924 INTRA-LIGAND FREE ENERGY PREDICTED BY IDOCK:   -1.67 KCAL/MOL
REMARK 927      BINDING AFFINITY PREDICTED BY RF-SCORE:    0.00 PKD
ROOT
HETATM    1  C   UNL     1      -9.285  14.256  66.926  1.00  0.00    -0.254 C  
HETATM    2  C   UNL     1      -9.733  14.430  65.477  1.00  0.00    -0.214 C  
HETATM    3  O   UNL     1      -7.903  12.697  68.185  1.00  0.00    -0.126 OA 
HETATM    4  C   UNL     1      -9.626  10.479  62.997  1.00  0.00    -0.369 A  
HETATM    5  N   UNL     1      -9.665  11.731  67.062  1.00  0.00    -0.184 N  
HETATM    6  C   UNL     1     -10.806  13.445  65.052  1.00  0.00    -0.337 C  
HETATM    7  C   UNL     1      -8.827  12.825  67.371  1.00  0.00    -0.190 C  
HETATM    8  C   UNL     1      -9.129  10.040  65.318  1.00  0.00    -0.243 A  
HETATM    9  C   UNL     1     -10.181  12.122  64.702  1.00  0.00    -0.312 A  
HETATM   10  C   UNL     1     -10.163  11.711  63.358  1.00  0.00    -0.471 A  
HETATM   11  C   UNL     1      -9.116   9.640  63.979  1.00  0.00    -0.246 A  
HETATM   12  C   UNL     1      -9.634  11.295  65.691  1.00  0.00    -0.229 A  
ENDROOT
BRANCH   1  13
HETATM   13  N   UNL     1      -8.174  15.194  67.217  1.00  0.00    -0.192 NA 
HETATM   14  H   UNL     1      -7.320  15.185  66.658  1.00  0.00     0.000 HD 
BRANCH  13  15
HETATM   15  C   UNL     1      -8.339  16.142  68.341  1.00  0.00    -0.179 C  
BRANCH  15  16
HETATM   16  C   UNL     1      -9.569  15.880  69.231  1.00  0.00    -0.266 C  
BRANCH  16  17
HETATM   17  C   UNL     1     -10.843  16.550  68.686  1.00  0.00    -0.345 C  
BRANCH  17  18
HETATM   18  C   UNL     1     -10.539  17.860  68.002  1.00  0.00    -0.366 A  
HETATM   19  C   UNL     1     -10.515  17.942  66.602  1.00  0.00    -0.318 A  
HETATM   20  C   UNL     1      -9.883  20.272  66.728  1.00  0.00    -0.586 A  
HETATM   21  C   UNL     1     -10.188  19.144  65.970  1.00  0.00    -0.494 A  
HETATM   22  C   UNL     1      -9.918  20.203  68.121  1.00  0.00    -0.486 A  
HETATM   23  C   UNL     1     -10.246  19.005  68.754  1.00  0.00    -0.343 A  
ENDBRANCH  17  18
ENDBRANCH  16  17
ENDBRANCH  15  16
BRANCH  15  24
HETATM   24  C   UNL     1      -7.077  16.034  69.228  1.00  0.00    -0.220 C  
HETATM   25  O   UNL     1      -6.948  15.244  70.153  1.00  0.00    -0.110 OA 
BRANCH  24  26
HETATM   26  O   UNL     1      -6.173  16.996  68.878  1.00  0.00    -0.159 OA 
BRANCH  26  27
HETATM   27  C   UNL     1      -6.729  18.173  68.268  1.00  0.00    -0.212 C  
HETATM   28  C   UNL     1      -6.507  19.371  69.174  1.00  0.00    -0.338 C  
ENDBRANCH  26  27
ENDBRANCH  24  26
ENDBRANCH  15  24
ENDBRANCH  13  15
ENDBRANCH   1  13
BRANCH   5  29
HETATM   29  C   UNL     1      -9.682  10.701  68.122  1.00  0.00    -0.156 C  
HETATM   30  C   UNL     1     -11.017  10.475  68.831  1.00  0.00    -0.246 C  
HETATM   31  O   UNL     1     -11.161   9.661  69.734  1.00  0.00    -0.233 OA 
HETATM   32  O   UNL     1     -12.038  11.264  68.427  1.00  0.00    -0.598 OA 
ENDBRANCH   5  29
TORSDOF 9
ENDMDL
MODEL       64
REMARK 921   NORMALIZED FREE ENERGY PREDICTED BY IDOCK:   -5.59 KCAL/MOL
REMARK 922        TOTAL FREE ENERGY PREDICTED BY IDOCK:  -10.69 KCAL/MOL
REMARK 923 INTER-LIGAND FREE ENERGY PREDICTED BY IDOCK:   -8.93 KCAL/MOL
REMARK 924 INTRA-LIGAND FREE ENERGY PREDICTED BY IDOCK:   -1.76 KCAL/MOL
REMARK 927      BINDING AFFINITY PREDICTED BY RF-SCORE:    0.00 PKD
ROOT
HETATM    1  C   UNL     1     -10.323  12.745  68.466  1.00  0.00    -0.221 C  
HETATM    2  C   UNL     1      -8.861  12.310  68.488  1.00  0.00    -0.068 C  
HETATM    3  O   UNL     1     -12.409  11.926  67.512  1.00  0.00    -0.326 OA 
HETATM    4  C   UNL     1      -7.671   9.559  64.912  1.00  0.00    -0.115 A  
HETATM    5  N   UNL     1     -10.734  12.311  65.979  1.00  0.00    -0.254 N  
HETATM    6  C   UNL     1      -8.132  12.566  67.181  1.00  0.00    -0.156 C  
HETATM    7  C   UNL     1     -11.220  12.201  67.301  1.00  0.00    -0.306 C  
HETATM    8  C   UNL     1      -9.929  10.372  64.645  1.00  0.00    -0.408 A  
HETATM    9  C   UNL     1      -8.444  11.474  66.195  1.00  0.00    -0.060 A  
HETATM   10  C   UNL     1      -7.434  10.561  65.846  1.00  0.00    -0.147 A  
HETATM   11  C   UNL     1      -8.918   9.470  64.305  1.00  0.00    -0.248 A  
HETATM   12  C   UNL     1      -9.714  11.365  65.613  1.00  0.00    -0.231 A  
ENDROOT
BRANCH   1  13
HETATM   13  N   UNL     1     -10.972  12.368  69.745  1.00  0.00    -0.422 NA 
HETATM   14  H   UNL     1     -11.139  13.062  70.474  1.00  0.00     0.000 HD 
BRANCH  13  15
HETATM   15  C   UNL     1     -11.370  10.955  69.934  1.00  0.00    -0.305 C  
BRANCH  15  16
HETATM   16  C   UNL     1     -10.324  10.081  70.653  1.00  0.00    -0.153 C  
BRANCH  16  17
HETATM   17  C   UNL     1      -9.305   9.461  69.679  1.00  0.00    -0.199 C  
BRANCH  17  18
HETATM   18  C   UNL     1      -9.877   8.266  68.956  1.00  0.00    -0.176 A  
HETATM   19  C   UNL     1     -10.073   8.303  67.568  1.00  0.00    -0.287 A  
HETATM   20  C   UNL     1     -11.026   6.081  67.622  1.00  0.00    -0.334 A  
HETATM   21  C   UNL     1     -10.645   7.213  66.906  1.00  0.00    -0.371 A  
HETATM   22  C   UNL     1     -10.821   6.031  69.002  1.00  0.00    -0.412 A  
HETATM   23  C   UNL     1     -10.248   7.116  69.664  1.00  0.00    -0.215 A  
ENDBRANCH  17  18
ENDBRANCH  16  17
ENDBRANCH  15  16
BRANCH  15  24
HETATM   24  C   UNL     1     -12.662  10.946  70.782  1.00  0.00    -0.340 C  
HETATM   25  O   UNL     1     -13.030  11.872  71.492  1.00  0.00    -0.409 OA 
BRANCH  24  26
HETATM   26  O   UNL     1     -13.281   9.732  70.683  1.00  0.00    -0.186 OA 
BRANCH  26  27
HETATM   27  C   UNL     1     -13.721   9.160  71.926  1.00  0.00    -0.424 C  
HETATM   28  C   UNL     1     -12.776   8.045  72.337  1.00  0.00    -0.177 C  
ENDBRANCH  26  27
ENDBRANCH  24  26
ENDBRANCH  15  24
ENDBRANCH  13  15
ENDBRANCH   1  13
BRANCH   5  29
HETATM   29  C   UNL     1     -11.799  12.605  64.997  1.00  0.00    -0.395 C  
HETATM   30  C   UNL     1     -11.775  13.995  64.363  1.00  0.00    -0.397 C  
HETATM   31  O   UNL     1     -12.608  14.367  63.546  1.00  0.00    -0.784 OA 
HETATM   32  O   UNL     1     -10.793  14.819  64.790  1.00  0.00    -0.399 OA 
ENDBRANCH   5  29
TORSDOF 9
ENDMDL
MODEL       65
REMARK 921   NORMALIZED FREE ENERGY PREDICTED BY IDOCK:   -5.57 KCAL/MOL
REMARK 922        TOTAL FREE ENERGY PREDICTED BY IDOCK:  -10.66 KCAL/MOL
REMARK 923 INTER-LIGAND FREE ENERGY PREDICTED BY IDOCK:   -9.61 KCAL/MOL
REMARK 924 INTRA-LIGAND FREE ENERGY PREDICTED BY IDOCK:   -1.05 KCAL/MOL
REMARK 927      BINDING AFFINITY PREDICTED BY RF-SCORE:    0.00 PKD
ROOT
HETATM    1  C   UNL     1      -9.120  13.819  67.566  1.00  0.00    -0.209 C  
HETATM    2  C   UNL     1      -7.902  12.924  67.779  1.00  0.00    -0.158 C  
HETATM    3  O   UNL     1     -11.538  13.604  67.755  1.00  0.00    -0.299 OA 
HETATM    4  C   UNL     1      -8.841   8.367  67.436  1.00  0.00    -0.140 A  
HETATM    5  N   UNL     1     -10.547  12.100  66.320  1.00  0.00    -0.243 N  
HETATM    6  C   UNL     1      -7.698  11.905  66.673  1.00  0.00     0.018 C  
HETATM    7  C   UNL     1     -10.495  13.113  67.304  1.00  0.00    -0.243 C  
HETATM    8  C   UNL     1     -10.779   9.681  66.851  1.00  0.00    -0.185 A  
HETATM    9  C   UNL     1      -8.604  10.724  66.888  1.00  0.00    -0.132 A  
HETATM   10  C   UNL     1      -8.041   9.492  67.261  1.00  0.00    -0.110 A  
HETATM   11  C   UNL     1     -10.211   8.460  67.222  1.00  0.00    -0.349 A  
HETATM   12  C   UNL     1      -9.989  10.832  66.707  1.00  0.00    -0.206 A  
ENDROOT
BRANCH   1  13
HETATM   13  N   UNL     1      -9.290  14.711  68.739  1.00  0.00    -0.211 NA 
HETATM   14  H   UNL     1      -9.251  14.341  69.689  1.00  0.00     0.000 HD 
BRANCH  13  15
HETATM   15  C   UNL     1      -9.519  16.151  68.491  1.00  0.00    -0.216 C  
BRANCH  15  16
HETATM   16  C   UNL     1     -10.583  16.801  69.396  1.00  0.00    -0.318 C  
BRANCH  16  17
HETATM   17  C   UNL     1     -11.907  16.016  69.405  1.00  0.00    -0.247 C  
BRANCH  17  18
HETATM   18  C   UNL     1     -12.277  15.558  70.795  1.00  0.00    -0.450 A  
HETATM   19  C   UNL     1     -11.832  16.270  71.919  1.00  0.00    -0.538 A  
HETATM   20  C   UNL     1     -12.885  14.658  73.382  1.00  0.00    -0.526 A  
HETATM   21  C   UNL     1     -12.137  15.820  73.206  1.00  0.00    -0.603 A  
HETATM   22  C   UNL     1     -13.342  13.952  72.269  1.00  0.00    -0.599 A  
HETATM   23  C   UNL     1     -13.042  14.401  70.983  1.00  0.00    -0.417 A  
ENDBRANCH  17  18
ENDBRANCH  16  17
ENDBRANCH  15  16
BRANCH  15  24
HETATM   24  C   UNL     1      -8.177  16.882  68.733  1.00  0.00    -0.244 C  
HETATM   25  O   UNL     1      -7.231  16.405  69.343  1.00  0.00    -0.228 OA 
BRANCH  24  26
HETATM   26  O   UNL     1      -8.239  18.153  68.238  1.00  0.00    -0.273 OA 
BRANCH  26  27
HETATM   27  C   UNL     1      -7.385  19.110  68.885  1.00  0.00    -0.344 C  
HETATM   28  C   UNL     1      -6.723  19.992  67.842  1.00  0.00    -0.295 C  
ENDBRANCH  26  27
ENDBRANCH  24  26
ENDBRANCH  15  24
ENDBRANCH  13  15
ENDBRANCH   1  13
BRANCH   5  29
HETATM   29  C   UNL     1     -11.813  12.103  65.558  1.00  0.00    -0.286 C  
HETATM   30  C   UNL     1     -11.696  12.282  64.045  1.00  0.00    -0.425 C  
HETATM   31  O   UNL     1     -12.668  12.315  63.302  1.00  0.00    -0.699 OA 
HETATM   32  O   UNL     1     -10.442  12.445  63.567  1.00  0.00    -0.435 OA 
ENDBRANCH   5  29
TORSDOF 9
ENDMDL
MODEL       66
REMARK 921   NORMALIZED FREE ENERGY PREDICTED BY IDOCK:   -5.56 KCAL/MOL
REMARK 922        TOTAL FREE ENERGY PREDICTED BY IDOCK:  -10.64 KCAL/MOL
REMARK 923 INTER-LIGAND FREE ENERGY PREDICTED BY IDOCK:   -8.92 KCAL/MOL
REMARK 924 INTRA-LIGAND FREE ENERGY PREDICTED BY IDOCK:   -1.71 KCAL/MOL
REMARK 927      BINDING AFFINITY PREDICTED BY RF-SCORE:    0.00 PKD
ROOT
HETATM    1  C   UNL     1     -10.332  10.495  68.228  1.00  0.00    -0.168 C  
HETATM    2  C   UNL     1      -9.650  10.061  66.934  1.00  0.00    -0.219 C  
HETATM    3  O   UNL     1     -12.506  11.373  68.885  1.00  0.00    -0.386 OA 
HETATM    4  C   UNL     1     -11.490  11.995  63.107  1.00  0.00    -0.254 A  
HETATM    5  N   UNL     1     -11.394  12.633  67.311  1.00  0.00    -0.299 N  
HETATM    6  C   UNL     1      -9.225  11.222  66.053  1.00  0.00    -0.224 C  
HETATM    7  C   UNL     1     -11.548  11.477  68.108  1.00  0.00    -0.308 C  
HETATM    8  C   UNL     1     -12.487  12.931  65.097  1.00  0.00    -0.561 A  
HETATM    9  C   UNL     1     -10.402  11.728  65.265  1.00  0.00    -0.317 A  
HETATM   10  C   UNL     1     -10.437  11.512  63.877  1.00  0.00    -0.439 A  
HETATM   11  C   UNL     1     -12.512  12.712  63.717  1.00  0.00    -0.514 A  
HETATM   12  C   UNL     1     -11.449  12.419  65.890  1.00  0.00    -0.374 A  
ENDROOT
BRANCH   1  13
HETATM   13  N   UNL     1     -10.794   9.297  68.971  1.00  0.00    -0.386 NA 
HETATM   14  H   UNL     1     -11.452   8.641  68.550  1.00  0.00     0.000 HD 
BRANCH  13  15
HETATM   15  C   UNL     1     -10.274   9.082  70.339  1.00  0.00    -0.209 C  
BRANCH  15  16
HETATM   16  C   UNL     1     -10.814   7.823  71.045  1.00  0.00    -0.253 C  
BRANCH  16  17
HETATM   17  C   UNL     1     -11.707   6.970  70.126  1.00  0.00    -0.238 C  
BRANCH  17  18
HETATM   18  C   UNL     1     -10.901   5.976  69.327  1.00  0.00    -0.428 A  
HETATM   19  C   UNL     1     -10.874   6.044  67.927  1.00  0.00    -0.378 A  
HETATM   20  C   UNL     1      -9.477   4.072  67.836  1.00  0.00    -0.225 A  
HETATM   21  C   UNL     1     -10.164   5.095  67.186  1.00  0.00    -0.254 A  
HETATM   22  C   UNL     1      -9.487   4.005  69.229  1.00  0.00    -0.260 A  
HETATM   23  C   UNL     1     -10.193   4.953  69.970  1.00  0.00    -0.313 A  
ENDBRANCH  17  18
ENDBRANCH  16  17
ENDBRANCH  15  16
BRANCH  15  24
HETATM   24  C   UNL     1      -8.737   8.949  70.236  1.00  0.00    -0.169 C  
HETATM   25  O   UNL     1      -7.940   9.693  70.790  1.00  0.00    -0.288 OA 
BRANCH  24  26
HETATM   26  O   UNL     1      -8.411   7.937  69.378  1.00  0.00    -0.128 OA 
BRANCH  26  27
HETATM   27  C   UNL     1      -7.190   7.242  69.681  1.00  0.00    -0.079 C  
HETATM   28  C   UNL     1      -6.677   6.545  68.433  1.00  0.00    -0.068 C  
ENDBRANCH  26  27
ENDBRANCH  24  26
ENDBRANCH  15  24
ENDBRANCH  13  15
ENDBRANCH   1  13
BRANCH   5  29
HETATM   29  C   UNL     1     -12.092  13.812  67.867  1.00  0.00    -0.287 C  
HETATM   30  C   UNL     1     -11.211  14.979  68.309  1.00  0.00    -0.299 C  
HETATM   31  O   UNL     1     -11.664  16.007  68.797  1.00  0.00    -0.385 OA 
HETATM   32  O   UNL     1      -9.879  14.797  68.167  1.00  0.00    -0.213 OA 
ENDBRANCH   5  29
TORSDOF 9
ENDMDL
MODEL       67
REMARK 921   NORMALIZED FREE ENERGY PREDICTED BY IDOCK:   -5.54 KCAL/MOL
REMARK 922        TOTAL FREE ENERGY PREDICTED BY IDOCK:  -10.62 KCAL/MOL
REMARK 923 INTER-LIGAND FREE ENERGY PREDICTED BY IDOCK:   -8.41 KCAL/MOL
REMARK 924 INTRA-LIGAND FREE ENERGY PREDICTED BY IDOCK:   -2.21 KCAL/MOL
REMARK 927      BINDING AFFINITY PREDICTED BY RF-SCORE:    0.00 PKD
ROOT
HETATM    1  C   UNL     1     -10.138  12.227  68.495  1.00  0.00    -0.187 C  
HETATM    2  C   UNL     1      -8.673  11.820  68.363  1.00  0.00    -0.155 C  
HETATM    3  O   UNL     1     -12.274  11.501  67.579  1.00  0.00    -0.463 OA 
HETATM    4  C   UNL     1      -7.698   9.590  64.383  1.00  0.00    -0.123 A  
HETATM    5  N   UNL     1     -10.710  12.117  66.005  1.00  0.00    -0.264 N  
HETATM    6  C   UNL     1      -8.037  12.261  67.058  1.00  0.00    -0.141 C  
HETATM    7  C   UNL     1     -11.105  11.824  67.329  1.00  0.00    -0.287 C  
HETATM    8  C   UNL     1      -9.977  10.387  64.375  1.00  0.00    -0.388 A  
HETATM    9  C   UNL     1      -8.403  11.304  65.957  1.00  0.00    -0.071 A  
HETATM   10  C   UNL     1      -7.409  10.464  65.425  1.00  0.00    -0.124 A  
HETATM   11  C   UNL     1      -8.982   9.557  63.852  1.00  0.00    -0.217 A  
HETATM   12  C   UNL     1      -9.708  11.248  65.450  1.00  0.00    -0.231 A  
ENDROOT
BRANCH   1  13
HETATM   13  N   UNL     1     -10.695  11.671  69.753  1.00  0.00    -0.414 NA 
HETATM   14  H   UNL     1     -10.809  12.257  70.580  1.00  0.00     0.000 HD 
BRANCH  13  15
HETATM   15  C   UNL     1     -11.081  10.243  69.772  1.00  0.00    -0.287 C  
BRANCH  15  16
HETATM   16  C   UNL     1      -9.942   9.262  69.428  1.00  0.00    -0.184 C  
BRANCH  16  17
HETATM   17  C   UNL     1     -10.334   8.270  68.319  1.00  0.00    -0.242 C  
BRANCH  17  18
HETATM   18  C   UNL     1      -9.124   7.732  67.596  1.00  0.00    -0.138 A  
HETATM   19  C   UNL     1      -7.832   8.010  68.068  1.00  0.00    -0.126 A  
HETATM   20  C   UNL     1      -6.869   6.812  66.202  1.00  0.00    -0.060 A  
HETATM   21  C   UNL     1      -6.712   7.550  67.372  1.00  0.00    -0.067 A  
HETATM   22  C   UNL     1      -8.150   6.519  65.733  1.00  0.00    -0.128 A  
HETATM   23  C   UNL     1      -9.270   6.975  66.427  1.00  0.00    -0.186 A  
ENDBRANCH  17  18
ENDBRANCH  16  17
ENDBRANCH  15  16
BRANCH  15  24
HETATM   24  C   UNL     1     -11.578   9.915  71.199  1.00  0.00    -0.389 C  
HETATM   25  O   UNL     1     -12.567  10.414  71.718  1.00  0.00    -0.408 OA 
BRANCH  24  26
HETATM   26  O   UNL     1     -10.711   9.057  71.812  1.00  0.00    -0.338 OA 
BRANCH  26  27
HETATM   27  C   UNL     1     -11.318   8.068  72.661  1.00  0.00    -0.405 C  
HETATM   28  C   UNL     1     -11.621   6.819  71.853  1.00  0.00    -0.330 C  
ENDBRANCH  26  27
ENDBRANCH  24  26
ENDBRANCH  15  24
ENDBRANCH  13  15
ENDBRANCH   1  13
BRANCH   5  29
HETATM   29  C   UNL     1     -11.842  12.518  65.143  1.00  0.00    -0.405 C  
HETATM   30  C   UNL     1     -11.721  13.871  64.445  1.00  0.00    -0.404 C  
HETATM   31  O   UNL     1     -12.593  14.324  63.715  1.00  0.00    -0.821 OA 
HETATM   32  O   UNL     1     -10.597  14.572  64.713  1.00  0.00    -0.425 OA 
ENDBRANCH   5  29
TORSDOF 9
ENDMDL
MODEL       68
REMARK 921   NORMALIZED FREE ENERGY PREDICTED BY IDOCK:   -5.54 KCAL/MOL
REMARK 922        TOTAL FREE ENERGY PREDICTED BY IDOCK:  -10.61 KCAL/MOL
REMARK 923 INTER-LIGAND FREE ENERGY PREDICTED BY IDOCK:   -9.49 KCAL/MOL
REMARK 924 INTRA-LIGAND FREE ENERGY PREDICTED BY IDOCK:   -1.12 KCAL/MOL
REMARK 927      BINDING AFFINITY PREDICTED BY RF-SCORE:    0.00 PKD
ROOT
HETATM    1  C   UNL     1     -10.782   8.778  71.238  1.00  0.00    -0.269 C  
HETATM    2  C   UNL     1     -11.566   8.159  72.392  1.00  0.00    -0.463 C  
HETATM    3  O   UNL     1      -9.734   8.001  69.181  1.00  0.00    -0.159 OA 
HETATM    4  C   UNL     1     -10.755   3.602  72.977  1.00  0.00    -0.235 A  
HETATM    5  N   UNL     1      -8.973   6.975  71.097  1.00  0.00    -0.145 N  
HETATM    6  C   UNL     1     -10.700   7.377  73.362  1.00  0.00    -0.407 C  
HETATM    7  C   UNL     1      -9.861   7.825  70.400  1.00  0.00    -0.183 C  
HETATM    8  C   UNL     1      -9.292   4.516  71.288  1.00  0.00    -0.209 A  
HETATM    9  C   UNL     1     -10.421   6.005  72.814  1.00  0.00    -0.243 A  
HETATM   10  C   UNL     1     -11.014   4.890  73.432  1.00  0.00    -0.394 A  
HETATM   11  C   UNL     1      -9.886   3.414  71.909  1.00  0.00    -0.238 A  
HETATM   12  C   UNL     1      -9.574   5.823  71.713  1.00  0.00    -0.155 A  
ENDROOT
BRANCH   1  13
HETATM   13  N   UNL     1     -11.721   9.435  70.296  1.00  0.00    -0.450 NA 
HETATM   14  H   UNL     1     -12.486   8.913  69.869  1.00  0.00     0.000 HD 
BRANCH  13  15
HETATM   15  C   UNL     1     -11.516  10.869  69.996  1.00  0.00    -0.329 C  
BRANCH  15  16
HETATM   16  C   UNL     1     -11.908  11.291  68.566  1.00  0.00    -0.355 C  
BRANCH  16  17
HETATM   17  C   UNL     1     -10.683  11.516  67.662  1.00  0.00    -0.255 C  
BRANCH  17  18
HETATM   18  C   UNL     1     -11.085  11.795  66.234  1.00  0.00    -0.364 A  
HETATM   19  C   UNL     1     -10.527  11.055  65.181  1.00  0.00    -0.329 A  
HETATM   20  C   UNL     1     -11.760  12.374  63.573  1.00  0.00    -0.592 A  
HETATM   21  C   UNL     1     -10.865  11.344  63.857  1.00  0.00    -0.463 A  
HETATM   22  C   UNL     1     -12.329  13.106  64.615  1.00  0.00    -0.463 A  
HETATM   23  C   UNL     1     -11.995  12.817  65.937  1.00  0.00    -0.506 A  
ENDBRANCH  17  18
ENDBRANCH  16  17
ENDBRANCH  15  16
BRANCH  15  24
HETATM   24  C   UNL     1     -12.384  11.679  70.987  1.00  0.00    -0.301 C  
HETATM   25  O   UNL     1     -13.103  11.182  71.843  1.00  0.00    -0.488 OA 
BRANCH  24  26
HETATM   26  O   UNL     1     -12.288  13.013  70.712  1.00  0.00    -0.363 OA 
BRANCH  26  27
HETATM   27  C   UNL     1     -12.992  13.882  71.616  1.00  0.00    -0.352 C  
HETATM   28  C   UNL     1     -13.173  15.247  70.976  1.00  0.00    -0.546 C  
ENDBRANCH  26  27
ENDBRANCH  24  26
ENDBRANCH  15  24
ENDBRANCH  13  15
ENDBRANCH   1  13
BRANCH   5  29
HETATM   29  C   UNL     1      -7.680   6.801  70.403  1.00  0.00    -0.100 C  
HETATM   30  C   UNL     1      -6.491   7.573  70.973  1.00  0.00    -0.039 C  
HETATM   31  O   UNL     1      -5.370   7.525  70.484  1.00  0.00    -0.023 OA 
HETATM   32  O   UNL     1      -6.757   8.356  72.042  1.00  0.00    -0.073 OA 
ENDBRANCH   5  29
TORSDOF 9
ENDMDL
MODEL       69
REMARK 921   NORMALIZED FREE ENERGY PREDICTED BY IDOCK:   -5.51 KCAL/MOL
REMARK 922        TOTAL FREE ENERGY PREDICTED BY IDOCK:  -10.57 KCAL/MOL
REMARK 923 INTER-LIGAND FREE ENERGY PREDICTED BY IDOCK:   -9.11 KCAL/MOL
REMARK 924 INTRA-LIGAND FREE ENERGY PREDICTED BY IDOCK:   -1.46 KCAL/MOL
REMARK 927      BINDING AFFINITY PREDICTED BY RF-SCORE:    0.00 PKD
ROOT
HETATM    1  C   UNL     1      -9.955  12.651  68.142  1.00  0.00    -0.225 C  
HETATM    2  C   UNL     1     -10.604  13.285  66.915  1.00  0.00    -0.264 C  
HETATM    3  O   UNL     1      -8.092  11.149  68.592  1.00  0.00    -0.137 OA 
HETATM    4  C   UNL     1      -9.839  10.928  62.962  1.00  0.00    -0.358 A  
HETATM    5  N   UNL     1      -9.689  10.302  67.166  1.00  0.00    -0.168 N  
HETATM    6  C   UNL     1     -11.447  12.317  66.107  1.00  0.00    -0.429 C  
HETATM    7  C   UNL     1      -9.111  11.349  67.919  1.00  0.00    -0.164 C  
HETATM    8  C   UNL     1      -8.972   9.712  64.859  1.00  0.00    -0.260 A  
HETATM    9  C   UNL     1     -10.567  11.487  65.214  1.00  0.00    -0.339 A  
HETATM   10  C   UNL     1     -10.612  11.698  63.825  1.00  0.00    -0.473 A  
HETATM   11  C   UNL     1      -9.025   9.928  63.480  1.00  0.00    -0.277 A  
HETATM   12  C   UNL     1      -9.719  10.505  65.743  1.00  0.00    -0.223 A  
ENDROOT
BRANCH   1  13
HETATM   13  N   UNL     1      -9.078  13.645  68.809  1.00  0.00    -0.391 NA 
HETATM   14  H   UNL     1      -8.285  13.347  69.376  1.00  0.00     0.000 HD 
BRANCH  13  15
HETATM   15  C   UNL     1      -9.388  15.080  68.626  1.00  0.00    -0.202 C  
BRANCH  15  16
HETATM   16  C   UNL     1     -10.199  15.716  69.772  1.00  0.00    -0.303 C  
BRANCH  16  17
HETATM   17  C   UNL     1     -11.712  15.720  69.491  1.00  0.00    -0.369 C  
BRANCH  17  18
HETATM   18  C   UNL     1     -12.463  14.841  70.462  1.00  0.00    -0.411 A  
HETATM   19  C   UNL     1     -13.357  15.404  71.384  1.00  0.00    -0.601 A  
HETATM   20  C   UNL     1     -13.792  13.221  72.328  1.00  0.00    -0.637 A  
HETATM   21  C   UNL     1     -14.018  14.595  72.312  1.00  0.00    -0.589 A  
HETATM   22  C   UNL     1     -12.915  12.651  71.405  1.00  0.00    -0.353 A  
HETATM   23  C   UNL     1     -12.257  13.457  70.476  1.00  0.00    -0.425 A  
ENDBRANCH  17  18
ENDBRANCH  16  17
ENDBRANCH  15  16
BRANCH  15  24
HETATM   24  C   UNL     1      -8.043  15.835  68.518  1.00  0.00    -0.153 C  
HETATM   25  O   UNL     1      -7.748  16.820  69.181  1.00  0.00    -0.237 OA 
BRANCH  24  26
HETATM   26  O   UNL     1      -7.278  15.291  67.526  1.00  0.00    -0.164 OA 
BRANCH  26  27
HETATM   27  C   UNL     1      -5.935  14.944  67.903  1.00  0.00    -0.146 C  
HETATM   28  C   UNL     1      -5.703  13.463  67.663  1.00  0.00    -0.072 C  
ENDBRANCH  26  27
ENDBRANCH  24  26
ENDBRANCH  15  24
ENDBRANCH  13  15
ENDBRANCH   1  13
BRANCH   5  29
HETATM   29  C   UNL     1      -9.326   8.962  67.673  1.00  0.00    -0.136 C  
HETATM   30  C   UNL     1     -10.052   8.489  68.932  1.00  0.00    -0.203 C  
HETATM   31  O   UNL     1      -9.833   7.406  69.458  1.00  0.00    -0.163 OA 
HETATM   32  O   UNL     1     -10.934   9.364  69.464  1.00  0.00    -0.234 OA 
ENDBRANCH   5  29
TORSDOF 9
ENDMDL
MODEL       70
REMARK 921   NORMALIZED FREE ENERGY PREDICTED BY IDOCK:   -5.50 KCAL/MOL
REMARK 922        TOTAL FREE ENERGY PREDICTED BY IDOCK:  -10.55 KCAL/MOL
REMARK 923 INTER-LIGAND FREE ENERGY PREDICTED BY IDOCK:   -9.03 KCAL/MOL
REMARK 924 INTRA-LIGAND FREE ENERGY PREDICTED BY IDOCK:   -1.52 KCAL/MOL
REMARK 927      BINDING AFFINITY PREDICTED BY RF-SCORE:    0.00 PKD
ROOT
HETATM    1  C   UNL     1     -10.486   9.742  68.110  1.00  0.00    -0.216 C  
HETATM    2  C   UNL     1      -9.985   9.289  66.741  1.00  0.00    -0.312 C  
HETATM    3  O   UNL     1     -12.355  11.037  68.981  1.00  0.00    -0.481 OA 
HETATM    4  C   UNL     1     -11.475  11.967  63.222  1.00  0.00    -0.376 A  
HETATM    5  N   UNL     1     -11.044  12.149  67.450  1.00  0.00    -0.259 N  
HETATM    6  C   UNL     1      -9.334  10.399  65.936  1.00  0.00    -0.224 C  
HETATM    7  C   UNL     1     -11.435  10.988  68.154  1.00  0.00    -0.302 C  
HETATM    8  C   UNL     1     -12.129  12.911  65.346  1.00  0.00    -0.501 A  
HETATM    9  C   UNL     1     -10.389  11.241  65.274  1.00  0.00    -0.337 A  
HETATM   10  C   UNL     1     -10.536  11.178  63.877  1.00  0.00    -0.445 A  
HETATM   11  C   UNL     1     -12.267  12.840  63.957  1.00  0.00    -0.518 A  
HETATM   12  C   UNL     1     -11.211  12.094  66.022  1.00  0.00    -0.336 A  
ENDROOT
BRANCH   1  13
HETATM   13  N   UNL     1     -11.188   8.619  68.777  1.00  0.00    -0.274 NA 
HETATM   14  H   UNL     1     -12.094   8.293  68.440  1.00  0.00     0.000 HD 
BRANCH  13  15
HETATM   15  C   UNL     1     -10.538   7.987  69.946  1.00  0.00    -0.242 C  
BRANCH  15  16
HETATM   16  C   UNL     1      -9.164   7.351  69.655  1.00  0.00    -0.146 C  
BRANCH  16  17
HETATM   17  C   UNL     1      -9.093   5.877  70.093  1.00  0.00    -0.155 C  
BRANCH  17  18
HETATM   18  C   UNL     1      -9.548   5.694  71.520  1.00  0.00    -0.184 A  
HETATM   19  C   UNL     1      -8.764   6.168  72.582  1.00  0.00    -0.124 A  
HETATM   20  C   UNL     1     -10.346   5.274  74.177  1.00  0.00    -0.308 A  
HETATM   21  C   UNL     1      -9.164   5.958  73.904  1.00  0.00    -0.127 A  
HETATM   22  C   UNL     1     -11.139   4.811  73.126  1.00  0.00    -0.388 A  
HETATM   23  C   UNL     1     -10.743   5.022  71.806  1.00  0.00    -0.150 A  
ENDBRANCH  17  18
ENDBRANCH  16  17
ENDBRANCH  15  16
BRANCH  15  24
HETATM   24  C   UNL     1     -10.338   9.085  71.016  1.00  0.00    -0.278 C  
HETATM   25  O   UNL     1      -9.253   9.561  71.323  1.00  0.00    -0.237 OA 
BRANCH  24  26
HETATM   26  O   UNL     1     -11.529   9.380  71.615  1.00  0.00    -0.369 OA 
BRANCH  26  27
HETATM   27  C   UNL     1     -12.267   8.251  72.111  1.00  0.00    -0.364 C  
HETATM   28  C   UNL     1     -13.734   8.400  71.750  1.00  0.00    -0.432 C  
ENDBRANCH  26  27
ENDBRANCH  24  26
ENDBRANCH  15  24
ENDBRANCH  13  15
ENDBRANCH   1  13
BRANCH   5  29
HETATM   29  C   UNL     1     -11.414  13.398  68.149  1.00  0.00    -0.304 C  
HETATM   30  C   UNL     1     -10.261  14.304  68.580  1.00  0.00    -0.245 C  
HETATM   31  O   UNL     1     -10.433  15.359  69.177  1.00  0.00    -0.216 OA 
HETATM   32  O   UNL     1      -9.020  13.851  68.297  1.00  0.00    -0.179 OA 
ENDBRANCH   5  29
TORSDOF 9
ENDMDL
MODEL       71
REMARK 921   NORMALIZED FREE ENERGY PREDICTED BY IDOCK:   -5.50 KCAL/MOL
REMARK 922        TOTAL FREE ENERGY PREDICTED BY IDOCK:  -10.55 KCAL/MOL
REMARK 923 INTER-LIGAND FREE ENERGY PREDICTED BY IDOCK:   -9.09 KCAL/MOL
REMARK 924 INTRA-LIGAND FREE ENERGY PREDICTED BY IDOCK:   -1.46 KCAL/MOL
REMARK 927      BINDING AFFINITY PREDICTED BY RF-SCORE:    0.00 PKD
ROOT
HETATM    1  C   UNL     1     -10.523  13.063  68.017  1.00  0.00    -0.228 C  
HETATM    2  C   UNL     1      -9.105  13.627  68.060  1.00  0.00    -0.192 C  
HETATM    3  O   UNL     1     -11.843  11.471  69.301  1.00  0.00    -0.301 OA 
HETATM    4  C   UNL     1      -6.051  10.853  70.239  1.00  0.00    -0.142 A  
HETATM    5  N   UNL     1      -9.891  10.619  68.425  1.00  0.00    -0.156 N  
HETATM    6  C   UNL     1      -8.051  12.655  67.563  1.00  0.00    -0.178 C  
HETATM    7  C   UNL     1     -10.771  11.684  68.720  1.00  0.00    -0.219 C  
HETATM    8  C   UNL     1      -8.192   9.759  70.026  1.00  0.00    -0.207 A  
HETATM    9  C   UNL     1      -7.697  11.679  68.651  1.00  0.00    -0.134 A  
HETATM   10  C   UNL     1      -6.430  11.759  69.254  1.00  0.00    -0.107 A  
HETATM   11  C   UNL     1      -6.931   9.847  70.619  1.00  0.00    -0.073 A  
HETATM   12  C   UNL     1      -8.601  10.688  69.057  1.00  0.00    -0.146 A  
ENDROOT
BRANCH   1  13
HETATM   13  N   UNL     1     -11.464  14.045  68.609  1.00  0.00    -0.281 NA 
HETATM   14  H   UNL     1     -12.430  14.106  68.286  1.00  0.00     0.000 HD 
BRANCH  13  15
HETATM   15  C   UNL     1     -10.962  14.932  69.681  1.00  0.00    -0.274 C  
BRANCH  15  16
HETATM   16  C   UNL     1     -10.938  16.430  69.321  1.00  0.00    -0.322 C  
BRANCH  16  17
HETATM   17  C   UNL     1     -11.059  16.673  67.806  1.00  0.00    -0.157 C  
BRANCH  17  18
HETATM   18  C   UNL     1     -10.224  17.848  67.359  1.00  0.00    -0.363 A  
HETATM   19  C   UNL     1      -9.019  17.643  66.672  1.00  0.00    -0.283 A  
HETATM   20  C   UNL     1      -8.624  20.028  66.609  1.00  0.00    -0.382 A  
HETATM   21  C   UNL     1      -8.224  18.730  66.299  1.00  0.00    -0.270 A  
HETATM   22  C   UNL     1      -9.829  20.241  67.280  1.00  0.00    -0.593 A  
HETATM   23  C   UNL     1     -10.624  19.158  67.650  1.00  0.00    -0.546 A  
ENDBRANCH  17  18
ENDBRANCH  16  17
ENDBRANCH  15  16
BRANCH  15  24
HETATM   24  C   UNL     1     -11.891  14.751  70.905  1.00  0.00    -0.322 C  
HETATM   25  O   UNL     1     -13.024  14.295  70.851  1.00  0.00    -0.340 OA 
BRANCH  24  26
HETATM   26  O   UNL     1     -11.290  15.247  72.027  1.00  0.00    -0.433 OA 
BRANCH  26  27
HETATM   27  C   UNL     1     -12.076  16.179  72.787  1.00  0.00    -0.553 C  
HETATM   28  C   UNL     1     -12.507  15.538  74.094  1.00  0.00    -0.805 C  
ENDBRANCH  26  27
ENDBRANCH  24  26
ENDBRANCH  15  24
ENDBRANCH  13  15
ENDBRANCH   1  13
BRANCH   5  29
HETATM   29  C   UNL     1     -10.573   9.308  68.371  1.00  0.00    -0.190 C  
HETATM   30  C   UNL     1     -10.337   8.469  67.116  1.00  0.00    -0.307 C  
HETATM   31  O   UNL     1     -10.853   7.373  66.943  1.00  0.00    -0.357 OA 
HETATM   32  O   UNL     1      -9.547   9.030  66.174  1.00  0.00    -0.233 OA 
ENDBRANCH   5  29
TORSDOF 9
ENDMDL
MODEL       72
REMARK 921   NORMALIZED FREE ENERGY PREDICTED BY IDOCK:   -5.50 KCAL/MOL
REMARK 922        TOTAL FREE ENERGY PREDICTED BY IDOCK:  -10.55 KCAL/MOL
REMARK 923 INTER-LIGAND FREE ENERGY PREDICTED BY IDOCK:   -8.83 KCAL/MOL
REMARK 924 INTRA-LIGAND FREE ENERGY PREDICTED BY IDOCK:   -1.71 KCAL/MOL
REMARK 927      BINDING AFFINITY PREDICTED BY RF-SCORE:    0.00 PKD
ROOT
HETATM    1  C   UNL     1     -10.047   8.297  68.049  1.00  0.00    -0.198 C  
HETATM    2  C   UNL     1     -10.408   9.676  68.596  1.00  0.00    -0.226 C  
HETATM    3  O   UNL     1     -11.076   6.092  67.964  1.00  0.00    -0.329 OA 
HETATM    4  C   UNL     1     -13.535   9.556  72.057  1.00  0.00    -0.522 A  
HETATM    5  N   UNL     1     -10.813   6.951  70.084  1.00  0.00    -0.250 N  
HETATM    6  C   UNL     1     -10.288   9.780  70.105  1.00  0.00    -0.335 C  
HETATM    7  C   UNL     1     -10.776   7.060  68.676  1.00  0.00    -0.189 C  
HETATM    8  C   UNL     1     -12.867   7.321  71.437  1.00  0.00    -0.425 A  
HETATM    9  C   UNL     1     -11.509   9.197  70.761  1.00  0.00    -0.337 A  
HETATM   10  C   UNL     1     -12.412  10.058  71.408  1.00  0.00    -0.510 A  
HETATM   11  C   UNL     1     -13.758   8.185  72.078  1.00  0.00    -0.347 A  
HETATM   12  C   UNL     1     -11.750   7.817  70.748  1.00  0.00    -0.225 A  
ENDROOT
BRANCH   1  13
HETATM   13  N   UNL     1     -10.288   8.266  66.586  1.00  0.00    -0.396 NA 
HETATM   14  H   UNL     1     -11.211   8.050  66.211  1.00  0.00     0.000 HD 
BRANCH  13  15
HETATM   15  C   UNL     1      -9.149   8.557  65.686  1.00  0.00    -0.132 C  
BRANCH  15  16
HETATM   16  C   UNL     1      -8.924  10.053  65.394  1.00  0.00    -0.213 C  
BRANCH  16  17
HETATM   17  C   UNL     1      -9.751  10.550  64.194  1.00  0.00    -0.388 C  
BRANCH  17  18
HETATM   18  C   UNL     1     -10.735  11.621  64.598  1.00  0.00    -0.371 A  
HETATM   19  C   UNL     1     -11.347  12.426  63.626  1.00  0.00    -0.556 A  
HETATM   20  C   UNL     1     -12.495  13.673  65.350  1.00  0.00    -0.537 A  
HETATM   21  C   UNL     1     -12.223  13.447  64.003  1.00  0.00    -0.466 A  
HETATM   22  C   UNL     1     -11.901  12.868  66.323  1.00  0.00    -0.477 A  
HETATM   23  C   UNL     1     -11.028  11.847  65.948  1.00  0.00    -0.354 A  
ENDBRANCH  17  18
ENDBRANCH  16  17
ENDBRANCH  15  16
BRANCH  15  24
HETATM   24  C   UNL     1      -7.872   8.006  66.361  1.00  0.00    -0.097 C  
HETATM   25  O   UNL     1      -6.984   8.703  66.834  1.00  0.00    -0.075 OA 
BRANCH  24  26
HETATM   26  O   UNL     1      -7.848   6.643  66.278  1.00  0.00    -0.099 OA 
BRANCH  26  27
HETATM   27  C   UNL     1      -6.834   5.995  67.063  1.00  0.00    -0.063 C  
HETATM   28  C   UNL     1      -7.442   5.475  68.354  1.00  0.00    -0.077 C  
ENDBRANCH  26  27
ENDBRANCH  24  26
ENDBRANCH  15  24
ENDBRANCH  13  15
ENDBRANCH   1  13
BRANCH   5  29
HETATM   29  C   UNL     1     -10.696   5.555  70.557  1.00  0.00    -0.240 C  
HETATM   30  C   UNL     1      -9.497   5.237  71.448  1.00  0.00    -0.151 C  
HETATM   31  O   UNL     1      -9.279   4.118  71.894  1.00  0.00    -0.118 OA 
HETATM   32  O   UNL     1      -8.654   6.265  71.689  1.00  0.00    -0.132 OA 
ENDBRANCH   5  29
TORSDOF 9
ENDMDL
MODEL       73
REMARK 921   NORMALIZED FREE ENERGY PREDICTED BY IDOCK:   -5.48 KCAL/MOL
REMARK 922        TOTAL FREE ENERGY PREDICTED BY IDOCK:  -10.52 KCAL/MOL
REMARK 923 INTER-LIGAND FREE ENERGY PREDICTED BY IDOCK:   -9.58 KCAL/MOL
REMARK 924 INTRA-LIGAND FREE ENERGY PREDICTED BY IDOCK:   -0.95 KCAL/MOL
REMARK 927      BINDING AFFINITY PREDICTED BY RF-SCORE:    0.00 PKD
ROOT
HETATM    1  C   UNL     1     -10.790   9.157  68.831  1.00  0.00    -0.070 C  
HETATM    2  C   UNL     1     -10.320   8.037  67.906  1.00  0.00    -0.282 C  
HETATM    3  O   UNL     1     -10.663   9.672  71.207  1.00  0.00    -0.335 OA 
HETATM    4  C   UNL     1      -9.622   3.973  70.089  1.00  0.00    -0.270 A  
HETATM    5  N   UNL     1     -11.658   7.656  70.711  1.00  0.00    -0.284 N  
HETATM    6  C   UNL     1     -11.145   6.769  68.022  1.00  0.00    -0.246 C  
HETATM    7  C   UNL     1     -10.939   8.818  70.354  1.00  0.00    -0.235 C  
HETATM    8  C   UNL     1     -10.584   5.595  71.597  1.00  0.00    -0.301 A  
HETATM    9  C   UNL     1     -10.698   5.972  69.217  1.00  0.00    -0.401 A  
HETATM   10  C   UNL     1     -10.021   4.757  69.012  1.00  0.00    -0.213 A  
HETATM   11  C   UNL     1      -9.912   4.389  71.383  1.00  0.00    -0.248 A  
HETATM   12  C   UNL     1     -10.960   6.413  70.521  1.00  0.00    -0.306 A  
ENDROOT
BRANCH   1  13
HETATM   13  N   UNL     1      -9.869  10.314  68.717  1.00  0.00    -0.172 NA 
HETATM   14  H   UNL     1      -8.917  10.264  69.079  1.00  0.00     0.000 HD 
BRANCH  13  15
HETATM   15  C   UNL     1     -10.372  11.542  68.062  1.00  0.00    -0.190 C  
BRANCH  15  16
HETATM   16  C   UNL     1     -10.681  12.706  69.024  1.00  0.00    -0.135 C  
BRANCH  16  17
HETATM   17  C   UNL     1     -12.010  12.511  69.776  1.00  0.00    -0.359 C  
BRANCH  17  18
HETATM   18  C   UNL     1     -12.246  13.604  70.789  1.00  0.00    -0.424 A  
HETATM   19  C   UNL     1     -11.495  14.788  70.745  1.00  0.00    -0.273 A  
HETATM   20  C   UNL     1     -12.616  15.599  72.727  1.00  0.00    -0.536 A  
HETATM   21  C   UNL     1     -11.682  15.780  71.710  1.00  0.00    -0.562 A  
HETATM   22  C   UNL     1     -13.377  14.430  72.771  1.00  0.00    -0.606 A  
HETATM   23  C   UNL     1     -13.194  13.440  71.806  1.00  0.00    -0.495 A  
ENDBRANCH  17  18
ENDBRANCH  16  17
ENDBRANCH  15  16
BRANCH  15  24
HETATM   24  C   UNL     1      -9.283  12.019  67.072  1.00  0.00    -0.195 C  
HETATM   25  O   UNL     1      -8.093  12.106  67.343  1.00  0.00    -0.153 OA 
BRANCH  24  26
HETATM   26  O   UNL     1      -9.856  12.399  65.893  1.00  0.00    -0.253 OA 
BRANCH  26  27
HETATM   27  C   UNL     1     -10.619  11.382  65.221  1.00  0.00    -0.277 C  
HETATM   28  C   UNL     1     -10.614  11.644  63.726  1.00  0.00    -0.473 C  
ENDBRANCH  26  27
ENDBRANCH  24  26
ENDBRANCH  15  24
ENDBRANCH  13  15
ENDBRANCH   1  13
BRANCH   5  29
HETATM   29  C   UNL     1     -12.455   7.827  71.944  1.00  0.00    -0.314 C  
HETATM   30  C   UNL     1     -13.659   8.764  71.852  1.00  0.00    -0.424 C  
HETATM   31  O   UNL     1     -14.391   9.001  72.803  1.00  0.00    -0.596 OA 
HETATM   32  O   UNL     1     -13.852   9.357  70.653  1.00  0.00     0.047 OA 
ENDBRANCH   5  29
TORSDOF 9
ENDMDL
MODEL       74
REMARK 921   NORMALIZED FREE ENERGY PREDICTED BY IDOCK:   -5.48 KCAL/MOL
REMARK 922        TOTAL FREE ENERGY PREDICTED BY IDOCK:  -10.52 KCAL/MOL
REMARK 923 INTER-LIGAND FREE ENERGY PREDICTED BY IDOCK:   -9.29 KCAL/MOL
REMARK 924 INTRA-LIGAND FREE ENERGY PREDICTED BY IDOCK:   -1.23 KCAL/MOL
REMARK 927      BINDING AFFINITY PREDICTED BY RF-SCORE:    0.00 PKD
ROOT
HETATM    1  C   UNL     1     -10.342  14.695  65.630  1.00  0.00    -0.351 C  
HETATM    2  C   UNL     1      -9.119  13.999  66.220  1.00  0.00    -0.047 C  
HETATM    3  O   UNL     1     -10.795  16.726  64.365  1.00  0.00    -0.812 OA 
HETATM    4  C   UNL     1      -5.539  16.877  67.041  1.00  0.00    -0.200 A  
HETATM    5  N   UNL     1      -9.737  17.064  66.382  1.00  0.00    -0.280 N  
HETATM    6  C   UNL     1      -8.591  14.663  67.478  1.00  0.00    -0.196 C  
HETATM    7  C   UNL     1     -10.230  16.233  65.351  1.00  0.00    -0.229 C  
HETATM    8  C   UNL     1      -7.486  18.119  66.337  1.00  0.00    -0.287 A  
HETATM    9  C   UNL     1      -7.742  15.851  67.117  1.00  0.00    -0.247 A  
HETATM   10  C   UNL     1      -6.354  15.787  67.329  1.00  0.00    -0.105 A  
HETATM   11  C   UNL     1      -6.107  18.047  66.552  1.00  0.00    -0.214 A  
HETATM   12  C   UNL     1      -8.314  17.016  66.589  1.00  0.00    -0.250 A  
ENDROOT
BRANCH   1  13
HETATM   13  N   UNL     1     -10.723  14.035  64.357  1.00  0.00    -0.602 NA 
HETATM   14  H   UNL     1     -10.184  14.189  63.505  1.00  0.00     0.000 HD 
BRANCH  13  15
HETATM   15  C   UNL     1     -11.906  13.147  64.360  1.00  0.00    -0.388 C  
BRANCH  15  16
HETATM   16  C   UNL     1     -11.610  11.676  64.009  1.00  0.00    -0.371 C  
BRANCH  16  17
HETATM   17  C   UNL     1     -10.216  11.489  63.383  1.00  0.00    -0.462 C  
BRANCH  17  18
HETATM   18  C   UNL     1      -9.498  10.295  63.961  1.00  0.00    -0.356 A  
HETATM   19  C   UNL     1      -8.588   9.566  63.181  1.00  0.00    -0.218 A  
HETATM   20  C   UNL     1      -8.230   8.019  65.004  1.00  0.00    -0.144 A  
HETATM   21  C   UNL     1      -7.957   8.434  63.703  1.00  0.00    -0.159 A  
HETATM   22  C   UNL     1      -9.124   8.746  65.791  1.00  0.00    -0.267 A  
HETATM   23  C   UNL     1      -9.752   9.878  65.273  1.00  0.00    -0.383 A  
ENDBRANCH  17  18
ENDBRANCH  16  17
ENDBRANCH  15  16
BRANCH  15  24
HETATM   24  C   UNL     1     -12.511  13.184  65.783  1.00  0.00    -0.377 C  
HETATM   25  O   UNL     1     -13.132  14.132  66.245  1.00  0.00    -0.063 OA 
BRANCH  24  26
HETATM   26  O   UNL     1     -12.181  12.048  66.464  1.00  0.00    -0.548 OA 
BRANCH  26  27
HETATM   27  C   UNL     1     -11.891  12.226  67.860  1.00  0.00    -0.293 C  
HETATM   28  C   UNL     1     -11.777  10.871  68.536  1.00  0.00    -0.307 C  
ENDBRANCH  26  27
ENDBRANCH  24  26
ENDBRANCH  15  24
ENDBRANCH  13  15
ENDBRANCH   1  13
BRANCH   5  29
HETATM   29  C   UNL     1     -10.406  18.381  66.430  1.00  0.00    -0.405 C  
HETATM   30  C   UNL     1     -10.593  19.000  67.815  1.00  0.00    -0.404 C  
HETATM   31  O   UNL     1     -11.142  20.079  67.992  1.00  0.00     0.070 OA 
HETATM   32  O   UNL     1     -10.146  18.260  68.854  1.00  0.00    -0.389 OA 
ENDBRANCH   5  29
TORSDOF 9
ENDMDL
MODEL       75
REMARK 921   NORMALIZED FREE ENERGY PREDICTED BY IDOCK:   -5.48 KCAL/MOL
REMARK 922        TOTAL FREE ENERGY PREDICTED BY IDOCK:  -10.51 KCAL/MOL
REMARK 923 INTER-LIGAND FREE ENERGY PREDICTED BY IDOCK:   -9.04 KCAL/MOL
REMARK 924 INTRA-LIGAND FREE ENERGY PREDICTED BY IDOCK:   -1.47 KCAL/MOL
REMARK 927      BINDING AFFINITY PREDICTED BY RF-SCORE:    0.00 PKD
ROOT
HETATM    1  C   UNL     1     -10.208   8.432  68.371  1.00  0.00    -0.206 C  
HETATM    2  C   UNL     1     -10.596   9.887  68.621  1.00  0.00    -0.244 C  
HETATM    3  O   UNL     1     -11.178   6.237  68.780  1.00  0.00    -0.363 OA 
HETATM    4  C   UNL     1     -13.655  10.436  72.101  1.00  0.00    -0.202 A  
HETATM    5  N   UNL     1     -10.900   7.532  70.663  1.00  0.00    -0.235 N  
HETATM    6  C   UNL     1     -10.451  10.312  70.070  1.00  0.00    -0.293 C  
HETATM    7  C   UNL     1     -10.892   7.340  69.263  1.00  0.00    -0.159 C  
HETATM    8  C   UNL     1     -12.938   8.136  71.954  1.00  0.00    -0.356 A  
HETATM    9  C   UNL     1     -11.644   9.855  70.864  1.00  0.00    -0.456 A  
HETATM   10  C   UNL     1     -12.557  10.814  71.335  1.00  0.00    -0.516 A  
HETATM   11  C   UNL     1     -13.840   9.096  72.418  1.00  0.00    -0.524 A  
HETATM   12  C   UNL     1     -11.847   8.499  71.150  1.00  0.00    -0.284 A  
ENDROOT
BRANCH   1  13
HETATM   13  N   UNL     1     -10.474   8.085  66.953  1.00  0.00    -0.346 NA 
HETATM   14  H   UNL     1     -11.395   7.760  66.657  1.00  0.00     0.000 HD 
BRANCH  13  15
HETATM   15  C   UNL     1      -9.366   8.222  65.982  1.00  0.00    -0.149 C  
BRANCH  15  16
HETATM   16  C   UNL     1      -8.917   9.673  65.717  1.00  0.00    -0.207 C  
BRANCH  16  17
HETATM   17  C   UNL     1      -9.394  10.196  64.350  1.00  0.00    -0.348 C  
BRANCH  17  18
HETATM   18  C   UNL     1     -10.496  11.217  64.495  1.00  0.00    -0.415 A  
HETATM   19  C   UNL     1     -11.163  11.708  63.363  1.00  0.00    -0.401 A  
HETATM   20  C   UNL     1     -12.481  13.183  64.752  1.00  0.00    -0.460 A  
HETATM   21  C   UNL     1     -12.152  12.686  63.494  1.00  0.00    -0.648 A  
HETATM   22  C   UNL     1     -11.832  12.691  65.885  1.00  0.00    -0.499 A  
HETATM   23  C   UNL     1     -10.847  11.712  65.757  1.00  0.00    -0.334 A  
ENDBRANCH  17  18
ENDBRANCH  16  17
ENDBRANCH  15  16
BRANCH  15  24
HETATM   24  C   UNL     1      -8.155   7.444  66.547  1.00  0.00    -0.117 C  
HETATM   25  O   UNL     1      -7.032   7.912  66.674  1.00  0.00    -0.069 OA 
BRANCH  24  26
HETATM   26  O   UNL     1      -8.507   6.150  66.802  1.00  0.00    -0.109 OA 
BRANCH  26  27
HETATM   27  C   UNL     1      -8.778   5.344  65.643  1.00  0.00    -0.152 C  
HETATM   28  C   UNL     1     -10.065   4.566  65.852  1.00  0.00    -0.279 C  
ENDBRANCH  26  27
ENDBRANCH  24  26
ENDBRANCH  15  24
ENDBRANCH  13  15
ENDBRANCH   1  13
BRANCH   5  29
HETATM   29  C   UNL     1     -10.737   6.273  71.418  1.00  0.00    -0.248 C  
HETATM   30  C   UNL     1      -9.669   6.267  72.511  1.00  0.00    -0.156 C  
HETATM   31  O   UNL     1      -9.426   5.284  73.198  1.00  0.00    -0.142 OA 
HETATM   32  O   UNL     1      -8.967   7.413  72.653  1.00  0.00    -0.130 OA 
ENDBRANCH   5  29
TORSDOF 9
ENDMDL
MODEL       76
REMARK 921   NORMALIZED FREE ENERGY PREDICTED BY IDOCK:   -5.47 KCAL/MOL
REMARK 922        TOTAL FREE ENERGY PREDICTED BY IDOCK:  -10.50 KCAL/MOL
REMARK 923 INTER-LIGAND FREE ENERGY PREDICTED BY IDOCK:   -8.92 KCAL/MOL
REMARK 924 INTRA-LIGAND FREE ENERGY PREDICTED BY IDOCK:   -1.58 KCAL/MOL
REMARK 927      BINDING AFFINITY PREDICTED BY RF-SCORE:    0.00 PKD
ROOT
HETATM    1  C   UNL     1     -10.901   8.283  70.491  1.00  0.00    -0.232 C  
HETATM    2  C   UNL     1     -11.788   7.084  70.814  1.00  0.00    -0.401 C  
HETATM    3  O   UNL     1      -8.608   8.654  69.761  1.00  0.00    -0.125 OA 
HETATM    4  C   UNL     1      -9.400   3.256  72.005  1.00  0.00    -0.188 A  
HETATM    5  N   UNL     1      -8.814   7.459  71.719  1.00  0.00    -0.116 N  
HETATM    6  C   UNL     1     -11.468   6.435  72.149  1.00  0.00    -0.344 C  
HETATM    7  C   UNL     1      -9.350   8.072  70.564  1.00  0.00    -0.155 C  
HETATM    8  C   UNL     1      -7.913   5.141  71.750  1.00  0.00    -0.111 A  
HETATM    9  C   UNL     1     -10.282   5.522  72.007  1.00  0.00    -0.249 A  
HETATM   10  C   UNL     1     -10.476   4.133  72.096  1.00  0.00    -0.105 A  
HETATM   11  C   UNL     1      -8.117   3.761  71.840  1.00  0.00    -0.071 A  
HETATM   12  C   UNL     1      -8.994   6.034  71.803  1.00  0.00    -0.138 A  
ENDROOT
BRANCH   1  13
HETATM   13  N   UNL     1     -11.222   8.786  69.133  1.00  0.00    -0.413 NA 
HETATM   14  H   UNL     1     -11.060   8.208  68.308  1.00  0.00     0.000 HD 
BRANCH  13  15
HETATM   15  C   UNL     1     -11.785  10.148  69.010  1.00  0.00     0.072 C  
BRANCH  15  16
HETATM   16  C   UNL     1     -11.441  11.097  70.175  1.00  0.00    -0.361 C  
BRANCH  16  17
HETATM   17  C   UNL     1     -12.649  11.370  71.089  1.00  0.00    -0.490 C  
BRANCH  17  18
HETATM   18  C   UNL     1     -12.923  12.847  71.229  1.00  0.00    -0.317 A  
HETATM   19  C   UNL     1     -13.828  13.314  72.194  1.00  0.00    -0.555 A  
HETATM   20  C   UNL     1     -13.503  15.585  71.432  1.00  0.00    -0.583 A  
HETATM   21  C   UNL     1     -14.114  14.677  72.294  1.00  0.00    -0.588 A  
HETATM   22  C   UNL     1     -12.591  15.131  70.478  1.00  0.00    -0.429 A  
HETATM   23  C   UNL     1     -12.302  13.770  70.379  1.00  0.00    -0.423 A  
ENDBRANCH  17  18
ENDBRANCH  16  17
ENDBRANCH  15  16
BRANCH  15  24
HETATM   24  C   UNL     1     -11.222  10.767  67.710  1.00  0.00    -0.316 C  
HETATM   25  O   UNL     1     -10.198  10.393  67.154  1.00  0.00    -0.201 OA 
BRANCH  24  26
HETATM   26  O   UNL     1     -11.986  11.832  67.327  1.00  0.00    -0.618 OA 
BRANCH  26  27
HETATM   27  C   UNL     1     -11.294  12.857  66.595  1.00  0.00    -0.317 C  
HETATM   28  C   UNL     1     -12.077  14.156  66.671  1.00  0.00    -0.480 C  
ENDBRANCH  26  27
ENDBRANCH  24  26
ENDBRANCH  15  24
ENDBRANCH  13  15
ENDBRANCH   1  13
BRANCH   5  29
HETATM   29  C   UNL     1      -7.507   8.023  72.116  1.00  0.00    -0.095 C  
HETATM   30  C   UNL     1      -7.344   8.392  73.590  1.00  0.00    -0.079 C  
HETATM   31  O   UNL     1      -6.316   8.879  74.043  1.00  0.00    -0.263 OA 
HETATM   32  O   UNL     1      -8.427   8.186  74.370  1.00  0.00    -0.230 OA 
ENDBRANCH   5  29
TORSDOF 9
ENDMDL
MODEL       77
REMARK 921   NORMALIZED FREE ENERGY PREDICTED BY IDOCK:   -5.45 KCAL/MOL
REMARK 922        TOTAL FREE ENERGY PREDICTED BY IDOCK:  -10.48 KCAL/MOL
REMARK 923 INTER-LIGAND FREE ENERGY PREDICTED BY IDOCK:   -9.20 KCAL/MOL
REMARK 924 INTRA-LIGAND FREE ENERGY PREDICTED BY IDOCK:   -1.28 KCAL/MOL
REMARK 927      BINDING AFFINITY PREDICTED BY RF-SCORE:    0.00 PKD
ROOT
HETATM    1  C   UNL     1     -11.466  11.845  68.500  1.00  0.00    -0.295 C  
HETATM    2  C   UNL     1     -10.188  12.376  67.856  1.00  0.00    -0.213 C  
HETATM    3  O   UNL     1     -12.102  10.850  70.630  1.00  0.00    -0.312 OA 
HETATM    4  C   UNL     1      -6.285  10.587  69.681  1.00  0.00    -0.063 A  
HETATM    5  N   UNL     1     -10.445   9.722  69.496  1.00  0.00    -0.217 N  
HETATM    6  C   UNL     1      -9.239  11.283  67.402  1.00  0.00    -0.164 C  
HETATM    7  C   UNL     1     -11.307  10.826  69.681  1.00  0.00    -0.294 C  
HETATM    8  C   UNL     1      -8.233   9.505  70.611  1.00  0.00    -0.155 A  
HETATM    9  C   UNL     1      -8.440  10.776  68.571  1.00  0.00    -0.143 A  
HETATM   10  C   UNL     1      -7.066  11.066  68.635  1.00  0.00    -0.080 A  
HETATM   11  C   UNL     1      -6.868   9.798  70.666  1.00  0.00    -0.108 A  
HETATM   12  C   UNL     1      -9.039  10.012  69.581  1.00  0.00    -0.210 A  
ENDROOT
BRANCH   1  13
HETATM   13  N   UNL     1     -12.280  12.982  68.996  1.00  0.00    -0.152 NA 
HETATM   14  H   UNL     1     -13.289  13.008  68.848  1.00  0.00     0.000 HD 
BRANCH  13  15
HETATM   15  C   UNL     1     -11.586  14.076  69.711  1.00  0.00    -0.281 C  
BRANCH  15  16
HETATM   16  C   UNL     1     -11.588  15.430  68.976  1.00  0.00    -0.361 C  
BRANCH  16  17
HETATM   17  C   UNL     1     -10.186  16.060  68.899  1.00  0.00    -0.231 C  
BRANCH  17  18
HETATM   18  C   UNL     1     -10.208  17.390  68.186  1.00  0.00    -0.350 A  
HETATM   19  C   UNL     1     -10.066  18.585  68.907  1.00  0.00    -0.348 A  
HETATM   20  C   UNL     1     -10.341  19.868  66.876  1.00  0.00    -0.596 A  
HETATM   21  C   UNL     1     -10.132  19.817  68.252  1.00  0.00    -0.575 A  
HETATM   22  C   UNL     1     -10.470  18.684  66.149  1.00  0.00    -0.473 A  
HETATM   23  C   UNL     1     -10.401  17.453  66.800  1.00  0.00    -0.305 A  
ENDBRANCH  17  18
ENDBRANCH  16  17
ENDBRANCH  15  16
BRANCH  15  24
HETATM   24  C   UNL     1     -12.301  14.270  71.068  1.00  0.00    -0.361 C  
HETATM   25  O   UNL     1     -13.437  13.886  71.312  1.00  0.00    -0.292 OA 
BRANCH  24  26
HETATM   26  O   UNL     1     -11.513  14.995  71.915  1.00  0.00    -0.389 OA 
BRANCH  26  27
HETATM   27  C   UNL     1     -12.182  16.045  72.633  1.00  0.00    -0.522 C  
HETATM   28  C   UNL     1     -12.439  15.602  74.062  1.00  0.00    -0.785 C  
ENDBRANCH  26  27
ENDBRANCH  24  26
ENDBRANCH  15  24
ENDBRANCH  13  15
ENDBRANCH   1  13
BRANCH   5  29
HETATM   29  C   UNL     1     -10.944   8.488  70.140  1.00  0.00    -0.216 C  
HETATM   30  C   UNL     1     -10.934   7.222  69.286  1.00  0.00    -0.098 C  
HETATM   31  O   UNL     1     -11.333   6.140  69.696  1.00  0.00    -0.414 OA 
HETATM   32  O   UNL     1     -10.492   7.372  68.017  1.00  0.00    -0.198 OA 
ENDBRANCH   5  29
TORSDOF 9
ENDMDL
MODEL       78
REMARK 921   NORMALIZED FREE ENERGY PREDICTED BY IDOCK:   -5.45 KCAL/MOL
REMARK 922        TOTAL FREE ENERGY PREDICTED BY IDOCK:  -10.47 KCAL/MOL
REMARK 923 INTER-LIGAND FREE ENERGY PREDICTED BY IDOCK:   -8.58 KCAL/MOL
REMARK 924 INTRA-LIGAND FREE ENERGY PREDICTED BY IDOCK:   -1.89 KCAL/MOL
REMARK 927      BINDING AFFINITY PREDICTED BY RF-SCORE:    0.00 PKD
ROOT
HETATM    1  C   UNL     1     -10.378   8.384  69.427  1.00  0.00    -0.215 C  
HETATM    2  C   UNL     1      -9.391   9.074  70.365  1.00  0.00    -0.244 C  
HETATM    3  O   UNL     1     -11.467   6.211  69.277  1.00  0.00    -0.404 OA 
HETATM    4  C   UNL     1      -6.733   6.109  72.797  1.00  0.00    -0.070 A  
HETATM    5  N   UNL     1      -9.166   6.135  69.308  1.00  0.00    -0.132 N  
HETATM    6  C   UNL     1      -7.962   8.591  70.201  1.00  0.00    -0.105 C  
HETATM    7  C   UNL     1     -10.397   6.817  69.428  1.00  0.00    -0.199 C  
HETATM    8  C   UNL     1      -8.081   4.918  71.186  1.00  0.00    -0.101 A  
HETATM    9  C   UNL     1      -7.766   7.298  70.945  1.00  0.00    -0.092 A  
HETATM   10  C   UNL     1      -6.967   7.290  72.101  1.00  0.00    -0.063 A  
HETATM   11  C   UNL     1      -7.284   4.921  72.334  1.00  0.00    -0.082 A  
HETATM   12  C   UNL     1      -8.354   6.109  70.495  1.00  0.00    -0.129 A  
ENDROOT
BRANCH   1  13
HETATM   13  N   UNL     1     -11.754   8.850  69.727  1.00  0.00    -0.282 NA 
HETATM   14  H   UNL     1     -12.468   8.881  68.999  1.00  0.00     0.000 HD 
BRANCH  13  15
HETATM   15  C   UNL     1     -12.061   9.267  71.113  1.00  0.00    -0.316 C  
BRANCH  15  16
HETATM   16  C   UNL     1     -12.817  10.605  71.232  1.00  0.00    -0.535 C  
BRANCH  16  17
HETATM   17  C   UNL     1     -12.109  11.750  70.485  1.00  0.00    -0.439 C  
BRANCH  17  18
HETATM   18  C   UNL     1     -12.554  13.103  70.983  1.00  0.00    -0.397 A  
HETATM   19  C   UNL     1     -13.489  13.205  72.024  1.00  0.00    -0.598 A  
HETATM   20  C   UNL     1     -13.454  15.616  71.849  1.00  0.00    -0.537 A  
HETATM   21  C   UNL     1     -13.934  14.457  72.454  1.00  0.00    -0.585 A  
HETATM   22  C   UNL     1     -12.514  15.524  70.822  1.00  0.00    -0.491 A  
HETATM   23  C   UNL     1     -12.065  14.275  70.394  1.00  0.00    -0.409 A  
ENDBRANCH  17  18
ENDBRANCH  16  17
ENDBRANCH  15  16
BRANCH  15  24
HETATM   24  C   UNL     1     -12.943   8.165  71.745  1.00  0.00    -0.342 C  
HETATM   25  O   UNL     1     -14.165   8.197  71.788  1.00  0.00    -0.409 OA 
BRANCH  24  26
HETATM   26  O   UNL     1     -12.156   7.203  72.311  1.00  0.00    -0.264 OA 
BRANCH  26  27
HETATM   27  C   UNL     1     -10.996   7.685  73.009  1.00  0.00    -0.400 C  
HETATM   28  C   UNL     1     -10.305   6.530  73.711  1.00  0.00    -0.346 C  
ENDBRANCH  26  27
ENDBRANCH  24  26
ENDBRANCH  15  24
ENDBRANCH  13  15
ENDBRANCH   1  13
BRANCH   5  29
HETATM   29  C   UNL     1      -9.268   4.900  68.504  1.00  0.00    -0.120 C  
HETATM   30  C   UNL     1      -8.228   4.718  67.399  1.00  0.00    -0.105 C  
HETATM   31  O   UNL     1      -8.211   3.746  66.655  1.00  0.00    -0.096 OA 
HETATM   32  O   UNL     1      -7.337   5.725  67.259  1.00  0.00    -0.074 OA 
ENDBRANCH   5  29
TORSDOF 9
ENDMDL
MODEL       79
REMARK 921   NORMALIZED FREE ENERGY PREDICTED BY IDOCK:   -5.41 KCAL/MOL
REMARK 922        TOTAL FREE ENERGY PREDICTED BY IDOCK:  -10.42 KCAL/MOL
REMARK 923 INTER-LIGAND FREE ENERGY PREDICTED BY IDOCK:   -9.15 KCAL/MOL
REMARK 924 INTRA-LIGAND FREE ENERGY PREDICTED BY IDOCK:   -1.27 KCAL/MOL
REMARK 927      BINDING AFFINITY PREDICTED BY RF-SCORE:    0.00 PKD
ROOT
HETATM    1  C   UNL     1     -10.194   8.092  68.353  1.00  0.00    -0.209 C  
HETATM    2  C   UNL     1     -10.264   6.598  68.654  1.00  0.00    -0.184 C  
HETATM    3  O   UNL     1      -9.435  10.103  69.497  1.00  0.00    -0.211 OA 
HETATM    4  C   UNL     1     -10.311   5.606  73.213  1.00  0.00    -0.234 A  
HETATM    5  N   UNL     1     -11.042   8.902  70.626  1.00  0.00    -0.255 N  
HETATM    6  C   UNL     1     -11.372   6.226  69.622  1.00  0.00    -0.492 C  
HETATM    7  C   UNL     1     -10.113   9.070  69.575  1.00  0.00    -0.197 C  
HETATM    8  C   UNL     1     -10.439   7.991  72.860  1.00  0.00    -0.402 A  
HETATM    9  C   UNL     1     -10.933   6.491  71.035  1.00  0.00    -0.314 A  
HETATM   10  C   UNL     1     -10.686   5.403  71.889  1.00  0.00    -0.275 A  
HETATM   11  C   UNL     1     -10.196   6.902  73.701  1.00  0.00    -0.372 A  
HETATM   12  C   UNL     1     -10.781   7.800  71.513  1.00  0.00    -0.222 A  
ENDROOT
BRANCH   1  13
HETATM   13  N   UNL     1      -9.026   8.368  67.480  1.00  0.00    -0.134 NA 
HETATM   14  H   UNL     1      -8.080   8.384  67.860  1.00  0.00     0.000 HD 
BRANCH  13  15
HETATM   15  C   UNL     1      -9.275   8.619  66.043  1.00  0.00    -0.216 C  
BRANCH  15  16
HETATM   16  C   UNL     1      -9.098  10.085  65.604  1.00  0.00    -0.222 C  
BRANCH  16  17
HETATM   17  C   UNL     1     -10.050  10.477  64.460  1.00  0.00    -0.402 C  
BRANCH  17  18
HETATM   18  C   UNL     1     -10.876  11.690  64.811  1.00  0.00    -0.367 A  
HETATM   19  C   UNL     1     -11.301  11.904  66.130  1.00  0.00    -0.383 A  
HETATM   20  C   UNL     1     -12.490  13.896  65.448  1.00  0.00    -0.528 A  
HETATM   21  C   UNL     1     -12.104  13.003  66.445  1.00  0.00    -0.428 A  
HETATM   22  C   UNL     1     -12.060  13.698  64.135  1.00  0.00    -0.484 A  
HETATM   23  C   UNL     1     -11.257  12.603  63.820  1.00  0.00    -0.519 A  
ENDBRANCH  17  18
ENDBRANCH  16  17
ENDBRANCH  15  16
BRANCH  15  24
HETATM   24  C   UNL     1      -8.273   7.756  65.241  1.00  0.00    -0.140 C  
HETATM   25  O   UNL     1      -7.689   8.133  64.234  1.00  0.00    -0.112 OA 
BRANCH  24  26
HETATM   26  O   UNL     1      -8.201   6.501  65.775  1.00  0.00    -0.121 OA 
BRANCH  26  27
HETATM   27  C   UNL     1      -8.220   5.424  64.824  1.00  0.00    -0.132 C  
HETATM   28  C   UNL     1      -9.373   4.487  65.135  1.00  0.00    -0.160 C  
ENDBRANCH  26  27
ENDBRANCH  24  26
ENDBRANCH  15  24
ENDBRANCH  13  15
ENDBRANCH   1  13
BRANCH   5  29
HETATM   29  C   UNL     1     -11.484  10.183  71.215  1.00  0.00    -0.249 C  
HETATM   30  C   UNL     1     -12.970  10.305  71.546  1.00  0.00    -0.453 C  
HETATM   31  O   UNL     1     -13.464  11.317  72.025  1.00  0.00    -0.389 OA 
HETATM   32  O   UNL     1     -13.731   9.231  71.239  1.00  0.00    -0.342 OA 
ENDBRANCH   5  29
TORSDOF 9
ENDMDL
MODEL       80
REMARK 921   NORMALIZED FREE ENERGY PREDICTED BY IDOCK:   -5.41 KCAL/MOL
REMARK 922        TOTAL FREE ENERGY PREDICTED BY IDOCK:  -10.41 KCAL/MOL
REMARK 923 INTER-LIGAND FREE ENERGY PREDICTED BY IDOCK:   -8.48 KCAL/MOL
REMARK 924 INTRA-LIGAND FREE ENERGY PREDICTED BY IDOCK:   -1.94 KCAL/MOL
REMARK 927      BINDING AFFINITY PREDICTED BY RF-SCORE:    0.00 PKD
ROOT
HETATM    1  C   UNL     1     -10.652  10.658  68.158  1.00  0.00    -0.202 C  
HETATM    2  C   UNL     1     -10.569  10.093  66.742  1.00  0.00    -0.239 C  
HETATM    3  O   UNL     1     -11.942  12.368  69.317  1.00  0.00    -0.298 OA 
HETATM    4  C   UNL     1     -12.091  13.036  63.457  1.00  0.00    -0.617 A  
HETATM    5  N   UNL     1     -10.756  13.126  67.495  1.00  0.00    -0.237 N  
HETATM    6  C   UNL     1      -9.859  11.010  65.764  1.00  0.00    -0.282 C  
HETATM    7  C   UNL     1     -11.252  12.096  68.324  1.00  0.00    -0.268 C  
HETATM    8  C   UNL     1     -12.048  14.118  65.615  1.00  0.00    -0.425 A  
HETATM    9  C   UNL     1     -10.801  12.079  65.283  1.00  0.00    -0.340 A  
HETATM   10  C   UNL     1     -11.247  12.046  63.951  1.00  0.00    -0.490 A  
HETATM   11  C   UNL     1     -12.485  14.077  64.288  1.00  0.00    -0.303 A  
HETATM   12  C   UNL     1     -11.226  13.107  66.135  1.00  0.00    -0.295 A  
ENDROOT
BRANCH   1  13
HETATM   13  N   UNL     1     -11.443   9.740  69.013  1.00  0.00    -0.467 NA 
HETATM   14  H   UNL     1     -12.462   9.744  68.984  1.00  0.00     0.000 HD 
BRANCH  13  15
HETATM   15  C   UNL     1     -10.710   8.818  69.908  1.00  0.00    -0.223 C  
BRANCH  15  16
HETATM   16  C   UNL     1      -9.180   9.005  69.915  1.00  0.00    -0.181 C  
BRANCH  16  17
HETATM   17  C   UNL     1      -8.455   7.962  69.046  1.00  0.00    -0.131 C  
BRANCH  17  18
HETATM   18  C   UNL     1      -8.720   6.555  69.522  1.00  0.00    -0.134 A  
HETATM   19  C   UNL     1      -9.515   5.684  68.761  1.00  0.00    -0.155 A  
HETATM   20  C   UNL     1      -9.292   3.968  70.450  1.00  0.00    -0.230 A  
HETATM   21  C   UNL     1      -9.797   4.397  69.224  1.00  0.00    -0.218 A  
HETATM   22  C   UNL     1      -8.490   4.823  71.207  1.00  0.00    -0.113 A  
HETATM   23  C   UNL     1      -8.204   6.107  70.744  1.00  0.00    -0.125 A  
ENDBRANCH  17  18
ENDBRANCH  16  17
ENDBRANCH  15  16
BRANCH  15  24
HETATM   24  C   UNL     1     -11.226   9.059  71.346  1.00  0.00    -0.324 C  
HETATM   25  O   UNL     1     -12.155   9.802  71.631  1.00  0.00    -0.378 OA 
BRANCH  24  26
HETATM   26  O   UNL     1     -10.445   8.389  72.243  1.00  0.00    -0.292 OA 
BRANCH  26  27
HETATM   27  C   UNL     1     -11.137   7.446  73.079  1.00  0.00    -0.343 C  
HETATM   28  C   UNL     1     -11.731   6.343  72.221  1.00  0.00    -0.333 C  
ENDBRANCH  26  27
ENDBRANCH  24  26
ENDBRANCH  15  24
ENDBRANCH  13  15
ENDBRANCH   1  13
BRANCH   5  29
HETATM   29  C   UNL     1     -10.669  14.430  68.185  1.00  0.00    -0.236 C  
HETATM   30  C   UNL     1      -9.306  14.804  68.766  1.00  0.00    -0.198 C  
HETATM   31  O   UNL     1      -9.105  15.848  69.372  1.00  0.00    -0.250 OA 
HETATM   32  O   UNL     1      -8.328  13.885  68.607  1.00  0.00    -0.152 OA 
ENDBRANCH   5  29
TORSDOF 9
ENDMDL
MODEL       81
REMARK 921   NORMALIZED FREE ENERGY PREDICTED BY IDOCK:   -5.40 KCAL/MOL
REMARK 922        TOTAL FREE ENERGY PREDICTED BY IDOCK:  -10.40 KCAL/MOL
REMARK 923 INTER-LIGAND FREE ENERGY PREDICTED BY IDOCK:   -9.97 KCAL/MOL
REMARK 924 INTRA-LIGAND FREE ENERGY PREDICTED BY IDOCK:   -0.43 KCAL/MOL
REMARK 927      BINDING AFFINITY PREDICTED BY RF-SCORE:    0.00 PKD
ROOT
HETATM    1  C   UNL     1     -10.086  12.444  68.222  1.00  0.00    -0.227 C  
HETATM    2  C   UNL     1      -8.626  12.003  68.253  1.00  0.00    -0.174 C  
HETATM    3  O   UNL     1     -12.160  11.659  67.215  1.00  0.00    -0.595 OA 
HETATM    4  C   UNL     1      -7.393   9.347  64.619  1.00  0.00    -0.104 A  
HETATM    5  N   UNL     1     -10.462  12.080  65.718  1.00  0.00    -0.245 N  
HETATM    6  C   UNL     1      -7.877  12.292  66.964  1.00  0.00    -0.108 C  
HETATM    7  C   UNL     1     -10.967  11.935  67.029  1.00  0.00    -0.278 C  
HETATM    8  C   UNL     1      -9.644  10.176  64.343  1.00  0.00    -0.366 A  
HETATM    9  C   UNL     1      -8.178  11.230  65.944  1.00  0.00     0.012 A  
HETATM   10  C   UNL     1      -7.166  10.323  65.585  1.00  0.00    -0.148 A  
HETATM   11  C   UNL     1      -8.631   9.279  63.992  1.00  0.00    -0.204 A  
HETATM   12  C   UNL     1      -9.440  11.141  65.341  1.00  0.00    -0.222 A  
ENDROOT
BRANCH   1  13
HETATM   13  N   UNL     1     -10.755  12.034  69.481  1.00  0.00    -0.440 NA 
HETATM   14  H   UNL     1     -10.653  12.585  70.333  1.00  0.00     0.000 HD 
BRANCH  13  15
HETATM   15  C   UNL     1     -11.574  10.801  69.464  1.00  0.00    -0.303 C  
BRANCH  15  16
HETATM   16  C   UNL     1     -10.784   9.499  69.697  1.00  0.00    -0.257 C  
BRANCH  16  17
HETATM   17  C   UNL     1     -10.103   9.461  71.078  1.00  0.00    -0.353 C  
BRANCH  17  18
HETATM   18  C   UNL     1     -10.385   8.170  71.806  1.00  0.00    -0.293 A  
HETATM   19  C   UNL     1     -11.268   7.225  71.262  1.00  0.00    -0.281 A  
HETATM   20  C   UNL     1     -10.983   5.810  73.201  1.00  0.00    -0.309 A  
HETATM   21  C   UNL     1     -11.563   6.051  71.958  1.00  0.00    -0.333 A  
HETATM   22  C   UNL     1     -10.093   6.738  73.743  1.00  0.00    -0.349 A  
HETATM   23  C   UNL     1      -9.795   7.910  73.049  1.00  0.00    -0.355 A  
ENDBRANCH  17  18
ENDBRANCH  16  17
ENDBRANCH  15  16
BRANCH  15  24
HETATM   24  C   UNL     1     -12.626  10.929  70.590  1.00  0.00    -0.346 C  
HETATM   25  O   UNL     1     -13.413  10.045  70.904  1.00  0.00    -0.352 OA 
BRANCH  24  26
HETATM   26  O   UNL     1     -12.598  12.187  71.119  1.00  0.00    -0.365 OA 
BRANCH  26  27
HETATM   27  C   UNL     1     -13.527  12.428  72.189  1.00  0.00    -0.378 C  
HETATM   28  C   UNL     1     -13.652  13.922  72.430  1.00  0.00    -0.676 C  
ENDBRANCH  26  27
ENDBRANCH  24  26
ENDBRANCH  15  24
ENDBRANCH  13  15
ENDBRANCH   1  13
BRANCH   5  29
HETATM   29  C   UNL     1     -11.511  12.405  64.729  1.00  0.00    -0.325 C  
HETATM   30  C   UNL     1     -11.683  13.882  64.378  1.00  0.00    -0.404 C  
HETATM   31  O   UNL     1     -12.524  14.283  63.584  1.00  0.00    -0.816 OA 
HETATM   32  O   UNL     1     -10.869  14.740  65.032  1.00  0.00    -0.372 OA 
ENDBRANCH   5  29
TORSDOF 9
ENDMDL
MODEL       82
REMARK 921   NORMALIZED FREE ENERGY PREDICTED BY IDOCK:   -5.40 KCAL/MOL
REMARK 922        TOTAL FREE ENERGY PREDICTED BY IDOCK:  -10.40 KCAL/MOL
REMARK 923 INTER-LIGAND FREE ENERGY PREDICTED BY IDOCK:   -8.84 KCAL/MOL
REMARK 924 INTRA-LIGAND FREE ENERGY PREDICTED BY IDOCK:   -1.56 KCAL/MOL
REMARK 927      BINDING AFFINITY PREDICTED BY RF-SCORE:    0.00 PKD
ROOT
HETATM    1  C   UNL     1      -8.840  14.230  67.732  1.00  0.00    -0.185 C  
HETATM    2  C   UNL     1      -7.635  15.166  67.761  1.00  0.00    -0.171 C  
HETATM    3  O   UNL     1     -11.152  14.332  66.974  1.00  0.00    -0.297 OA 
HETATM    4  C   UNL     1      -8.770  19.690  67.628  1.00  0.00    -0.372 A  
HETATM    5  N   UNL     1     -10.573  15.941  68.516  1.00  0.00    -0.252 N  
HETATM    6  C   UNL     1      -7.728  16.242  68.827  1.00  0.00    -0.202 C  
HETATM    7  C   UNL     1     -10.259  14.888  67.628  1.00  0.00    -0.236 C  
HETATM    8  C   UNL     1     -10.750  18.321  67.816  1.00  0.00    -0.358 A  
HETATM    9  C   UNL     1      -8.595  17.372  68.343  1.00  0.00    -0.270 A  
HETATM   10  C   UNL     1      -7.999  18.609  68.045  1.00  0.00    -0.294 A  
HETATM   11  C   UNL     1     -10.148  19.547  67.522  1.00  0.00    -0.524 A  
HETATM   12  C   UNL     1      -9.980  17.213  68.202  1.00  0.00    -0.297 A  
ENDROOT
BRANCH   1  13
HETATM   13  N   UNL     1      -8.703  13.280  66.602  1.00  0.00    -0.435 NA 
HETATM   14  H   UNL     1      -8.653  13.613  65.639  1.00  0.00     0.000 HD 
BRANCH  13  15
HETATM   15  C   UNL     1      -8.640  11.834  66.912  1.00  0.00    -0.177 C  
BRANCH  15  16
HETATM   16  C   UNL     1      -9.674  10.969  66.166  1.00  0.00    -0.257 C  
BRANCH  16  17
HETATM   17  C   UNL     1     -11.109  11.196  66.673  1.00  0.00    -0.255 C  
BRANCH  17  18
HETATM   18  C   UNL     1     -11.242  10.867  68.140  1.00  0.00    -0.363 A  
HETATM   19  C   UNL     1     -10.769   9.645  68.640  1.00  0.00    -0.233 A  
HETATM   20  C   UNL     1     -11.572  10.213  70.849  1.00  0.00    -0.459 A  
HETATM   21  C   UNL     1     -10.934   9.322  69.989  1.00  0.00    -0.254 A  
HETATM   22  C   UNL     1     -12.034  11.437  70.362  1.00  0.00    -0.465 A  
HETATM   23  C   UNL     1     -11.868  11.762  69.017  1.00  0.00    -0.379 A  
ENDBRANCH  17  18
ENDBRANCH  16  17
ENDBRANCH  15  16
BRANCH  15  24
HETATM   24  C   UNL     1      -7.229  11.336  66.519  1.00  0.00    -0.096 C  
HETATM   25  O   UNL     1      -6.185  11.847  66.901  1.00  0.00    -0.154 OA 
BRANCH  24  26
HETATM   26  O   UNL     1      -7.326  10.304  65.630  1.00  0.00    -0.137 OA 
BRANCH  26  27
HETATM   27  C   UNL     1      -6.252  10.204  64.681  1.00  0.00    -0.130 C  
HETATM   28  C   UNL     1      -6.805   9.810  63.323  1.00  0.00    -0.117 C  
ENDBRANCH  26  27
ENDBRANCH  24  26
ENDBRANCH  15  24
ENDBRANCH  13  15
ENDBRANCH   1  13
BRANCH   5  29
HETATM   29  C   UNL     1     -11.982  15.918  68.962  1.00  0.00    -0.230 C  
HETATM   30  C   UNL     1     -12.228  15.540  70.422  1.00  0.00    -0.406 C  
HETATM   31  O   UNL     1     -13.348  15.472  70.911  1.00  0.00    -0.492 OA 
HETATM   32  O   UNL     1     -11.126  15.240  71.145  1.00  0.00    -0.340 OA 
ENDBRANCH   5  29
TORSDOF 9
ENDMDL
MODEL       83
REMARK 921   NORMALIZED FREE ENERGY PREDICTED BY IDOCK:   -5.40 KCAL/MOL
REMARK 922        TOTAL FREE ENERGY PREDICTED BY IDOCK:  -10.39 KCAL/MOL
REMARK 923 INTER-LIGAND FREE ENERGY PREDICTED BY IDOCK:   -8.14 KCAL/MOL
REMARK 924 INTRA-LIGAND FREE ENERGY PREDICTED BY IDOCK:   -2.25 KCAL/MOL
REMARK 927      BINDING AFFINITY PREDICTED BY RF-SCORE:    0.00 PKD
ROOT
HETATM    1  C   UNL     1     -10.430   9.948  67.629  1.00  0.00    -0.244 C  
HETATM    2  C   UNL     1     -10.019   9.765  66.171  1.00  0.00    -0.338 C  
HETATM    3  O   UNL     1     -12.287  10.956  68.840  1.00  0.00    -0.486 OA 
HETATM    4  C   UNL     1     -11.922  12.894  63.280  1.00  0.00    -0.516 A  
HETATM    5  N   UNL     1     -11.161  12.392  67.435  1.00  0.00    -0.278 N  
HETATM    6  C   UNL     1      -9.492  11.033  65.525  1.00  0.00    -0.250 C  
HETATM    7  C   UNL     1     -11.435  11.106  67.954  1.00  0.00    -0.284 C  
HETATM    8  C   UNL     1     -12.450  13.425  65.575  1.00  0.00    -0.534 A  
HETATM    9  C   UNL     1     -10.638  11.906  65.094  1.00  0.00    -0.333 A  
HETATM   10  C   UNL     1     -10.894  12.068  63.721  1.00  0.00    -0.481 A  
HETATM   11  C   UNL     1     -12.696  13.579  64.209  1.00  0.00    -0.079 A  
HETATM   12  C   UNL     1     -11.440  12.566  66.034  1.00  0.00    -0.377 A  
ENDROOT
BRANCH   1  13
HETATM   13  N   UNL     1     -11.019   8.687  68.141  1.00  0.00    -0.460 NA 
HETATM   14  H   UNL     1     -11.888   8.319  67.755  1.00  0.00     0.000 HD 
BRANCH  13  15
HETATM   15  C   UNL     1     -10.308   7.977  69.227  1.00  0.00    -0.220 C  
BRANCH  15  16
HETATM   16  C   UNL     1      -8.770   8.042  69.143  1.00  0.00    -0.137 C  
BRANCH  16  17
HETATM   17  C   UNL     1      -8.163   6.796  68.475  1.00  0.00    -0.120 C  
BRANCH  17  18
HETATM   18  C   UNL     1      -7.797   7.055  67.034  1.00  0.00    -0.108 A  
HETATM   19  C   UNL     1      -8.446   6.364  66.001  1.00  0.00    -0.144 A  
HETATM   20  C   UNL     1      -7.053   7.466  64.360  1.00  0.00    -0.062 A  
HETATM   21  C   UNL     1      -8.075   6.571  64.670  1.00  0.00    -0.092 A  
HETATM   22  C   UNL     1      -6.411   8.167  65.381  1.00  0.00    -0.048 A  
HETATM   23  C   UNL     1      -6.782   7.964  66.710  1.00  0.00    -0.063 A  
ENDBRANCH  17  18
ENDBRANCH  16  17
ENDBRANCH  15  16
BRANCH  15  24
HETATM   24  C   UNL     1     -10.740   8.624  70.564  1.00  0.00    -0.221 C  
HETATM   25  O   UNL     1     -10.138   9.533  71.118  1.00  0.00    -0.288 OA 
BRANCH  24  26
HETATM   26  O   UNL     1     -11.834   7.979  71.065  1.00  0.00    -0.290 OA 
BRANCH  26  27
HETATM   27  C   UNL     1     -11.799   6.545  70.978  1.00  0.00    -0.330 C  
HETATM   28  C   UNL     1     -11.283   5.967  72.284  1.00  0.00    -0.343 C  
ENDBRANCH  26  27
ENDBRANCH  24  26
ENDBRANCH  15  24
ENDBRANCH  13  15
ENDBRANCH   1  13
BRANCH   5  29
HETATM   29  C   UNL     1     -11.537  13.479  68.362  1.00  0.00    -0.343 C  
HETATM   30  C   UNL     1     -10.402  14.376  68.856  1.00  0.00    -0.231 C  
HETATM   31  O   UNL     1     -10.579  15.302  69.636  1.00  0.00    -0.247 OA 
HETATM   32  O   UNL     1      -9.167  14.060  68.408  1.00  0.00    -0.196 OA 
ENDBRANCH   5  29
TORSDOF 9
ENDMDL
MODEL       84
REMARK 921   NORMALIZED FREE ENERGY PREDICTED BY IDOCK:   -5.39 KCAL/MOL
REMARK 922        TOTAL FREE ENERGY PREDICTED BY IDOCK:  -10.39 KCAL/MOL
REMARK 923 INTER-LIGAND FREE ENERGY PREDICTED BY IDOCK:   -8.33 KCAL/MOL
REMARK 924 INTRA-LIGAND FREE ENERGY PREDICTED BY IDOCK:   -2.06 KCAL/MOL
REMARK 927      BINDING AFFINITY PREDICTED BY RF-SCORE:    0.00 PKD
ROOT
HETATM    1  C   UNL     1      -8.651  11.488  66.536  1.00  0.00    -0.172 C  
HETATM    2  C   UNL     1      -8.382  11.772  68.012  1.00  0.00    -0.154 C  
HETATM    3  O   UNL     1     -10.201  10.126  65.242  1.00  0.00    -0.304 OA 
HETATM    4  C   UNL     1      -9.857   8.393  70.871  1.00  0.00    -0.223 A  
HETATM    5  N   UNL     1      -8.925   8.954  66.759  1.00  0.00    -0.126 N  
HETATM    6  C   UNL     1      -7.672  10.638  68.728  1.00  0.00    -0.117 C  
HETATM    7  C   UNL     1      -9.398  10.155  66.185  1.00  0.00    -0.172 C  
HETATM    8  C   UNL     1     -10.121   7.731  68.564  1.00  0.00    -0.216 A  
HETATM    9  C   UNL     1      -8.662   9.572  69.112  1.00  0.00    -0.146 A  
HETATM   10  C   UNL     1      -8.974   9.390  70.471  1.00  0.00    -0.303 A  
HETATM   11  C   UNL     1     -10.425   7.558  69.917  1.00  0.00    -0.232 A  
HETATM   12  C   UNL     1      -9.260   8.756  68.144  1.00  0.00    -0.140 A  
ENDROOT
BRANCH   1  13
HETATM   13  N   UNL     1      -9.430  12.606  65.950  1.00  0.00    -0.436 NA 
HETATM   14  H   UNL     1      -9.453  12.757  64.942  1.00  0.00     0.000 HD 
BRANCH  13  15
HETATM   15  C   UNL     1     -10.171  13.496  66.871  1.00  0.00    -0.256 C  
BRANCH  15  16
HETATM   16  C   UNL     1     -10.103  14.994  66.514  1.00  0.00    -0.286 C  
BRANCH  16  17
HETATM   17  C   UNL     1      -9.451  15.835  67.627  1.00  0.00    -0.218 C  
BRANCH  17  18
HETATM   18  C   UNL     1      -9.754  17.305  67.467  1.00  0.00    -0.264 A  
HETATM   19  C   UNL     1      -9.674  18.171  68.568  1.00  0.00    -0.372 A  
HETATM   20  C   UNL     1     -10.406  20.021  67.194  1.00  0.00    -0.554 A  
HETATM   21  C   UNL     1      -9.999  19.522  68.430  1.00  0.00    -0.540 A  
HETATM   22  C   UNL     1     -10.475  19.170  66.091  1.00  0.00    -0.558 A  
HETATM   23  C   UNL     1     -10.149  17.821  66.227  1.00  0.00    -0.345 A  
ENDBRANCH  17  18
ENDBRANCH  16  17
ENDBRANCH  15  16
BRANCH  15  24
HETATM   24  C   UNL     1     -11.656  13.065  66.838  1.00  0.00    -0.366 C  
HETATM   25  O   UNL     1     -12.223  12.617  65.851  1.00  0.00    -0.548 OA 
BRANCH  24  26
HETATM   26  O   UNL     1     -12.249  13.334  68.038  1.00  0.00    -0.275 OA 
BRANCH  26  27
HETATM   27  C   UNL     1     -11.720  12.612  69.163  1.00  0.00    -0.321 C  
HETATM   28  C   UNL     1     -12.058  11.138  69.028  1.00  0.00    -0.315 C  
ENDBRANCH  26  27
ENDBRANCH  24  26
ENDBRANCH  15  24
ENDBRANCH  13  15
ENDBRANCH   1  13
BRANCH   5  29
HETATM   29  C   UNL     1      -9.027   7.799  65.843  1.00  0.00    -0.113 C  
HETATM   30  C   UNL     1      -7.736   7.359  65.155  1.00  0.00    -0.112 C  
HETATM   31  O   UNL     1      -7.688   6.425  64.365  1.00  0.00    -0.095 OA 
HETATM   32  O   UNL     1      -6.638   8.094  65.440  1.00  0.00    -0.051 OA 
ENDBRANCH   5  29
TORSDOF 9
ENDMDL
MODEL       85
REMARK 921   NORMALIZED FREE ENERGY PREDICTED BY IDOCK:   -5.39 KCAL/MOL
REMARK 922        TOTAL FREE ENERGY PREDICTED BY IDOCK:  -10.38 KCAL/MOL
REMARK 923 INTER-LIGAND FREE ENERGY PREDICTED BY IDOCK:   -9.50 KCAL/MOL
REMARK 924 INTRA-LIGAND FREE ENERGY PREDICTED BY IDOCK:   -0.89 KCAL/MOL
REMARK 927      BINDING AFFINITY PREDICTED BY RF-SCORE:    0.00 PKD
ROOT
HETATM    1  C   UNL     1     -10.217  13.461  66.892  1.00  0.00    -0.252 C  
HETATM    2  C   UNL     1      -9.534  13.077  68.202  1.00  0.00    -0.218 C  
HETATM    3  O   UNL     1     -11.887  12.493  65.407  1.00  0.00    -0.388 OA 
HETATM    4  C   UNL     1      -9.518   8.485  69.031  1.00  0.00    -0.150 A  
HETATM    5  N   UNL     1     -10.039  11.168  65.772  1.00  0.00    -0.239 N  
HETATM    6  C   UNL     1      -8.478  11.999  68.041  1.00  0.00    -0.168 C  
HETATM    7  C   UNL     1     -10.838  12.303  66.038  1.00  0.00    -0.275 C  
HETATM    8  C   UNL     1     -10.407   8.950  66.835  1.00  0.00    -0.332 A  
HETATM    9  C   UNL     1      -9.129  10.644  67.982  1.00  0.00    -0.147 A  
HETATM   10  C   UNL     1      -8.962   9.759  69.061  1.00  0.00    -0.154 A  
HETATM   11  C   UNL     1     -10.235   8.078  67.912  1.00  0.00    -0.267 A  
HETATM   12  C   UNL     1      -9.882  10.251  66.868  1.00  0.00    -0.197 A  
ENDROOT
BRANCH   1  13
HETATM   13  N   UNL     1     -11.293  14.444  67.165  1.00  0.00    -0.328 NA 
HETATM   14  H   UNL     1     -12.273  14.206  67.010  1.00  0.00     0.000 HD 
BRANCH  13  15
HETATM   15  C   UNL     1     -10.905  15.781  67.666  1.00  0.00    -0.310 C  
BRANCH  15  16
HETATM   16  C   UNL     1     -10.245  15.781  69.059  1.00  0.00    -0.224 C  
BRANCH  16  17
HETATM   17  C   UNL     1     -11.069  16.560  70.101  1.00  0.00    -0.193 C  
BRANCH  17  18
HETATM   18  C   UNL     1     -11.875  15.637  70.981  1.00  0.00    -0.442 A  
HETATM   19  C   UNL     1     -12.255  16.038  72.271  1.00  0.00    -0.604 A  
HETATM   20  C   UNL     1     -13.293  13.888  72.656  1.00  0.00    -0.640 A  
HETATM   21  C   UNL     1     -12.962  15.166  73.102  1.00  0.00    -0.627 A  
HETATM   22  C   UNL     1     -12.930  13.487  71.370  1.00  0.00    -0.421 A  
HETATM   23  C   UNL     1     -12.228  14.357  70.538  1.00  0.00    -0.411 A  
ENDBRANCH  17  18
ENDBRANCH  16  17
ENDBRANCH  15  16
BRANCH  15  24
HETATM   24  C   UNL     1      -9.893  16.378  66.660  1.00  0.00    -0.261 C  
HETATM   25  O   UNL     1     -10.118  16.541  65.469  1.00  0.00    -0.535 OA 
BRANCH  24  26
HETATM   26  O   UNL     1      -8.700  16.616  67.280  1.00  0.00    -0.186 OA 
BRANCH  26  27
HETATM   27  C   UNL     1      -8.161  17.936  67.096  1.00  0.00    -0.216 C  
HETATM   28  C   UNL     1      -7.876  18.565  68.448  1.00  0.00    -0.332 C  
ENDBRANCH  26  27
ENDBRANCH  24  26
ENDBRANCH  15  24
ENDBRANCH  13  15
ENDBRANCH   1  13
BRANCH   5  29
HETATM   29  C   UNL     1     -10.262  10.611  64.421  1.00  0.00    -0.330 C  
HETATM   30  C   UNL     1      -9.015  10.199  63.640  1.00  0.00    -0.247 C  
HETATM   31  O   UNL     1      -9.063   9.737  62.508  1.00  0.00    -0.261 OA 
HETATM   32  O   UNL     1      -7.835  10.414  64.262  1.00  0.00    -0.141 OA 
ENDBRANCH   5  29
TORSDOF 9
ENDMDL
MODEL       86
REMARK 921   NORMALIZED FREE ENERGY PREDICTED BY IDOCK:   -5.38 KCAL/MOL
REMARK 922        TOTAL FREE ENERGY PREDICTED BY IDOCK:  -10.36 KCAL/MOL
REMARK 923 INTER-LIGAND FREE ENERGY PREDICTED BY IDOCK:   -8.62 KCAL/MOL
REMARK 924 INTRA-LIGAND FREE ENERGY PREDICTED BY IDOCK:   -1.74 KCAL/MOL
REMARK 927      BINDING AFFINITY PREDICTED BY RF-SCORE:    0.00 PKD
ROOT
HETATM    1  C   UNL     1      -9.811  10.543  68.315  1.00  0.00    -0.149 C  
HETATM    2  C   UNL     1      -9.218  10.130  66.971  1.00  0.00    -0.166 C  
HETATM    3  O   UNL     1     -11.963  11.324  69.144  1.00  0.00    -0.324 OA 
HETATM    4  C   UNL     1     -11.454  11.943  63.299  1.00  0.00    -0.376 A  
HETATM    5  N   UNL     1     -11.045  12.621  67.478  1.00  0.00    -0.259 N  
HETATM    6  C   UNL     1      -8.922  11.301  66.053  1.00  0.00    -0.209 C  
HETATM    7  C   UNL     1     -11.078  11.466  68.290  1.00  0.00    -0.244 C  
HETATM    8  C   UNL     1     -12.327  12.849  65.359  1.00  0.00    -0.538 A  
HETATM    9  C   UNL     1     -10.182  11.745  65.362  1.00  0.00    -0.301 A  
HETATM   10  C   UNL     1     -10.320  11.516  63.982  1.00  0.00    -0.406 A  
HETATM   11  C   UNL     1     -12.455  12.617  63.987  1.00  0.00    -0.487 A  
HETATM   12  C   UNL     1     -11.205  12.392  66.067  1.00  0.00    -0.335 A  
ENDROOT
BRANCH   1  13
HETATM   13  N   UNL     1     -10.155   9.331  69.099  1.00  0.00    -0.192 NA 
HETATM   14  H   UNL     1     -11.101   8.950  69.087  1.00  0.00     0.000 HD 
BRANCH  13  15
HETATM   15  C   UNL     1      -9.085   8.692  69.897  1.00  0.00    -0.151 C  
BRANCH  15  16
HETATM   16  C   UNL     1      -9.232   8.857  71.422  1.00  0.00    -0.328 C  
BRANCH  16  17
HETATM   17  C   UNL     1     -10.647   8.510  71.918  1.00  0.00    -0.392 C  
BRANCH  17  18
HETATM   18  C   UNL     1     -10.660   7.237  72.728  1.00  0.00    -0.322 A  
HETATM   19  C   UNL     1      -9.793   7.080  73.819  1.00  0.00    -0.341 A  
HETATM   20  C   UNL     1     -10.617   4.835  74.178  1.00  0.00    -0.351 A  
HETATM   21  C   UNL     1      -9.774   5.883  74.540  1.00  0.00    -0.241 A  
HETATM   22  C   UNL     1     -11.492   4.988  73.102  1.00  0.00    -0.362 A  
HETATM   23  C   UNL     1     -11.514   6.182  72.383  1.00  0.00    -0.349 A  
ENDBRANCH  17  18
ENDBRANCH  16  17
ENDBRANCH  15  16
BRANCH  15  24
HETATM   24  C   UNL     1      -9.108   7.179  69.576  1.00  0.00    -0.146 C  
HETATM   25  O   UNL     1      -9.943   6.636  68.865  1.00  0.00    -0.147 OA 
BRANCH  24  26
HETATM   26  O   UNL     1      -8.117   6.539  70.263  1.00  0.00    -0.116 OA 
BRANCH  26  27
HETATM   27  C   UNL     1      -8.332   5.137  70.493  1.00  0.00    -0.110 C  
HETATM   28  C   UNL     1      -7.786   4.753  71.858  1.00  0.00    -0.100 C  
ENDBRANCH  26  27
ENDBRANCH  24  26
ENDBRANCH  15  24
ENDBRANCH  13  15
ENDBRANCH   1  13
BRANCH   5  29
HETATM   29  C   UNL     1     -11.749  13.771  68.083  1.00  0.00    -0.357 C  
HETATM   30  C   UNL     1     -10.926  15.040  68.294  1.00  0.00    -0.271 C  
HETATM   31  O   UNL     1     -11.387  16.056  68.798  1.00  0.00    -0.344 OA 
HETATM   32  O   UNL     1      -9.627  14.967  67.926  1.00  0.00    -0.202 OA 
ENDBRANCH   5  29
TORSDOF 9
ENDMDL
MODEL       87
REMARK 921   NORMALIZED FREE ENERGY PREDICTED BY IDOCK:   -5.34 KCAL/MOL
REMARK 922        TOTAL FREE ENERGY PREDICTED BY IDOCK:  -10.31 KCAL/MOL
REMARK 923 INTER-LIGAND FREE ENERGY PREDICTED BY IDOCK:   -9.01 KCAL/MOL
REMARK 924 INTRA-LIGAND FREE ENERGY PREDICTED BY IDOCK:   -1.30 KCAL/MOL
REMARK 927      BINDING AFFINITY PREDICTED BY RF-SCORE:    0.00 PKD
ROOT
HETATM    1  C   UNL     1      -9.636  12.322  66.665  1.00  0.00    -0.223 C  
HETATM    2  C   UNL     1     -10.182  11.364  65.609  1.00  0.00    -0.298 C  
HETATM    3  O   UNL     1      -7.448  13.090  67.408  1.00  0.00    -0.155 OA 
HETATM    4  C   UNL     1      -7.130   8.089  64.294  1.00  0.00    -0.078 A  
HETATM    5  N   UNL     1      -7.752  10.809  67.504  1.00  0.00    -0.103 N  
HETATM    6  C   UNL     1     -10.012   9.901  65.973  1.00  0.00    -0.338 C  
HETATM    7  C   UNL     1      -8.155  12.111  67.131  1.00  0.00    -0.175 C  
HETATM    8  C   UNL     1      -6.246   9.390  66.125  1.00  0.00    -0.067 A  
HETATM    9  C   UNL     1      -8.612   9.451  65.659  1.00  0.00    -0.159 A  
HETATM   10  C   UNL     1      -8.405   8.556  64.595  1.00  0.00    -0.156 A  
HETATM   11  C   UNL     1      -6.051   8.500  65.066  1.00  0.00    -0.052 A  
HETATM   12  C   UNL     1      -7.521   9.897  66.416  1.00  0.00    -0.101 A  
ENDROOT
BRANCH   1  13
HETATM   13  N   UNL     1      -9.759  13.718  66.179  1.00  0.00    -0.382 NA 
HETATM   14  H   UNL     1      -8.965  14.196  65.752  1.00  0.00     0.000 HD 
BRANCH  13  15
HETATM   15  C   UNL     1     -11.065  14.396  66.331  1.00  0.00    -0.326 C  
BRANCH  15  16
HETATM   16  C   UNL     1     -11.078  15.552  67.349  1.00  0.00    -0.285 C  
BRANCH  16  17
HETATM   17  C   UNL     1      -9.671  16.112  67.622  1.00  0.00    -0.233 C  
BRANCH  17  18
HETATM   18  C   UNL     1      -9.649  17.621  67.572  1.00  0.00    -0.267 A  
HETATM   19  C   UNL     1     -10.181  18.374  68.628  1.00  0.00    -0.370 A  
HETATM   20  C   UNL     1      -9.695  20.423  67.440  1.00  0.00    -0.597 A  
HETATM   21  C   UNL     1     -10.202  19.769  68.561  1.00  0.00    -0.547 A  
HETATM   22  C   UNL     1      -9.151  19.681  66.391  1.00  0.00    -0.437 A  
HETATM   23  C   UNL     1      -9.127  18.289  66.458  1.00  0.00    -0.291 A  
ENDBRANCH  17  18
ENDBRANCH  16  17
ENDBRANCH  15  16
BRANCH  15  24
HETATM   24  C   UNL     1     -11.452  14.974  64.949  1.00  0.00    -0.399 C  
HETATM   25  O   UNL     1     -10.980  15.997  64.472  1.00  0.00    -0.592 OA 
BRANCH  24  26
HETATM   26  O   UNL     1     -12.444  14.223  64.387  1.00  0.00    -0.630 OA 
BRANCH  26  27
HETATM   27  C   UNL     1     -12.022  13.314  63.357  1.00  0.00    -0.427 C  
HETATM   28  C   UNL     1     -12.783  12.006  63.485  1.00  0.00    -0.567 C  
ENDBRANCH  26  27
ENDBRANCH  24  26
ENDBRANCH  15  24
ENDBRANCH  13  15
ENDBRANCH   1  13
BRANCH   5  29
HETATM   29  C   UNL     1      -6.801  10.802  68.635  1.00  0.00    -0.060 C  
HETATM   30  C   UNL     1      -7.336  10.289  69.972  1.00  0.00    -0.149 C  
HETATM   31  O   UNL     1      -6.654  10.245  70.988  1.00  0.00    -0.337 OA 
HETATM   32  O   UNL     1      -8.635   9.919  69.982  1.00  0.00    -0.203 OA 
ENDBRANCH   5  29
TORSDOF 9
ENDMDL
MODEL       88
REMARK 921   NORMALIZED FREE ENERGY PREDICTED BY IDOCK:   -5.34 KCAL/MOL
REMARK 922        TOTAL FREE ENERGY PREDICTED BY IDOCK:  -10.30 KCAL/MOL
REMARK 923 INTER-LIGAND FREE ENERGY PREDICTED BY IDOCK:   -8.91 KCAL/MOL
REMARK 924 INTRA-LIGAND FREE ENERGY PREDICTED BY IDOCK:   -1.39 KCAL/MOL
REMARK 927      BINDING AFFINITY PREDICTED BY RF-SCORE:    0.00 PKD
ROOT
HETATM    1  C   UNL     1     -10.512   8.837  69.284  1.00  0.00    -0.219 C  
HETATM    2  C   UNL     1     -10.614   9.964  68.259  1.00  0.00    -0.269 C  
HETATM    3  O   UNL     1      -8.809   7.268  70.037  1.00  0.00    -0.141 OA 
HETATM    4  C   UNL     1      -7.520   9.622  64.783  1.00  0.00    -0.122 A  
HETATM    5  N   UNL     1      -9.277   7.173  67.784  1.00  0.00    -0.126 N  
HETATM    6  C   UNL     1     -10.715   9.473  66.826  1.00  0.00    -0.136 C  
HETATM    7  C   UNL     1      -9.392   7.763  69.063  1.00  0.00    -0.150 C  
HETATM    8  C   UNL     1      -7.423   7.672  66.203  1.00  0.00    -0.083 A  
HETATM    9  C   UNL     1      -9.350   9.121  66.305  1.00  0.00    -0.274 A  
HETATM   10  C   UNL     1      -8.766   9.933  65.317  1.00  0.00    -0.181 A  
HETATM   11  C   UNL     1      -6.852   8.485  65.221  1.00  0.00    -0.067 A  
HETATM   12  C   UNL     1      -8.663   7.994  66.776  1.00  0.00    -0.133 A  
ENDROOT
BRANCH   1  13
HETATM   13  N   UNL     1     -10.320   9.413  70.637  1.00  0.00    -0.262 NA 
HETATM   14  H   UNL     1      -9.398   9.713  70.953  1.00  0.00     0.000 HD 
BRANCH  13  15
HETATM   15  C   UNL     1     -11.505   9.540  71.514  1.00  0.00    -0.395 C  
BRANCH  15  16
HETATM   16  C   UNL     1     -12.617  10.456  70.967  1.00  0.00    -0.491 C  
BRANCH  16  17
HETATM   17  C   UNL     1     -13.280  11.300  72.070  1.00  0.00    -0.437 C  
BRANCH  17  18
HETATM   18  C   UNL     1     -13.225  12.775  71.756  1.00  0.00    -0.471 A  
HETATM   19  C   UNL     1     -14.097  13.671  72.393  1.00  0.00    -0.586 A  
HETATM   20  C   UNL     1     -13.187  15.505  71.107  1.00  0.00    -0.576 A  
HETATM   21  C   UNL     1     -14.076  15.029  72.069  1.00  0.00    -0.633 A  
HETATM   22  C   UNL     1     -12.307  14.624  70.480  1.00  0.00    -0.400 A  
HETATM   23  C   UNL     1     -12.324  13.268  70.804  1.00  0.00    -0.425 A  
ENDBRANCH  17  18
ENDBRANCH  16  17
ENDBRANCH  15  16
BRANCH  15  24
HETATM   24  C   UNL     1     -12.100   8.125  71.697  1.00  0.00    -0.304 C  
HETATM   25  O   UNL     1     -13.230   7.802  71.358  1.00  0.00    -0.322 OA 
BRANCH  24  26
HETATM   26  O   UNL     1     -11.213   7.325  72.359  1.00  0.00    -0.255 OA 
BRANCH  26  27
HETATM   27  C   UNL     1     -11.227   5.940  71.976  1.00  0.00    -0.273 C  
HETATM   28  C   UNL     1     -11.378   5.070  73.212  1.00  0.00    -0.393 C  
ENDBRANCH  26  27
ENDBRANCH  24  26
ENDBRANCH  15  24
ENDBRANCH  13  15
ENDBRANCH   1  13
BRANCH   5  29
HETATM   29  C   UNL     1      -8.907   5.743  67.841  1.00  0.00    -0.108 C  
HETATM   30  C   UNL     1      -9.821   4.772  67.095  1.00  0.00    -0.193 C  
HETATM   31  O   UNL     1      -9.633   3.563  67.075  1.00  0.00    -0.204 OA 
HETATM   32  O   UNL     1     -10.891   5.326  66.481  1.00  0.00    -0.280 OA 
ENDBRANCH   5  29
TORSDOF 9
ENDMDL
MODEL       89
REMARK 921   NORMALIZED FREE ENERGY PREDICTED BY IDOCK:   -5.33 KCAL/MOL
REMARK 922        TOTAL FREE ENERGY PREDICTED BY IDOCK:  -10.30 KCAL/MOL
REMARK 923 INTER-LIGAND FREE ENERGY PREDICTED BY IDOCK:   -8.55 KCAL/MOL
REMARK 924 INTRA-LIGAND FREE ENERGY PREDICTED BY IDOCK:   -1.75 KCAL/MOL
REMARK 927      BINDING AFFINITY PREDICTED BY RF-SCORE:    0.00 PKD
ROOT
HETATM    1  C   UNL     1      -8.898   9.429  68.089  1.00  0.00    -0.124 C  
HETATM    2  C   UNL     1      -8.704   9.881  69.534  1.00  0.00    -0.200 C  
HETATM    3  O   UNL     1     -10.694   8.477  66.749  1.00  0.00    -0.238 OA 
HETATM    4  C   UNL     1     -11.648   7.864  72.539  1.00  0.00    -0.443 A  
HETATM    5  N   UNL     1     -10.129   7.250  68.614  1.00  0.00    -0.171 N  
HETATM    6  C   UNL     1      -8.558   8.732  70.514  1.00  0.00    -0.187 C  
HETATM    7  C   UNL     1     -10.049   8.404  67.803  1.00  0.00    -0.207 C  
HETATM    8  C   UNL     1     -11.888   6.902  70.338  1.00  0.00    -0.351 A  
HETATM    9  C   UNL     1      -9.911   8.180  70.867  1.00  0.00    -0.214 A  
HETATM   10  C   UNL     1     -10.416   8.387  72.162  1.00  0.00    -0.396 A  
HETATM   11  C   UNL     1     -12.381   7.113  71.628  1.00  0.00    -0.398 A  
HETATM   12  C   UNL     1     -10.664   7.455  69.933  1.00  0.00    -0.243 A  
ENDROOT
BRANCH   1  13
HETATM   13  N   UNL     1      -9.127  10.614  67.226  1.00  0.00    -0.143 NA 
HETATM   14  H   UNL     1      -8.815  10.623  66.255  1.00  0.00     0.000 HD 
BRANCH  13  15
HETATM   15  C   UNL     1      -9.822  11.780  67.814  1.00  0.00    -0.181 C  
BRANCH  15  16
HETATM   16  C   UNL     1      -9.140  13.137  67.554  1.00  0.00    -0.205 C  
BRANCH  16  17
HETATM   17  C   UNL     1      -9.735  14.269  68.410  1.00  0.00    -0.225 C  
BRANCH  17  18
HETATM   18  C   UNL     1      -9.563  15.617  67.752  1.00  0.00    -0.209 A  
HETATM   19  C   UNL     1     -10.505  16.635  67.962  1.00  0.00    -0.320 A  
HETATM   20  C   UNL     1      -9.298  18.093  66.458  1.00  0.00    -0.301 A  
HETATM   21  C   UNL     1     -10.370  17.867  67.318  1.00  0.00    -0.374 A  
HETATM   22  C   UNL     1      -8.349  17.090  66.254  1.00  0.00    -0.308 A  
HETATM   23  C   UNL     1      -8.480  15.861  66.899  1.00  0.00    -0.275 A  
ENDBRANCH  17  18
ENDBRANCH  16  17
ENDBRANCH  15  16
BRANCH  15  24
HETATM   24  C   UNL     1     -11.240  11.834  67.199  1.00  0.00    -0.316 C  
HETATM   25  O   UNL     1     -12.270  11.587  67.813  1.00  0.00    -0.560 OA 
BRANCH  24  26
HETATM   26  O   UNL     1     -11.163  12.117  65.866  1.00  0.00    -0.312 OA 
BRANCH  26  27
HETATM   27  C   UNL     1     -12.360  12.652  65.278  1.00  0.00    -0.466 C  
HETATM   28  C   UNL     1     -12.401  14.157  65.482  1.00  0.00    -0.472 C  
ENDBRANCH  26  27
ENDBRANCH  24  26
ENDBRANCH  15  24
ENDBRANCH  13  15
ENDBRANCH   1  13
BRANCH   5  29
HETATM   29  C   UNL     1     -10.559   6.050  67.865  1.00  0.00    -0.267 C  
HETATM   30  C   UNL     1      -9.498   4.974  67.637  1.00  0.00    -0.132 C  
HETATM   31  O   UNL     1      -9.722   3.940  67.022  1.00  0.00    -0.214 OA 
HETATM   32  O   UNL     1      -8.268   5.248  68.125  1.00  0.00    -0.098 OA 
ENDBRANCH   5  29
TORSDOF 9
ENDMDL
MODEL       90
REMARK 921   NORMALIZED FREE ENERGY PREDICTED BY IDOCK:   -5.33 KCAL/MOL
REMARK 922        TOTAL FREE ENERGY PREDICTED BY IDOCK:  -10.29 KCAL/MOL
REMARK 923 INTER-LIGAND FREE ENERGY PREDICTED BY IDOCK:   -8.79 KCAL/MOL
REMARK 924 INTRA-LIGAND FREE ENERGY PREDICTED BY IDOCK:   -1.50 KCAL/MOL
REMARK 927      BINDING AFFINITY PREDICTED BY RF-SCORE:    0.00 PKD
ROOT
HETATM    1  C   UNL     1     -10.587  10.948  69.233  1.00  0.00    -0.217 C  
HETATM    2  C   UNL     1     -11.341  10.570  70.505  1.00  0.00    -0.400 C  
HETATM    3  O   UNL     1      -9.573  12.955  68.298  1.00  0.00    -0.218 OA 
HETATM    4  C   UNL     1     -13.420  14.184  72.598  1.00  0.00    -0.634 A  
HETATM    5  N   UNL     1     -11.812  13.152  68.798  1.00  0.00    -0.320 N  
HETATM    6  C   UNL     1     -12.774  11.067  70.531  1.00  0.00    -0.331 C  
HETATM    7  C   UNL     1     -10.579  12.462  68.825  1.00  0.00    -0.183 C  
HETATM    8  C   UNL     1     -12.467  14.858  70.485  1.00  0.00    -0.419 A  
HETATM    9  C   UNL     1     -12.810  12.514  70.939  1.00  0.00    -0.177 A  
HETATM   10  C   UNL     1     -13.337  12.855  72.197  1.00  0.00    -0.615 A  
HETATM   11  C   UNL     1     -12.992  15.187  71.737  1.00  0.00    -0.449 A  
HETATM   12  C   UNL     1     -12.343  13.519  70.083  1.00  0.00    -0.275 A  
ENDROOT
BRANCH   1  13
HETATM   13  N   UNL     1      -9.176  10.506  69.342  1.00  0.00    -0.364 NA 
HETATM   14  H   UNL     1      -8.438  11.163  69.596  1.00  0.00     0.000 HD 
BRANCH  13  15
HETATM   15  C   UNL     1      -8.870   9.083  69.072  1.00  0.00    -0.136 C  
BRANCH  15  16
HETATM   16  C   UNL     1      -9.372   8.562  67.712  1.00  0.00    -0.153 C  
BRANCH  16  17
HETATM   17  C   UNL     1     -10.623   7.675  67.847  1.00  0.00    -0.233 C  
BRANCH  17  18
HETATM   18  C   UNL     1     -10.504   6.710  69.001  1.00  0.00    -0.243 A  
HETATM   19  C   UNL     1      -9.709   5.560  68.886  1.00  0.00    -0.193 A  
HETATM   20  C   UNL     1     -10.353   4.867  71.111  1.00  0.00    -0.222 A  
HETATM   21  C   UNL     1      -9.634   4.645  69.939  1.00  0.00    -0.261 A  
HETATM   22  C   UNL     1     -11.135   6.015  71.239  1.00  0.00    -0.337 A  
HETATM   23  C   UNL     1     -11.208   6.932  70.191  1.00  0.00    -0.361 A  
ENDBRANCH  17  18
ENDBRANCH  16  17
ENDBRANCH  15  16
BRANCH  15  24
HETATM   24  C   UNL     1      -7.331   8.926  69.104  1.00  0.00    -0.072 C  
HETATM   25  O   UNL     1      -6.749   7.861  69.257  1.00  0.00    -0.042 OA 
BRANCH  24  26
HETATM   26  O   UNL     1      -6.733  10.150  69.017  1.00  0.00    -0.051 OA 
BRANCH  26  27
HETATM   27  C   UNL     1      -5.704  10.264  68.020  1.00  0.00    -0.041 C  
HETATM   28  C   UNL     1      -6.313  10.729  66.709  1.00  0.00    -0.088 C  
ENDBRANCH  26  27
ENDBRANCH  24  26
ENDBRANCH  15  24
ENDBRANCH  13  15
ENDBRANCH   1  13
BRANCH   5  29
HETATM   29  C   UNL     1     -11.897  14.136  67.699  1.00  0.00    -0.392 C  
HETATM   30  C   UNL     1     -12.201  13.581  66.309  1.00  0.00    -0.416 C  
HETATM   31  O   UNL     1     -12.285  14.288  65.314  1.00  0.00    -0.395 OA 
HETATM   32  O   UNL     1     -12.335  12.238  66.229  1.00  0.00    -0.556 OA 
ENDBRANCH   5  29
TORSDOF 9
ENDMDL
MODEL       91
REMARK 921   NORMALIZED FREE ENERGY PREDICTED BY IDOCK:   -5.28 KCAL/MOL
REMARK 922        TOTAL FREE ENERGY PREDICTED BY IDOCK:  -10.22 KCAL/MOL
REMARK 923 INTER-LIGAND FREE ENERGY PREDICTED BY IDOCK:   -8.28 KCAL/MOL
REMARK 924 INTRA-LIGAND FREE ENERGY PREDICTED BY IDOCK:   -1.94 KCAL/MOL
REMARK 927      BINDING AFFINITY PREDICTED BY RF-SCORE:    0.00 PKD
ROOT
HETATM    1  C   UNL     1     -10.986  10.216  68.742  1.00  0.00    -0.223 C  
HETATM    2  C   UNL     1     -10.863  11.068  67.482  1.00  0.00    -0.314 C  
HETATM    3  O   UNL     1      -9.486   8.971  70.201  1.00  0.00    -0.171 OA 
HETATM    4  C   UNL     1      -7.055  10.133  64.952  1.00  0.00    -0.131 A  
HETATM    5  N   UNL     1      -9.427   8.333  67.989  1.00  0.00    -0.139 N  
HETATM    6  C   UNL     1     -10.631  10.257  66.221  1.00  0.00    -0.150 C  
HETATM    7  C   UNL     1      -9.836   9.192  69.034  1.00  0.00    -0.174 C  
HETATM    8  C   UNL     1      -7.267   8.571  66.781  1.00  0.00    -0.075 A  
HETATM    9  C   UNL     1      -9.179   9.881  66.110  1.00  0.00    -0.211 A  
HETATM   10  C   UNL     1      -8.393  10.480  65.110  1.00  0.00    -0.150 A  
HETATM   11  C   UNL     1      -6.494   9.172  65.784  1.00  0.00    -0.064 A  
HETATM   12  C   UNL     1      -8.607   8.938  66.975  1.00  0.00    -0.116 A  
ENDROOT
BRANCH   1  13
HETATM   13  N   UNL     1     -11.113  11.098  69.927  1.00  0.00    -0.446 NA 
HETATM   14  H   UNL     1     -10.287  11.461  70.401  1.00  0.00     0.000 HD 
BRANCH  13  15
HETATM   15  C   UNL     1     -12.474  11.435  70.401  1.00  0.00    -0.261 C  
BRANCH  15  16
HETATM   16  C   UNL     1     -12.901  10.720  71.698  1.00  0.00    -0.562 C  
BRANCH  16  17
HETATM   17  C   UNL     1     -13.466   9.313  71.435  1.00  0.00    -0.384 C  
BRANCH  17  18
HETATM   18  C   UNL     1     -12.460   8.236  71.757  1.00  0.00    -0.367 A  
HETATM   19  C   UNL     1     -12.431   7.046  71.015  1.00  0.00    -0.373 A  
HETATM   20  C   UNL     1     -10.651   6.193  72.411  1.00  0.00    -0.243 A  
HETATM   21  C   UNL     1     -11.529   6.030  71.342  1.00  0.00    -0.265 A  
HETATM   22  C   UNL     1     -10.663   7.379  73.145  1.00  0.00    -0.436 A  
HETATM   23  C   UNL     1     -11.561   8.395  72.819  1.00  0.00    -0.244 A  
ENDBRANCH  17  18
ENDBRANCH  16  17
ENDBRANCH  15  16
BRANCH  15  24
HETATM   24  C   UNL     1     -12.509  12.959  70.664  1.00  0.00    -0.252 C  
HETATM   25  O   UNL     1     -12.047  13.802  69.907  1.00  0.00    -0.317 OA 
BRANCH  24  26
HETATM   26  O   UNL     1     -13.054  13.211  71.890  1.00  0.00    -0.392 OA 
BRANCH  26  27
HETATM   27  C   UNL     1     -13.757  14.459  72.008  1.00  0.00    -0.442 C  
HETATM   28  C   UNL     1     -13.120  15.304  73.098  1.00  0.00    -0.627 C  
ENDBRANCH  26  27
ENDBRANCH  24  26
ENDBRANCH  15  24
ENDBRANCH  13  15
ENDBRANCH   1  13
BRANCH   5  29
HETATM   29  C   UNL     1      -9.067   6.980  68.464  1.00  0.00    -0.131 C  
HETATM   30  C   UNL     1      -9.996   5.841  68.045  1.00  0.00    -0.144 C  
HETATM   31  O   UNL     1      -9.816   4.678  68.383  1.00  0.00    -0.149 OA 
HETATM   32  O   UNL     1     -11.067   6.199  67.303  1.00  0.00    -0.333 OA 
ENDBRANCH   5  29
TORSDOF 9
ENDMDL
MODEL       92
REMARK 921   NORMALIZED FREE ENERGY PREDICTED BY IDOCK:   -5.28 KCAL/MOL
REMARK 922        TOTAL FREE ENERGY PREDICTED BY IDOCK:  -10.21 KCAL/MOL
REMARK 923 INTER-LIGAND FREE ENERGY PREDICTED BY IDOCK:   -8.59 KCAL/MOL
REMARK 924 INTRA-LIGAND FREE ENERGY PREDICTED BY IDOCK:   -1.62 KCAL/MOL
REMARK 927      BINDING AFFINITY PREDICTED BY RF-SCORE:    0.00 PKD
ROOT
HETATM    1  C   UNL     1     -10.952  11.911  68.003  1.00  0.00    -0.224 C  
HETATM    2  C   UNL     1     -11.241  12.731  69.258  1.00  0.00    -0.252 C  
HETATM    3  O   UNL     1      -9.571  12.136  66.011  1.00  0.00    -0.238 OA 
HETATM    4  C   UNL     1     -10.427  17.296  68.741  1.00  0.00    -0.340 A  
HETATM    5  N   UNL     1     -11.077  13.847  66.337  1.00  0.00    -0.306 N  
HETATM    6  C   UNL     1     -12.147  13.923  69.007  1.00  0.00    -0.365 C  
HETATM    7  C   UNL     1     -10.401  12.678  66.753  1.00  0.00    -0.235 C  
HETATM    8  C   UNL     1     -10.164  16.141  66.637  1.00  0.00    -0.291 A  
HETATM    9  C   UNL     1     -11.349  15.066  68.443  1.00  0.00    -0.323 A  
HETATM   10  C   UNL     1     -11.129  16.203  69.238  1.00  0.00    -0.327 A  
HETATM   11  C   UNL     1      -9.951  17.267  67.436  1.00  0.00    -0.278 A  
HETATM   12  C   UNL     1     -10.839  15.018  67.139  1.00  0.00    -0.314 A  
ENDROOT
BRANCH   1  13
HETATM   13  N   UNL     1      -9.987  10.832  68.328  1.00  0.00    -0.163 NA 
HETATM   14  H   UNL     1      -9.061  10.810  67.901  1.00  0.00     0.000 HD 
BRANCH  13  15
HETATM   15  C   UNL     1     -10.408   9.788  69.289  1.00  0.00    -0.215 C  
BRANCH  15  16
HETATM   16  C   UNL     1     -10.602   8.387  68.677  1.00  0.00    -0.149 C  
BRANCH  16  17
HETATM   17  C   UNL     1     -10.470   8.392  67.143  1.00  0.00    -0.380 C  
BRANCH  17  18
HETATM   18  C   UNL     1      -9.893   7.096  66.627  1.00  0.00    -0.237 A  
HETATM   19  C   UNL     1     -10.610   5.897  66.759  1.00  0.00    -0.368 A  
HETATM   20  C   UNL     1      -8.785   4.671  65.753  1.00  0.00    -0.124 A  
HETATM   21  C   UNL     1     -10.056   4.691  66.322  1.00  0.00    -0.292 A  
HETATM   22  C   UNL     1      -8.071   5.861  65.606  1.00  0.00    -0.124 A  
HETATM   23  C   UNL     1      -8.623   7.066  66.039  1.00  0.00    -0.154 A  
ENDBRANCH  17  18
ENDBRANCH  16  17
ENDBRANCH  15  16
BRANCH  15  24
HETATM   24  C   UNL     1      -9.309   9.686  70.373  1.00  0.00    -0.211 C  
HETATM   25  O   UNL     1      -9.500   9.289  71.515  1.00  0.00    -0.266 OA 
BRANCH  24  26
HETATM   26  O   UNL     1      -8.129  10.175  69.892  1.00  0.00    -0.174 OA 
BRANCH  26  27
HETATM   27  C   UNL     1      -6.980   9.339  70.112  1.00  0.00    -0.067 C  
HETATM   28  C   UNL     1      -6.842   8.350  68.968  1.00  0.00    -0.056 C  
ENDBRANCH  26  27
ENDBRANCH  24  26
ENDBRANCH  15  24
ENDBRANCH  13  15
ENDBRANCH   1  13
BRANCH   5  29
HETATM   29  C   UNL     1     -11.111  14.002  64.868  1.00  0.00    -0.375 C  
HETATM   30  C   UNL     1     -12.328  13.421  64.150  1.00  0.00    -0.333 C  
HETATM   31  O   UNL     1     -12.470  13.471  62.935  1.00  0.00    -0.601 OA 
HETATM   32  O   UNL     1     -13.236  12.803  64.938  1.00  0.00    -0.808 OA 
ENDBRANCH   5  29
TORSDOF 9
ENDMDL
MODEL       93
REMARK 921   NORMALIZED FREE ENERGY PREDICTED BY IDOCK:   -5.21 KCAL/MOL
REMARK 922        TOTAL FREE ENERGY PREDICTED BY IDOCK:  -10.11 KCAL/MOL
REMARK 923 INTER-LIGAND FREE ENERGY PREDICTED BY IDOCK:   -8.61 KCAL/MOL
REMARK 924 INTRA-LIGAND FREE ENERGY PREDICTED BY IDOCK:   -1.51 KCAL/MOL
REMARK 927      BINDING AFFINITY PREDICTED BY RF-SCORE:    0.00 PKD
ROOT
HETATM    1  C   UNL     1     -10.644   9.725  68.569  1.00  0.00    -0.221 C  
HETATM    2  C   UNL     1     -10.325   9.322  67.132  1.00  0.00    -0.330 C  
HETATM    3  O   UNL     1      -9.574   9.536  70.748  1.00  0.00    -0.259 OA 
HETATM    4  C   UNL     1      -7.312   5.774  66.806  1.00  0.00    -0.079 A  
HETATM    5  N   UNL     1      -9.921   7.532  69.668  1.00  0.00    -0.181 N  
HETATM    6  C   UNL     1     -10.497   7.838  66.866  1.00  0.00    -0.388 C  
HETATM    7  C   UNL     1      -9.914   8.944  69.715  1.00  0.00    -0.191 C  
HETATM    8  C   UNL     1      -7.920   6.165  69.109  1.00  0.00    -0.108 A  
HETATM    9  C   UNL     1      -9.288   7.085  67.347  1.00  0.00    -0.141 A  
HETATM   10  C   UNL     1      -8.422   6.509  66.401  1.00  0.00    -0.124 A  
HETATM   11  C   UNL     1      -7.066   5.596  68.161  1.00  0.00    -0.071 A  
HETATM   12  C   UNL     1      -9.022   6.938  68.715  1.00  0.00    -0.130 A  
ENDROOT
BRANCH   1  13
HETATM   13  N   UNL     1     -10.354  11.168  68.755  1.00  0.00    -0.199 NA 
HETATM   14  H   UNL     1      -9.631  11.478  69.403  1.00  0.00     0.000 HD 
BRANCH  13  15
HETATM   15  C   UNL     1     -11.145  12.143  67.972  1.00  0.00    -0.244 C  
BRANCH  15  16
HETATM   16  C   UNL     1     -11.995  13.112  68.818  1.00  0.00    -0.316 C  
BRANCH  16  17
HETATM   17  C   UNL     1     -12.115  12.662  70.285  1.00  0.00    -0.372 C  
BRANCH  17  18
HETATM   18  C   UNL     1     -12.420  13.821  71.203  1.00  0.00    -0.450 A  
HETATM   19  C   UNL     1     -13.589  13.824  71.979  1.00  0.00    -0.569 A  
HETATM   20  C   UNL     1     -13.038  16.015  72.839  1.00  0.00    -0.548 A  
HETATM   21  C   UNL     1     -13.893  14.917  72.794  1.00  0.00    -0.435 A  
HETATM   22  C   UNL     1     -11.867  16.015  72.080  1.00  0.00    -0.623 A  
HETATM   23  C   UNL     1     -11.559  14.923  71.269  1.00  0.00    -0.359 A  
ENDBRANCH  17  18
ENDBRANCH  16  17
ENDBRANCH  15  16
BRANCH  15  24
HETATM   24  C   UNL     1     -10.151  12.985  67.139  1.00  0.00    -0.244 C  
HETATM   25  O   UNL     1      -9.604  12.596  66.116  1.00  0.00    -0.253 OA 
BRANCH  24  26
HETATM   26  O   UNL     1      -9.918  14.181  67.754  1.00  0.00    -0.228 OA 
BRANCH  26  27
HETATM   27  C   UNL     1      -8.548  14.438  68.106  1.00  0.00    -0.166 C  
HETATM   28  C   UNL     1      -8.491  15.473  69.216  1.00  0.00    -0.265 C  
ENDBRANCH  26  27
ENDBRANCH  24  26
ENDBRANCH  15  24
ENDBRANCH  13  15
ENDBRANCH   1  13
BRANCH   5  29
HETATM   29  C   UNL     1     -10.029   6.912  71.006  1.00  0.00    -0.188 C  
HETATM   30  C   UNL     1     -11.413   6.407  71.413  1.00  0.00    -0.308 C  
HETATM   31  O   UNL     1     -11.638   5.887  72.498  1.00  0.00    -0.302 OA 
HETATM   32  O   UNL     1     -12.400   6.606  70.511  1.00  0.00    -0.314 OA 
ENDBRANCH   5  29
TORSDOF 9
ENDMDL
MODEL       94
REMARK 921   NORMALIZED FREE ENERGY PREDICTED BY IDOCK:   -5.21 KCAL/MOL
REMARK 922        TOTAL FREE ENERGY PREDICTED BY IDOCK:  -10.11 KCAL/MOL
REMARK 923 INTER-LIGAND FREE ENERGY PREDICTED BY IDOCK:   -8.92 KCAL/MOL
REMARK 924 INTRA-LIGAND FREE ENERGY PREDICTED BY IDOCK:   -1.19 KCAL/MOL
REMARK 927      BINDING AFFINITY PREDICTED BY RF-SCORE:    0.00 PKD
ROOT
HETATM    1  C   UNL     1     -11.070   7.959  71.061  1.00  0.00    -0.250 C  
HETATM    2  C   UNL     1     -11.639   7.519  72.407  1.00  0.00    -0.356 C  
HETATM    3  O   UNL     1     -10.392   6.888  68.982  1.00  0.00    -0.177 OA 
HETATM    4  C   UNL     1     -10.723   3.068  73.465  1.00  0.00    -0.297 A  
HETATM    5  N   UNL     1      -9.306   6.117  70.860  1.00  0.00    -0.157 N  
HETATM    6  C   UNL     1     -10.616   6.859  73.312  1.00  0.00    -0.353 C  
HETATM    7  C   UNL     1     -10.304   6.883  70.217  1.00  0.00    -0.199 C  
HETATM    8  C   UNL     1      -9.578   3.714  71.440  1.00  0.00    -0.237 A  
HETATM    9  C   UNL     1     -10.432   5.419  72.918  1.00  0.00    -0.250 A  
HETATM   10  C   UNL     1     -10.905   4.411  73.776  1.00  0.00    -0.362 A  
HETATM   11  C   UNL     1     -10.052   2.720  72.300  1.00  0.00    -0.225 A  
HETATM   12  C   UNL     1      -9.787   5.072  71.724  1.00  0.00    -0.177 A  
ENDROOT
BRANCH   1  13
HETATM   13  N   UNL     1     -12.160   8.501  70.214  1.00  0.00    -0.327 NA 
HETATM   14  H   UNL     1     -12.823   7.879  69.751  1.00  0.00     0.000 HD 
BRANCH  13  15
HETATM   15  C   UNL     1     -12.259   9.969  70.062  1.00  0.00     0.028 C  
BRANCH  15  16
HETATM   16  C   UNL     1     -12.039  10.769  71.360  1.00  0.00    -0.297 C  
BRANCH  16  17
HETATM   17  C   UNL     1     -13.312  11.501  71.824  1.00  0.00    -0.356 C  
BRANCH  17  18
HETATM   18  C   UNL     1     -13.195  12.995  71.645  1.00  0.00    -0.426 A  
HETATM   19  C   UNL     1     -12.201  13.536  70.817  1.00  0.00    -0.417 A  
HETATM   20  C   UNL     1     -12.916  15.775  71.384  1.00  0.00    -0.478 A  
HETATM   21  C   UNL     1     -12.065  14.920  70.687  1.00  0.00    -0.366 A  
HETATM   22  C   UNL     1     -13.916  15.245  72.200  1.00  0.00    -0.650 A  
HETATM   23  C   UNL     1     -14.056  13.863  72.328  1.00  0.00    -0.632 A  
ENDBRANCH  17  18
ENDBRANCH  16  17
ENDBRANCH  15  16
BRANCH  15  24
HETATM   24  C   UNL     1     -11.177  10.404  69.045  1.00  0.00    -0.234 C  
HETATM   25  O   UNL     1      -9.981  10.469  69.295  1.00  0.00    -0.212 OA 
BRANCH  24  26
HETATM   26  O   UNL     1     -11.761  10.775  67.868  1.00  0.00    -0.543 OA 
BRANCH  26  27
HETATM   27  C   UNL     1     -10.889  11.414  66.921  1.00  0.00    -0.285 C  
HETATM   28  C   UNL     1     -11.613  12.575  66.263  1.00  0.00    -0.449 C  
ENDBRANCH  26  27
ENDBRANCH  24  26
ENDBRANCH  15  24
ENDBRANCH  13  15
ENDBRANCH   1  13
BRANCH   5  29
HETATM   29  C   UNL     1      -8.152   5.824  69.985  1.00  0.00    -0.108 C  
HETATM   30  C   UNL     1      -6.772   6.192  70.530  1.00  0.00    -0.053 C  
HETATM   31  O   UNL     1      -5.739   6.013  69.899  1.00  0.00    -0.015 OA 
HETATM   32  O   UNL     1      -6.759   6.773  71.750  1.00  0.00    -0.056 OA 
ENDBRANCH   5  29
TORSDOF 9
ENDMDL
MODEL       95
REMARK 921   NORMALIZED FREE ENERGY PREDICTED BY IDOCK:   -5.20 KCAL/MOL
REMARK 922        TOTAL FREE ENERGY PREDICTED BY IDOCK:  -10.10 KCAL/MOL
REMARK 923 INTER-LIGAND FREE ENERGY PREDICTED BY IDOCK:   -8.18 KCAL/MOL
REMARK 924 INTRA-LIGAND FREE ENERGY PREDICTED BY IDOCK:   -1.92 KCAL/MOL
REMARK 927      BINDING AFFINITY PREDICTED BY RF-SCORE:    0.00 PKD
ROOT
HETATM    1  C   UNL     1     -10.746  11.560  67.782  1.00  0.00    -0.207 C  
HETATM    2  C   UNL     1     -11.054  12.287  69.088  1.00  0.00    -0.261 C  
HETATM    3  O   UNL     1      -9.424  11.983  65.781  1.00  0.00    -0.236 OA 
HETATM    4  C   UNL     1     -10.516  16.914  68.830  1.00  0.00    -0.343 A  
HETATM    5  N   UNL     1     -11.019  13.580  66.237  1.00  0.00    -0.288 N  
HETATM    6  C   UNL     1     -12.032  13.436  68.926  1.00  0.00    -0.362 C  
HETATM    7  C   UNL     1     -10.268  12.430  66.569  1.00  0.00    -0.227 C  
HETATM    8  C   UNL     1     -10.233  15.902  66.656  1.00  0.00    -0.293 A  
HETATM    9  C   UNL     1     -11.314  14.655  68.416  1.00  0.00    -0.312 A  
HETATM   10  C   UNL     1     -11.143  15.755  69.274  1.00  0.00    -0.297 A  
HETATM   11  C   UNL     1     -10.068  16.990  67.517  1.00  0.00    -0.294 A  
HETATM   12  C   UNL     1     -10.831  14.714  67.102  1.00  0.00    -0.303 A  
ENDROOT
BRANCH   1  13
HETATM   13  N   UNL     1      -9.713  10.523  68.024  1.00  0.00    -0.146 NA 
HETATM   14  H   UNL     1      -9.266  10.037  67.246  1.00  0.00     0.000 HD 
BRANCH  13  15
HETATM   15  C   UNL     1      -9.352  10.213  69.425  1.00  0.00    -0.219 C  
BRANCH  15  16
HETATM   16  C   UNL     1      -9.531   8.736  69.826  1.00  0.00    -0.168 C  
BRANCH  16  17
HETATM   17  C   UNL     1      -8.481   7.818  69.175  1.00  0.00    -0.138 C  
BRANCH  17  18
HETATM   18  C   UNL     1      -9.112   6.838  68.216  1.00  0.00    -0.124 A  
HETATM   19  C   UNL     1      -8.351   5.798  67.660  1.00  0.00    -0.104 A  
HETATM   20  C   UNL     1     -10.257   5.070  66.363  1.00  0.00    -0.307 A  
HETATM   21  C   UNL     1      -8.924   4.919  66.738  1.00  0.00    -0.110 A  
HETATM   22  C   UNL     1     -11.024   6.092  66.922  1.00  0.00    -0.384 A  
HETATM   23  C   UNL     1     -10.455   6.969  67.844  1.00  0.00    -0.267 A  
ENDBRANCH  17  18
ENDBRANCH  16  17
ENDBRANCH  15  16
BRANCH  15  24
HETATM   24  C   UNL     1      -7.861  10.581  69.612  1.00  0.00    -0.086 C  
HETATM   25  O   UNL     1      -7.215  10.351  70.625  1.00  0.00    -0.259 OA 
BRANCH  24  26
HETATM   26  O   UNL     1      -7.406  11.264  68.520  1.00  0.00    -0.092 OA 
BRANCH  26  27
HETATM   27  C   UNL     1      -6.689  12.476  68.806  1.00  0.00    -0.093 C  
HETATM   28  C   UNL     1      -7.596  13.672  68.577  1.00  0.00    -0.130 C  
ENDBRANCH  26  27
ENDBRANCH  24  26
ENDBRANCH  15  24
ENDBRANCH  13  15
ENDBRANCH   1  13
BRANCH   5  29
HETATM   29  C   UNL     1     -11.094  13.818  64.780  1.00  0.00    -0.377 C  
HETATM   30  C   UNL     1     -12.366  13.346  64.078  1.00  0.00    -0.337 C  
HETATM   31  O   UNL     1     -12.546  13.471  62.874  1.00  0.00    -0.607 OA 
HETATM   32  O   UNL     1     -13.280  12.735  64.864  1.00  0.00    -0.808 OA 
ENDBRANCH   5  29
TORSDOF 9
ENDMDL
MODEL       96
REMARK 921   NORMALIZED FREE ENERGY PREDICTED BY IDOCK:   -5.19 KCAL/MOL
REMARK 922        TOTAL FREE ENERGY PREDICTED BY IDOCK:  -10.08 KCAL/MOL
REMARK 923 INTER-LIGAND FREE ENERGY PREDICTED BY IDOCK:   -8.99 KCAL/MOL
REMARK 924 INTRA-LIGAND FREE ENERGY PREDICTED BY IDOCK:   -1.09 KCAL/MOL
REMARK 927      BINDING AFFINITY PREDICTED BY RF-SCORE:    0.00 PKD
ROOT
HETATM    1  C   UNL     1     -10.556   8.384  70.441  1.00  0.00    -0.223 C  
HETATM    2  C   UNL     1      -9.985   8.706  71.820  1.00  0.00    -0.371 C  
HETATM    3  O   UNL     1     -11.820   6.572  69.418  1.00  0.00    -0.209 OA 
HETATM    4  C   UNL     1      -9.240   4.935  74.466  1.00  0.00    -0.120 A  
HETATM    5  N   UNL     1      -9.823   5.934  70.372  1.00  0.00    -0.176 N  
HETATM    6  C   UNL     1      -8.739   7.910  72.162  1.00  0.00    -0.189 C  
HETATM    7  C   UNL     1     -10.842   6.878  70.114  1.00  0.00    -0.263 C  
HETATM    8  C   UNL     1      -9.914   4.292  72.238  1.00  0.00    -0.236 A  
HETATM    9  C   UNL     1      -9.121   6.535  72.638  1.00  0.00    -0.134 A  
HETATM   10  C   UNL     1      -8.933   6.206  73.992  1.00  0.00    -0.132 A  
HETATM   11  C   UNL     1      -9.723   3.975  73.585  1.00  0.00    -0.141 A  
HETATM   12  C   UNL     1      -9.642   5.581  71.755  1.00  0.00    -0.151 A  
ENDROOT
BRANCH   1  13
HETATM   13  N   UNL     1     -11.818   9.135  70.240  1.00  0.00    -0.468 NA 
HETATM   14  H   UNL     1     -12.699   8.647  70.074  1.00  0.00     0.000 HD 
BRANCH  13  15
HETATM   15  C   UNL     1     -11.764  10.613  70.285  1.00  0.00    -0.344 C  
BRANCH  15  16
HETATM   16  C   UNL     1     -12.250  11.317  69.003  1.00  0.00    -0.211 C  
BRANCH  16  17
HETATM   17  C   UNL     1     -11.207  12.298  68.438  1.00  0.00    -0.311 C  
BRANCH  17  18
HETATM   18  C   UNL     1     -11.537  12.714  67.026  1.00  0.00    -0.431 A  
HETATM   19  C   UNL     1     -12.129  13.960  66.772  1.00  0.00    -0.476 A  
HETATM   20  C   UNL     1     -12.237  13.452  64.410  1.00  0.00    -0.444 A  
HETATM   21  C   UNL     1     -12.475  14.326  65.469  1.00  0.00    -0.434 A  
HETATM   22  C   UNL     1     -11.636  12.216  64.653  1.00  0.00    -0.392 A  
HETATM   23  C   UNL     1     -11.287  11.851  65.952  1.00  0.00    -0.365 A  
ENDBRANCH  17  18
ENDBRANCH  16  17
ENDBRANCH  15  16
BRANCH  15  24
HETATM   24  C   UNL     1     -12.667  11.075  71.453  1.00  0.00    -0.429 C  
HETATM   25  O   UNL     1     -13.272  10.318  72.200  1.00  0.00    -0.452 OA 
BRANCH  24  26
HETATM   26  O   UNL     1     -12.748  12.438  71.473  1.00  0.00    -0.323 OA 
BRANCH  26  27
HETATM   27  C   UNL     1     -13.722  12.985  72.378  1.00  0.00    -0.494 C  
HETATM   28  C   UNL     1     -13.303  14.383  72.794  1.00  0.00    -0.606 C  
ENDBRANCH  26  27
ENDBRANCH  24  26
ENDBRANCH  15  24
ENDBRANCH  13  15
ENDBRANCH   1  13
BRANCH   5  29
HETATM   29  C   UNL     1      -9.768   4.856  69.363  1.00  0.00    -0.191 C  
HETATM   30  C   UNL     1      -8.512   4.798  68.496  1.00  0.00    -0.093 C  
HETATM   31  O   UNL     1      -8.348   3.963  67.616  1.00  0.00    -0.093 OA 
HETATM   32  O   UNL     1      -7.592   5.761  68.729  1.00  0.00    -0.086 OA 
ENDBRANCH   5  29
TORSDOF 9
ENDMDL
MODEL       97
REMARK 921   NORMALIZED FREE ENERGY PREDICTED BY IDOCK:   -5.16 KCAL/MOL
REMARK 922        TOTAL FREE ENERGY PREDICTED BY IDOCK:  -10.03 KCAL/MOL
REMARK 923 INTER-LIGAND FREE ENERGY PREDICTED BY IDOCK:   -8.63 KCAL/MOL
REMARK 924 INTRA-LIGAND FREE ENERGY PREDICTED BY IDOCK:   -1.40 KCAL/MOL
REMARK 927      BINDING AFFINITY PREDICTED BY RF-SCORE:    0.00 PKD
ROOT
HETATM    1  C   UNL     1     -10.031   8.066  68.869  1.00  0.00    -0.195 C  
HETATM    2  C   UNL     1      -9.715   6.580  68.716  1.00  0.00    -0.131 C  
HETATM    3  O   UNL     1      -9.961   9.725  70.650  1.00  0.00    -0.262 OA 
HETATM    4  C   UNL     1      -9.904   4.203  72.727  1.00  0.00    -0.197 A  
HETATM    5  N   UNL     1     -11.273   7.886  71.098  1.00  0.00    -0.256 N  
HETATM    6  C   UNL     1     -10.762   5.672  69.333  1.00  0.00    -0.365 C  
HETATM    7  C   UNL     1     -10.333   8.593  70.314  1.00  0.00    -0.198 C  
HETATM    8  C   UNL     1     -10.648   6.477  73.050  1.00  0.00    -0.276 A  
HETATM    9  C   UNL     1     -10.543   5.567  70.818  1.00  0.00    -0.320 A  
HETATM   10  C   UNL     1     -10.086   4.352  71.356  1.00  0.00    -0.210 A  
HETATM   11  C   UNL     1     -10.194   5.264  73.575  1.00  0.00    -0.229 A  
HETATM   12  C   UNL     1     -10.801   6.652  71.666  1.00  0.00    -0.234 A  
ENDROOT
BRANCH   1  13
HETATM   13  N   UNL     1      -8.909   8.869  68.324  1.00  0.00    -0.134 NA 
HETATM   14  H   UNL     1      -8.004   8.892  68.794  1.00  0.00     0.000 HD 
BRANCH  13  15
HETATM   15  C   UNL     1      -9.143   9.637  67.081  1.00  0.00    -0.134 C  
BRANCH  15  16
HETATM   16  C   UNL     1      -9.665  11.071  67.296  1.00  0.00    -0.188 C  
BRANCH  16  17
HETATM   17  C   UNL     1     -11.191  11.174  67.121  1.00  0.00    -0.320 C  
BRANCH  17  18
HETATM   18  C   UNL     1     -11.564  12.124  66.009  1.00  0.00    -0.420 A  
HETATM   19  C   UNL     1     -11.363  11.763  64.669  1.00  0.00    -0.320 A  
HETATM   20  C   UNL     1     -12.169  13.923  63.943  1.00  0.00    -0.375 A  
HETATM   21  C   UNL     1     -11.666  12.660  63.642  1.00  0.00    -0.597 A  
HETATM   22  C   UNL     1     -12.384  14.286  65.273  1.00  0.00    -0.427 A  
HETATM   23  C   UNL     1     -12.085  13.391  66.299  1.00  0.00    -0.475 A  
ENDBRANCH  17  18
ENDBRANCH  16  17
ENDBRANCH  15  16
BRANCH  15  24
HETATM   24  C   UNL     1      -7.792   9.729  66.332  1.00  0.00    -0.106 C  
HETATM   25  O   UNL     1      -6.737   9.275  66.753  1.00  0.00    -0.074 OA 
BRANCH  24  26
HETATM   26  O   UNL     1      -7.940  10.453  65.184  1.00  0.00    -0.150 OA 
BRANCH  26  27
HETATM   27  C   UNL     1      -8.323   9.698  64.023  1.00  0.00    -0.171 C  
HETATM   28  C   UNL     1      -8.587  10.642  62.864  1.00  0.00    -0.208 C  
ENDBRANCH  26  27
ENDBRANCH  24  26
ENDBRANCH  15  24
ENDBRANCH  13  15
ENDBRANCH   1  13
BRANCH   5  29
HETATM   29  C   UNL     1     -12.100   8.772  71.943  1.00  0.00    -0.363 C  
HETATM   30  C   UNL     1     -13.589   8.439  72.025  1.00  0.00    -0.357 C  
HETATM   31  O   UNL     1     -14.384   9.102  72.679  1.00  0.00    -0.561 OA 
HETATM   32  O   UNL     1     -13.996   7.380  71.291  1.00  0.00    -0.376 OA 
ENDBRANCH   5  29
TORSDOF 9
ENDMDL
MODEL       98
REMARK 921   NORMALIZED FREE ENERGY PREDICTED BY IDOCK:   -5.15 KCAL/MOL
REMARK 922        TOTAL FREE ENERGY PREDICTED BY IDOCK:  -10.01 KCAL/MOL
REMARK 923 INTER-LIGAND FREE ENERGY PREDICTED BY IDOCK:   -8.68 KCAL/MOL
REMARK 924 INTRA-LIGAND FREE ENERGY PREDICTED BY IDOCK:   -1.33 KCAL/MOL
REMARK 927      BINDING AFFINITY PREDICTED BY RF-SCORE:    0.00 PKD
ROOT
HETATM    1  C   UNL     1     -10.738  11.268  69.552  1.00  0.00    -0.095 C  
HETATM    2  C   UNL     1     -11.711  10.467  70.414  1.00  0.00    -0.434 C  
HETATM    3  O   UNL     1      -9.498  10.925  67.485  1.00  0.00    -0.154 OA 
HETATM    4  C   UNL     1     -11.340   5.849  69.862  1.00  0.00    -0.201 A  
HETATM    5  N   UNL     1      -9.072   9.373  69.132  1.00  0.00    -0.143 N  
HETATM    6  C   UNL     1     -11.041   9.377  71.230  1.00  0.00    -0.446 C  
HETATM    7  C   UNL     1      -9.794  10.462  68.595  1.00  0.00    -0.177 C  
HETATM    8  C   UNL     1      -9.604   6.995  68.636  1.00  0.00    -0.138 A  
HETATM    9  C   UNL     1     -10.802   8.165  70.372  1.00  0.00    -0.237 A  
HETATM   10  C   UNL     1     -11.555   7.002  70.610  1.00  0.00    -0.379 A  
HETATM   11  C   UNL     1     -10.357   5.843  68.879  1.00  0.00    -0.290 A  
HETATM   12  C   UNL     1      -9.836   8.175  69.358  1.00  0.00    -0.182 A  
ENDROOT
BRANCH   1  13
HETATM   13  N   UNL     1     -11.494  12.239  68.723  1.00  0.00    -0.285 NA 
HETATM   14  H   UNL     1     -12.221  11.925  68.080  1.00  0.00     0.000 HD 
BRANCH  13  15
HETATM   15  C   UNL     1     -11.163  13.674  68.857  1.00  0.00    -0.270 C  
BRANCH  15  16
HETATM   16  C   UNL     1     -11.223  14.476  67.542  1.00  0.00    -0.333 C  
BRANCH  16  17
HETATM   17  C   UNL     1     -12.365  14.010  66.620  1.00  0.00    -0.408 C  
BRANCH  17  18
HETATM   18  C   UNL     1     -11.843  13.270  65.413  1.00  0.00    -0.392 A  
HETATM   19  C   UNL     1     -12.729  12.634  64.532  1.00  0.00    -0.439 A  
HETATM   20  C   UNL     1     -10.871  11.815  63.220  1.00  0.00    -0.400 A  
HETATM   21  C   UNL     1     -12.243  11.910  63.440  1.00  0.00    -0.561 A  
HETATM   22  C   UNL     1      -9.983  12.456  64.084  1.00  0.00    -0.244 A  
HETATM   23  C   UNL     1     -10.466  13.181  65.172  1.00  0.00    -0.339 A  
ENDBRANCH  17  18
ENDBRANCH  16  17
ENDBRANCH  15  16
BRANCH  15  24
HETATM   24  C   UNL     1     -12.181  14.296  69.841  1.00  0.00    -0.352 C  
HETATM   25  O   UNL     1     -13.049  13.664  70.428  1.00  0.00    -0.045 OA 
BRANCH  24  26
HETATM   26  O   UNL     1     -12.017  15.650  69.893  1.00  0.00    -0.344 OA 
BRANCH  26  27
HETATM   27  C   UNL     1     -11.292  16.141  71.032  1.00  0.00    -0.338 C  
HETATM   28  C   UNL     1     -12.198  16.147  72.251  1.00  0.00    -0.577 C  
ENDBRANCH  26  27
ENDBRANCH  24  26
ENDBRANCH  15  24
ENDBRANCH  13  15
ENDBRANCH   1  13
BRANCH   5  29
HETATM   29  C   UNL     1      -7.718   9.240  68.556  1.00  0.00    -0.085 C  
HETATM   30  C   UNL     1      -6.565   9.801  69.388  1.00  0.00    -0.049 C  
HETATM   31  O   UNL     1      -5.399   9.765  69.019  1.00  0.00    -0.036 OA 
HETATM   32  O   UNL     1      -6.914  10.384  70.557  1.00  0.00    -0.305 OA 
ENDBRANCH   5  29
TORSDOF 9
ENDMDL
MODEL       99
REMARK 921   NORMALIZED FREE ENERGY PREDICTED BY IDOCK:   -5.13 KCAL/MOL
REMARK 922        TOTAL FREE ENERGY PREDICTED BY IDOCK:   -9.99 KCAL/MOL
REMARK 923 INTER-LIGAND FREE ENERGY PREDICTED BY IDOCK:   -8.77 KCAL/MOL
REMARK 924 INTRA-LIGAND FREE ENERGY PREDICTED BY IDOCK:   -1.22 KCAL/MOL
REMARK 927      BINDING AFFINITY PREDICTED BY RF-SCORE:    0.00 PKD
ROOT
HETATM    1  C   UNL     1     -10.458  10.922  67.536  1.00  0.00    -0.215 C  
HETATM    2  C   UNL     1     -10.877  11.831  66.383  1.00  0.00    -0.325 C  
HETATM    3  O   UNL     1      -8.501   9.606  68.141  1.00  0.00    -0.117 OA 
HETATM    4  C   UNL     1      -8.583  10.992  62.407  1.00  0.00    -0.341 A  
HETATM    5  N   UNL     1      -9.431   9.068  66.104  1.00  0.00    -0.233 N  
HETATM    6  C   UNL     1     -11.240  11.076  65.117  1.00  0.00     0.103 C  
HETATM    7  C   UNL     1      -9.321   9.881  67.255  1.00  0.00    -0.145 C  
HETATM    8  C   UNL     1      -8.011   9.350  64.082  1.00  0.00    -0.134 A  
HETATM    9  C   UNL     1      -9.992  10.698  64.367  1.00  0.00    -0.415 A  
HETATM   10  C   UNL     1      -9.709  11.338  63.148  1.00  0.00    -0.408 A  
HETATM   11  C   UNL     1      -7.739   9.992  62.871  1.00  0.00    -0.137 A  
HETATM   12  C   UNL     1      -9.123   9.714  64.857  1.00  0.00    -0.232 A  
ENDROOT
BRANCH   1  13
HETATM   13  N   UNL     1     -10.032  11.751  68.690  1.00  0.00    -0.310 NA 
HETATM   14  H   UNL     1      -9.050  11.983  68.835  1.00  0.00     0.000 HD 
BRANCH  13  15
HETATM   15  C   UNL     1     -11.074  12.231  69.624  1.00  0.00     0.047 C  
BRANCH  15  16
HETATM   16  C   UNL     1     -12.115  13.180  68.999  1.00  0.00    -0.240 C  
BRANCH  16  17
HETATM   17  C   UNL     1     -11.840  14.657  69.331  1.00  0.00    -0.368 C  
BRANCH  17  18
HETATM   18  C   UNL     1     -12.310  15.015  70.720  1.00  0.00    -0.400 A  
HETATM   19  C   UNL     1     -13.565  14.587  71.178  1.00  0.00    -0.368 A  
HETATM   20  C   UNL     1     -13.226  15.757  73.266  1.00  0.00    -0.687 A  
HETATM   21  C   UNL     1     -14.018  14.956  72.447  1.00  0.00    -0.582 A  
HETATM   22  C   UNL     1     -11.971  16.176  72.824  1.00  0.00    -0.638 A  
HETATM   23  C   UNL     1     -11.515  15.805  71.559  1.00  0.00    -0.504 A  
ENDBRANCH  17  18
ENDBRANCH  16  17
ENDBRANCH  15  16
BRANCH  15  24
HETATM   24  C   UNL     1     -11.824  10.989  70.161  1.00  0.00    -0.357 C  
HETATM   25  O   UNL     1     -13.022  10.788  70.015  1.00  0.00    -0.169 OA 
BRANCH  24  26
HETATM   26  O   UNL     1     -10.971  10.202  70.882  1.00  0.00    -0.318 OA 
BRANCH  26  27
HETATM   27  C   UNL     1     -10.989   8.805  70.546  1.00  0.00    -0.239 C  
HETATM   28  C   UNL     1     -10.465   7.991  71.716  1.00  0.00    -0.287 C  
ENDBRANCH  26  27
ENDBRANCH  24  26
ENDBRANCH  15  24
ENDBRANCH  13  15
ENDBRANCH   1  13
BRANCH   5  29
HETATM   29  C   UNL     1      -8.932   7.694  66.321  1.00  0.00    -0.169 C  
HETATM   30  C   UNL     1      -9.955   6.665  66.802  1.00  0.00    -0.176 C  
HETATM   31  O   UNL     1      -9.667   5.498  67.031  1.00  0.00    -0.128 OA 
HETATM   32  O   UNL     1     -11.207   7.132  67.004  1.00  0.00    -0.277 OA 
ENDBRANCH   5  29
TORSDOF 9
ENDMDL
MODEL      100
REMARK 921   NORMALIZED FREE ENERGY PREDICTED BY IDOCK:   -5.13 KCAL/MOL
REMARK 922        TOTAL FREE ENERGY PREDICTED BY IDOCK:   -9.98 KCAL/MOL
REMARK 923 INTER-LIGAND FREE ENERGY PREDICTED BY IDOCK:   -9.43 KCAL/MOL
REMARK 924 INTRA-LIGAND FREE ENERGY PREDICTED BY IDOCK:   -0.55 KCAL/MOL
REMARK 927      BINDING AFFINITY PREDICTED BY RF-SCORE:    0.00 PKD
ROOT
HETATM    1  C   UNL     1     -10.075  14.033  68.489  1.00  0.00    -0.236 C  
HETATM    2  C   UNL     1      -8.941  13.013  68.529  1.00  0.00    -0.048 C  
HETATM    3  O   UNL     1     -12.306  14.174  67.524  1.00  0.00    -0.296 OA 
HETATM    4  C   UNL     1      -9.032   9.970  64.992  1.00  0.00    -0.234 A  
HETATM    5  N   UNL     1     -10.623  13.783  66.003  1.00  0.00    -0.286 N  
HETATM    6  C   UNL     1      -8.168  12.915  67.226  1.00  0.00    -0.176 C  
HETATM    7  C   UNL     1     -11.114  13.909  67.322  1.00  0.00    -0.299 C  
HETATM    8  C   UNL     1     -10.721  11.669  64.697  1.00  0.00    -0.371 A  
HETATM    9  C   UNL     1      -8.913  12.049  66.249  1.00  0.00    -0.129 A  
HETATM   10  C   UNL     1      -8.391  10.787  65.919  1.00  0.00    -0.162 A  
HETATM   11  C   UNL     1     -10.194  10.416  64.375  1.00  0.00    -0.245 A  
HETATM   12  C   UNL     1     -10.105  12.487  65.656  1.00  0.00    -0.269 A  
ENDROOT
BRANCH   1  13
HETATM   13  N   UNL     1     -10.828  13.987  69.766  1.00  0.00    -0.456 NA 
HETATM   14  H   UNL     1     -10.459  14.427  70.609  1.00  0.00     0.000 HD 
BRANCH  13  15
HETATM   15  C   UNL     1     -12.130  13.283  69.782  1.00  0.00    -0.290 C  
BRANCH  15  16
HETATM   16  C   UNL     1     -12.045  11.764  69.532  1.00  0.00    -0.314 C  
BRANCH  16  17
HETATM   17  C   UNL     1     -11.330  11.019  70.674  1.00  0.00     0.025 C  
BRANCH  17  18
HETATM   18  C   UNL     1     -10.555   9.828  70.165  1.00  0.00    -0.337 A  
HETATM   19  C   UNL     1     -10.557   9.510  68.799  1.00  0.00    -0.240 A  
HETATM   20  C   UNL     1      -9.189   7.563  69.229  1.00  0.00    -0.144 A  
HETATM   21  C   UNL     1      -9.875   8.382  68.336  1.00  0.00    -0.192 A  
HETATM   22  C   UNL     1      -9.171   7.880  70.588  1.00  0.00    -0.157 A  
HETATM   23  C   UNL     1      -9.848   9.007  71.052  1.00  0.00    -0.352 A  
ENDBRANCH  17  18
ENDBRANCH  16  17
ENDBRANCH  15  16
BRANCH  15  24
HETATM   24  C   UNL     1     -12.759  13.502  71.178  1.00  0.00    -0.344 C  
HETATM   25  O   UNL     1     -13.731  12.891  71.601  1.00  0.00    -0.166 OA 
BRANCH  24  26
HETATM   26  O   UNL     1     -12.122  14.522  71.824  1.00  0.00    -0.340 OA 
BRANCH  26  27
HETATM   27  C   UNL     1     -12.346  14.589  73.242  1.00  0.00    -0.180 C  
HETATM   28  C   UNL     1     -12.715  16.008  73.635  1.00  0.00    -0.715 C  
ENDBRANCH  26  27
ENDBRANCH  24  26
ENDBRANCH  15  24
ENDBRANCH  13  15
ENDBRANCH   1  13
BRANCH   5  29
HETATM   29  C   UNL     1     -11.455  14.492  65.008  1.00  0.00    -0.382 C  
HETATM   30  C   UNL     1     -11.038  15.921  64.665  1.00  0.00    -0.354 C  
HETATM   31  O   UNL     1     -11.650  16.620  63.868  1.00  0.00    -1.204 OA 
HETATM   32  O   UNL     1      -9.961  16.395  65.331  1.00  0.00    -0.534 OA 
ENDBRANCH   5  29
TORSDOF 9
ENDMDL
MODEL      101
REMARK 921   NORMALIZED FREE ENERGY PREDICTED BY IDOCK:   -5.13 KCAL/MOL
REMARK 922        TOTAL FREE ENERGY PREDICTED BY IDOCK:   -9.98 KCAL/MOL
REMARK 923 INTER-LIGAND FREE ENERGY PREDICTED BY IDOCK:   -8.81 KCAL/MOL
REMARK 924 INTRA-LIGAND FREE ENERGY PREDICTED BY IDOCK:   -1.17 KCAL/MOL
REMARK 927      BINDING AFFINITY PREDICTED BY RF-SCORE:    0.00 PKD
ROOT
HETATM    1  C   UNL     1     -10.717   9.861  69.241  1.00  0.00    -0.224 C  
HETATM    2  C   UNL     1     -10.484   9.539  67.767  1.00  0.00    -0.309 C  
HETATM    3  O   UNL     1      -9.582   9.443  71.354  1.00  0.00    -0.230 OA 
HETATM    4  C   UNL     1      -7.756   5.818  67.073  1.00  0.00    -0.101 A  
HETATM    5  N   UNL     1     -10.118   7.550  70.157  1.00  0.00    -0.193 N  
HETATM    6  C   UNL     1     -10.775   8.093  67.409  1.00  0.00    -0.247 C  
HETATM    7  C   UNL     1     -10.004   8.951  70.299  1.00  0.00    -0.186 C  
HETATM    8  C   UNL     1      -8.245   6.088  69.421  1.00  0.00    -0.115 A  
HETATM    9  C   UNL     1      -9.607   7.224  67.786  1.00  0.00    -0.158 A  
HETATM   10  C   UNL     1      -8.823   6.656  66.767  1.00  0.00    -0.132 A  
HETATM   11  C   UNL     1      -7.472   5.527  68.401  1.00  0.00    -0.077 A  
HETATM   12  C   UNL     1      -9.302   6.963  69.128  1.00  0.00    -0.140 A  
ENDROOT
BRANCH   1  13
HETATM   13  N   UNL     1     -10.315  11.263  69.511  1.00  0.00    -0.445 NA 
HETATM   14  H   UNL     1      -9.350  11.496  69.743  1.00  0.00     0.000 HD 
BRANCH  13  15
HETATM   15  C   UNL     1     -11.356  12.313  69.436  1.00  0.00    -0.228 C  
BRANCH  15  16
HETATM   16  C   UNL     1     -12.279  12.219  68.206  1.00  0.00     0.153 C  
BRANCH  16  17
HETATM   17  C   UNL     1     -11.968  13.296  67.152  1.00  0.00    -0.400 C  
BRANCH  17  18
HETATM   18  C   UNL     1     -11.666  12.689  65.804  1.00  0.00    -0.466 A  
HETATM   19  C   UNL     1     -10.390  12.179  65.523  1.00  0.00    -0.296 A  
HETATM   20  C   UNL     1     -11.076  11.643  63.268  1.00  0.00    -0.333 A  
HETATM   21  C   UNL     1     -10.098  11.659  64.260  1.00  0.00    -0.328 A  
HETATM   22  C   UNL     1     -12.352  12.135  63.543  1.00  0.00    -0.682 A  
HETATM   23  C   UNL     1     -12.646  12.652  64.804  1.00  0.00    -0.530 A  
ENDBRANCH  17  18
ENDBRANCH  16  17
ENDBRANCH  15  16
BRANCH  15  24
HETATM   24  C   UNL     1     -12.234  12.187  70.703  1.00  0.00    -0.300 C  
HETATM   25  O   UNL     1     -12.793  11.158  71.057  1.00  0.00    -0.359 OA 
BRANCH  24  26
HETATM   26  O   UNL     1     -12.354  13.402  71.314  1.00  0.00    -0.321 OA 
BRANCH  26  27
HETATM   27  C   UNL     1     -13.476  13.539  72.201  1.00  0.00    -0.537 C  
HETATM   28  C   UNL     1     -14.163  14.870  71.953  1.00  0.00    -0.640 C  
ENDBRANCH  26  27
ENDBRANCH  24  26
ENDBRANCH  15  24
ENDBRANCH  13  15
ENDBRANCH   1  13
BRANCH   5  29
HETATM   29  C   UNL     1     -10.220   6.847  71.453  1.00  0.00    -0.197 C  
HETATM   30  C   UNL     1     -11.607   6.338  71.844  1.00  0.00    -0.317 C  
HETATM   31  O   UNL     1     -11.828   5.752  72.896  1.00  0.00    -0.179 OA 
HETATM   32  O   UNL     1     -12.601   6.610  70.970  1.00  0.00    -0.294 OA 
ENDBRANCH   5  29
TORSDOF 9
ENDMDL
MODEL      102
REMARK 921   NORMALIZED FREE ENERGY PREDICTED BY IDOCK:   -5.13 KCAL/MOL
REMARK 922        TOTAL FREE ENERGY PREDICTED BY IDOCK:   -9.98 KCAL/MOL
REMARK 923 INTER-LIGAND FREE ENERGY PREDICTED BY IDOCK:   -8.35 KCAL/MOL
REMARK 924 INTRA-LIGAND FREE ENERGY PREDICTED BY IDOCK:   -1.63 KCAL/MOL
REMARK 927      BINDING AFFINITY PREDICTED BY RF-SCORE:    0.00 PKD
ROOT
HETATM    1  C   UNL     1      -9.525  14.148  66.984  1.00  0.00    -0.251 C  
HETATM    2  C   UNL     1      -8.554  13.819  68.115  1.00  0.00    -0.175 C  
HETATM    3  O   UNL     1      -9.538  15.573  65.010  1.00  0.00    -0.173 OA 
HETATM    4  C   UNL     1      -5.373  17.145  68.881  1.00  0.00    -0.146 A  
HETATM    5  N   UNL     1      -9.156  16.679  66.993  1.00  0.00    -0.210 N  
HETATM    6  C   UNL     1      -8.436  14.920  69.152  1.00  0.00    -0.152 C  
HETATM    7  C   UNL     1      -9.314  15.503  66.226  1.00  0.00    -0.320 C  
HETATM    8  C   UNL     1      -6.989  17.875  67.243  1.00  0.00    -0.204 A  
HETATM    9  C   UNL     1      -7.503  15.992  68.662  1.00  0.00    -0.166 A  
HETATM   10  C   UNL     1      -6.250  16.143  69.281  1.00  0.00    -0.163 A  
HETATM   11  C   UNL     1      -5.747  18.016  67.865  1.00  0.00    -0.158 A  
HETATM   12  C   UNL     1      -7.869  16.846  67.612  1.00  0.00    -0.173 A  
ENDROOT
BRANCH   1  13
HETATM   13  N   UNL     1      -9.500  13.061  65.976  1.00  0.00    -0.454 NA 
HETATM   14  H   UNL     1      -8.619  12.635  65.687  1.00  0.00     0.000 HD 
BRANCH  13  15
HETATM   15  C   UNL     1     -10.788  12.613  65.402  1.00  0.00    -0.287 C  
BRANCH  15  16
HETATM   16  C   UNL     1     -10.856  11.111  65.065  1.00  0.00    -0.244 C  
BRANCH  16  17
HETATM   17  C   UNL     1      -9.500  10.404  65.243  1.00  0.00    -0.290 C  
BRANCH  17  18
HETATM   18  C   UNL     1      -9.468   9.564  66.497  1.00  0.00    -0.236 A  
HETATM   19  C   UNL     1      -8.436   9.726  67.433  1.00  0.00    -0.121 A  
HETATM   20  C   UNL     1      -9.352   7.941  68.782  1.00  0.00    -0.146 A  
HETATM   21  C   UNL     1      -8.381   8.917  68.571  1.00  0.00    -0.125 A  
HETATM   22  C   UNL     1     -10.389   7.782  67.862  1.00  0.00    -0.276 A  
HETATM   23  C   UNL     1     -10.447   8.591  66.728  1.00  0.00    -0.308 A  
ENDBRANCH  17  18
ENDBRANCH  16  17
ENDBRANCH  15  16
BRANCH  15  24
HETATM   24  C   UNL     1     -11.891  12.918  66.442  1.00  0.00    -0.415 C  
HETATM   25  O   UNL     1     -12.519  13.967  66.495  1.00  0.00    -0.442 OA 
BRANCH  24  26
HETATM   26  O   UNL     1     -11.998  11.886  67.329  1.00  0.00    -0.605 OA 
BRANCH  26  27
HETATM   27  C   UNL     1     -11.857  12.244  68.713  1.00  0.00    -0.306 C  
HETATM   28  C   UNL     1     -11.355  11.048  69.502  1.00  0.00    -0.356 C  
ENDBRANCH  26  27
ENDBRANCH  24  26
ENDBRANCH  15  24
ENDBRANCH  13  15
ENDBRANCH   1  13
BRANCH   5  29
HETATM   29  C   UNL     1      -9.791  17.861  66.373  1.00  0.00    -0.337 C  
HETATM   30  C   UNL     1     -10.457  18.854  67.324  1.00  0.00    -0.439 C  
HETATM   31  O   UNL     1     -11.028  19.865  66.936  1.00  0.00    -0.385 OA 
HETATM   32  O   UNL     1     -10.416  18.530  68.635  1.00  0.00    -0.287 OA 
ENDBRANCH   5  29
TORSDOF 9
ENDMDL
MODEL      103
REMARK 921   NORMALIZED FREE ENERGY PREDICTED BY IDOCK:   -5.12 KCAL/MOL
REMARK 922        TOTAL FREE ENERGY PREDICTED BY IDOCK:   -9.97 KCAL/MOL
REMARK 923 INTER-LIGAND FREE ENERGY PREDICTED BY IDOCK:   -8.09 KCAL/MOL
REMARK 924 INTRA-LIGAND FREE ENERGY PREDICTED BY IDOCK:   -1.88 KCAL/MOL
REMARK 927      BINDING AFFINITY PREDICTED BY RF-SCORE:    0.00 PKD
ROOT
HETATM    1  C   UNL     1     -10.108  12.916  68.148  1.00  0.00    -0.240 C  
HETATM    2  C   UNL     1      -8.702  12.325  68.195  1.00  0.00    -0.186 C  
HETATM    3  O   UNL     1     -12.254  12.324  67.161  1.00  0.00    -0.506 OA 
HETATM    4  C   UNL     1      -7.761   9.446  64.646  1.00  0.00    -0.117 A  
HETATM    5  N   UNL     1     -10.523  12.518  65.656  1.00  0.00    -0.267 N  
HETATM    6  C   UNL     1      -7.929  12.495  66.900  1.00  0.00    -0.013 C  
HETATM    7  C   UNL     1     -11.039  12.467  66.970  1.00  0.00    -0.281 C  
HETATM    8  C   UNL     1      -9.912  10.498  64.341  1.00  0.00    -0.410 A  
HETATM    9  C   UNL     1      -8.342  11.439  65.912  1.00  0.00     0.040 A  
HETATM   10  C   UNL     1      -7.431  10.421  65.582  1.00  0.00    -0.149 A  
HETATM   11  C   UNL     1      -9.000   9.490  64.019  1.00  0.00    -0.228 A  
HETATM   12  C   UNL     1      -9.606  11.466  65.309  1.00  0.00    -0.228 A  
ENDROOT
BRANCH   1  13
HETATM   13  N   UNL     1     -10.815  12.617  69.417  1.00  0.00    -0.446 NA 
HETATM   14  H   UNL     1     -10.799  13.277  70.195  1.00  0.00     0.000 HD 
BRANCH  13  15
HETATM   15  C   UNL     1     -11.543  11.333  69.523  1.00  0.00    -0.328 C  
BRANCH  15  16
HETATM   16  C   UNL     1     -10.645  10.081  69.546  1.00  0.00    -0.267 C  
BRANCH  16  17
HETATM   17  C   UNL     1     -10.783   9.233  68.269  1.00  0.00    -0.195 C  
BRANCH  17  18
HETATM   18  C   UNL     1      -9.542   8.419  68.000  1.00  0.00    -0.168 A  
HETATM   19  C   UNL     1      -8.341   8.714  68.662  1.00  0.00    -0.122 A  
HETATM   20  C   UNL     1      -7.208   6.966  67.435  1.00  0.00    -0.090 A  
HETATM   21  C   UNL     1      -7.181   7.989  68.380  1.00  0.00    -0.089 A  
HETATM   22  C   UNL     1      -8.402   6.657  66.781  1.00  0.00    -0.115 A  
HETATM   23  C   UNL     1      -9.561   7.377  67.064  1.00  0.00    -0.221 A  
ENDBRANCH  17  18
ENDBRANCH  16  17
ENDBRANCH  15  16
BRANCH  15  24
HETATM   24  C   UNL     1     -12.351  11.365  70.841  1.00  0.00    -0.381 C  
HETATM   25  O   UNL     1     -12.309  10.492  71.698  1.00  0.00    -0.362 OA 
BRANCH  24  26
HETATM   26  O   UNL     1     -13.166  12.460  70.866  1.00  0.00     0.046 OA 
BRANCH  26  27
HETATM   27  C   UNL     1     -12.738  13.528  71.727  1.00  0.00    -0.244 C  
HETATM   28  C   UNL     1     -13.946  14.161  72.395  1.00  0.00    -0.613 C  
ENDBRANCH  26  27
ENDBRANCH  24  26
ENDBRANCH  15  24
ENDBRANCH  13  15
ENDBRANCH   1  13
BRANCH   5  29
HETATM   29  C   UNL     1     -11.534  12.922  64.655  1.00  0.00    -0.327 C  
HETATM   30  C   UNL     1     -11.830  14.417  64.551  1.00  0.00    -0.449 C  
HETATM   31  O   UNL     1     -12.654  14.879  63.772  1.00  0.00    -0.791 OA 
HETATM   32  O   UNL     1     -11.150  15.212  65.407  1.00  0.00    -0.345 OA 
ENDBRANCH   5  29
TORSDOF 9
ENDMDL
MODEL      104
REMARK 921   NORMALIZED FREE ENERGY PREDICTED BY IDOCK:   -5.12 KCAL/MOL
REMARK 922        TOTAL FREE ENERGY PREDICTED BY IDOCK:   -9.96 KCAL/MOL
REMARK 923 INTER-LIGAND FREE ENERGY PREDICTED BY IDOCK:   -8.65 KCAL/MOL
REMARK 924 INTRA-LIGAND FREE ENERGY PREDICTED BY IDOCK:   -1.31 KCAL/MOL
REMARK 927      BINDING AFFINITY PREDICTED BY RF-SCORE:    0.00 PKD
ROOT
HETATM    1  C   UNL     1      -9.522  16.786  67.536  1.00  0.00    -0.237 C  
HETATM    2  C   UNL     1      -9.866  17.729  68.685  1.00  0.00    -0.359 C  
HETATM    3  O   UNL     1      -7.539  15.641  66.708  1.00  0.00    -0.204 OA 
HETATM    4  C   UNL     1      -6.201  20.117  70.311  1.00  0.00    -0.388 A  
HETATM    5  N   UNL     1      -7.341  17.931  66.845  1.00  0.00    -0.192 N  
HETATM    6  C   UNL     1      -9.377  19.150  68.471  1.00  0.00    -0.426 C  
HETATM    7  C   UNL     1      -8.022  16.717  67.086  1.00  0.00    -0.182 C  
HETATM    8  C   UNL     1      -5.587  18.845  68.353  1.00  0.00    -0.197 A  
HETATM    9  C   UNL     1      -7.919  19.252  68.822  1.00  0.00    -0.392 A  
HETATM   10  C   UNL     1      -7.542  19.970  69.971  1.00  0.00     0.537 A  
HETATM   11  C   UNL     1      -5.223  19.561  69.497  1.00  0.00    -0.203 A  
HETATM   12  C   UNL     1      -6.937  18.658  68.018  1.00  0.00    -0.234 A  
ENDROOT
BRANCH   1  13
HETATM   13  N   UNL     1      -9.952  15.409  67.879  1.00  0.00    -0.221 NA 
HETATM   14  H   UNL     1      -9.266  14.677  68.064  1.00  0.00     0.000 HD 
BRANCH  13  15
HETATM   15  C   UNL     1     -11.403  15.129  67.944  1.00  0.00    -0.338 C  
BRANCH  15  16
HETATM   16  C   UNL     1     -12.008  14.555  66.648  1.00  0.00    -0.358 C  
BRANCH  16  17
HETATM   17  C   UNL     1     -10.999  14.532  65.486  1.00  0.00    -0.337 C  
BRANCH  17  18
HETATM   18  C   UNL     1     -10.673  13.123  65.056  1.00  0.00    -0.338 A  
HETATM   19  C   UNL     1     -10.038  12.238  65.941  1.00  0.00    -0.272 A  
HETATM   20  C   UNL     1      -9.981  10.532  64.230  1.00  0.00    -0.398 A  
HETATM   21  C   UNL     1      -9.696  10.949  65.528  1.00  0.00    -0.282 A  
HETATM   22  C   UNL     1     -10.624  11.400  63.347  1.00  0.00    -0.435 A  
HETATM   23  C   UNL     1     -10.970  12.687  63.759  1.00  0.00    -0.481 A  
ENDBRANCH  17  18
ENDBRANCH  16  17
ENDBRANCH  15  16
BRANCH  15  24
HETATM   24  C   UNL     1     -11.626  14.095  69.072  1.00  0.00    -0.304 C  
HETATM   25  O   UNL     1     -11.015  13.039  69.173  1.00  0.00    -0.222 OA 
BRANCH  24  26
HETATM   26  O   UNL     1     -12.649  14.497  69.882  1.00  0.00    -0.296 OA 
BRANCH  26  27
HETATM   27  C   UNL     1     -12.439  15.741  70.570  1.00  0.00    -0.332 C  
HETATM   28  C   UNL     1     -11.584  15.506  71.802  1.00  0.00    -0.515 C  
ENDBRANCH  26  27
ENDBRANCH  24  26
ENDBRANCH  15  24
ENDBRANCH  13  15
ENDBRANCH   1  13
BRANCH   5  29
HETATM   29  C   UNL     1      -6.391  17.844  65.716  1.00  0.00    -0.223 C  
HETATM   30  C   UNL     1      -6.249  19.094  64.848  1.00  0.00    -0.260 C  
HETATM   31  O   UNL     1      -5.507  19.147  63.876  1.00  0.00    -0.259 OA 
HETATM   32  O   UNL     1      -7.030  20.141  65.193  1.00  0.00    -0.308 OA 
ENDBRANCH   5  29
TORSDOF 9
ENDMDL
MODEL      105
REMARK 921   NORMALIZED FREE ENERGY PREDICTED BY IDOCK:   -5.11 KCAL/MOL
REMARK 922        TOTAL FREE ENERGY PREDICTED BY IDOCK:   -9.95 KCAL/MOL
REMARK 923 INTER-LIGAND FREE ENERGY PREDICTED BY IDOCK:   -8.72 KCAL/MOL
REMARK 924 INTRA-LIGAND FREE ENERGY PREDICTED BY IDOCK:   -1.23 KCAL/MOL
REMARK 927      BINDING AFFINITY PREDICTED BY RF-SCORE:    0.00 PKD
ROOT
HETATM    1  C   UNL     1      -9.503  11.799  68.333  1.00  0.00    -0.188 C  
HETATM    2  C   UNL     1      -9.221  10.969  67.084  1.00  0.00    -0.162 C  
HETATM    3  O   UNL     1     -11.404  12.980  69.292  1.00  0.00    -0.267 OA 
HETATM    4  C   UNL     1     -12.122  11.871  63.542  1.00  0.00    -0.575 A  
HETATM    5  N   UNL     1     -10.816  13.662  67.173  1.00  0.00    -0.283 N  
HETATM    6  C   UNL     1      -9.087  11.801  65.821  1.00  0.00    -0.088 C  
HETATM    7  C   UNL     1     -10.715  12.791  68.281  1.00  0.00    -0.239 C  
HETATM    8  C   UNL     1     -12.509  13.400  65.370  1.00  0.00    -0.543 A  
HETATM    9  C   UNL     1     -10.449  12.147  65.286  1.00  0.00    -0.311 A  
HETATM   10  C   UNL     1     -10.884  11.551  64.089  1.00  0.00    -0.435 A  
HETATM   11  C   UNL     1     -12.932  12.803  64.180  1.00  0.00    -0.083 A  
HETATM   12  C   UNL     1     -11.279  13.059  65.951  1.00  0.00    -0.289 A  
ENDROOT
BRANCH   1  13
HETATM   13  N   UNL     1      -9.712  10.896  69.491  1.00  0.00    -0.431 NA 
HETATM   14  H   UNL     1      -9.158  10.996  70.342  1.00  0.00     0.000 HD 
BRANCH  13  15
HETATM   15  C   UNL     1     -10.747   9.845  69.376  1.00  0.00    -0.232 C  
BRANCH  15  16
HETATM   16  C   UNL     1     -10.216   8.457  68.971  1.00  0.00    -0.217 C  
BRANCH  16  17
HETATM   17  C   UNL     1     -10.891   7.916  67.698  1.00  0.00    -0.125 C  
BRANCH  17  18
HETATM   18  C   UNL     1     -10.080   6.816  67.058  1.00  0.00    -0.264 A  
HETATM   19  C   UNL     1     -10.377   5.470  67.320  1.00  0.00    -0.290 A  
HETATM   20  C   UNL     1      -8.517   4.769  65.944  1.00  0.00    -0.117 A  
HETATM   21  C   UNL     1      -9.598   4.453  66.764  1.00  0.00    -0.216 A  
HETATM   22  C   UNL     1      -8.223   6.105  65.667  1.00  0.00    -0.141 A  
HETATM   23  C   UNL     1      -9.002   7.121  66.219  1.00  0.00    -0.181 A  
ENDBRANCH  17  18
ENDBRANCH  16  17
ENDBRANCH  15  16
BRANCH  15  24
HETATM   24  C   UNL     1     -11.427   9.710  70.759  1.00  0.00    -0.328 C  
HETATM   25  O   UNL     1     -10.895   9.221  71.746  1.00  0.00    -0.368 OA 
BRANCH  24  26
HETATM   26  O   UNL     1     -12.721  10.141  70.690  1.00  0.00    -0.307 OA 
BRANCH  26  27
HETATM   27  C   UNL     1     -13.285  10.602  71.929  1.00  0.00    -0.423 C  
HETATM   28  C   UNL     1     -13.253  12.119  71.972  1.00  0.00    -0.496 C  
ENDBRANCH  26  27
ENDBRANCH  24  26
ENDBRANCH  15  24
ENDBRANCH  13  15
ENDBRANCH   1  13
BRANCH   5  29
HETATM   29  C   UNL     1     -11.338  14.996  67.535  1.00  0.00    -0.333 C  
HETATM   30  C   UNL     1     -10.306  16.041  67.955  1.00  0.00    -0.266 C  
HETATM   31  O   UNL     1     -10.609  17.178  68.291  1.00  0.00    -0.348 OA 
HETATM   32  O   UNL     1      -9.021  15.622  67.975  1.00  0.00    -0.176 OA 
ENDBRANCH   5  29
TORSDOF 9
ENDMDL
MODEL      106
REMARK 921   NORMALIZED FREE ENERGY PREDICTED BY IDOCK:   -5.10 KCAL/MOL
REMARK 922        TOTAL FREE ENERGY PREDICTED BY IDOCK:   -9.95 KCAL/MOL
REMARK 923 INTER-LIGAND FREE ENERGY PREDICTED BY IDOCK:   -8.78 KCAL/MOL
REMARK 924 INTRA-LIGAND FREE ENERGY PREDICTED BY IDOCK:   -1.17 KCAL/MOL
REMARK 927      BINDING AFFINITY PREDICTED BY RF-SCORE:    0.00 PKD
ROOT
HETATM    1  C   UNL     1     -10.866  11.072  69.401  1.00  0.00    -0.231 C  
HETATM    2  C   UNL     1     -11.619  10.811  70.702  1.00  0.00    -0.388 C  
HETATM    3  O   UNL     1      -9.692  12.940  68.370  1.00  0.00    -0.223 OA 
HETATM    4  C   UNL     1     -13.300  14.677  72.702  1.00  0.00    -0.577 A  
HETATM    5  N   UNL     1     -11.890  13.364  68.910  1.00  0.00    -0.321 N  
HETATM    6  C   UNL     1     -12.999  11.441  70.740  1.00  0.00    -0.135 C  
HETATM    7  C   UNL     1     -10.727  12.563  68.936  1.00  0.00    -0.165 C  
HETATM    8  C   UNL     1     -12.341  15.183  70.546  1.00  0.00    -0.408 A  
HETATM    9  C   UNL     1     -12.890  12.899  71.095  1.00  0.00    -0.326 A  
HETATM   10  C   UNL     1     -13.351  13.332  72.350  1.00  0.00    -0.616 A  
HETATM   11  C   UNL     1     -12.802  15.604  71.795  1.00  0.00    -0.530 A  
HETATM   12  C   UNL     1     -12.353  13.825  70.192  1.00  0.00    -0.323 A  
ENDROOT
BRANCH   1  13
HETATM   13  N   UNL     1      -9.500  10.503  69.496  1.00  0.00    -0.399 NA 
HETATM   14  H   UNL     1      -8.793  10.932  70.094  1.00  0.00     0.000 HD 
BRANCH  13  15
HETATM   15  C   UNL     1      -9.192   9.294  68.700  1.00  0.00    -0.135 C  
BRANCH  15  16
HETATM   16  C   UNL     1      -8.769   9.571  67.244  1.00  0.00    -0.132 C  
BRANCH  16  17
HETATM   17  C   UNL     1      -9.700   8.896  66.221  1.00  0.00    -0.345 C  
BRANCH  17  18
HETATM   18  C   UNL     1      -9.638   7.391  66.316  1.00  0.00    -0.119 A  
HETATM   19  C   UNL     1      -8.542   6.691  65.789  1.00  0.00    -0.147 A  
HETATM   20  C   UNL     1      -9.562   4.587  66.407  1.00  0.00    -0.197 A  
HETATM   21  C   UNL     1      -8.507   5.295  65.836  1.00  0.00    -0.124 A  
HETATM   22  C   UNL     1     -10.649   5.277  66.945  1.00  0.00    -0.283 A  
HETATM   23  C   UNL     1     -10.685   6.670  66.902  1.00  0.00    -0.401 A  
ENDBRANCH  17  18
ENDBRANCH  16  17
ENDBRANCH  15  16
BRANCH  15  24
HETATM   24  C   UNL     1      -8.027   8.559  69.403  1.00  0.00    -0.107 C  
HETATM   25  O   UNL     1      -7.556   7.494  69.029  1.00  0.00    -0.103 OA 
BRANCH  24  26
HETATM   26  O   UNL     1      -7.663   9.231  70.534  1.00  0.00    -0.115 OA 
BRANCH  26  27
HETATM   27  C   UNL     1      -6.248   9.395  70.727  1.00  0.00    -0.072 C  
HETATM   28  C   UNL     1      -5.858  10.837  70.452  1.00  0.00    -0.118 C  
ENDBRANCH  26  27
ENDBRANCH  24  26
ENDBRANCH  15  24
ENDBRANCH  13  15
ENDBRANCH   1  13
BRANCH   5  29
HETATM   29  C   UNL     1     -11.910  14.313  67.777  1.00  0.00    -0.379 C  
HETATM   30  C   UNL     1     -12.191  13.721  66.397  1.00  0.00    -0.436 C  
HETATM   31  O   UNL     1     -12.222  14.397  65.377  1.00  0.00    -0.387 OA 
HETATM   32  O   UNL     1     -12.367  12.381  66.357  1.00  0.00    -0.539 OA 
ENDBRANCH   5  29
TORSDOF 9
ENDMDL
MODEL      107
REMARK 921   NORMALIZED FREE ENERGY PREDICTED BY IDOCK:   -5.10 KCAL/MOL
REMARK 922        TOTAL FREE ENERGY PREDICTED BY IDOCK:   -9.94 KCAL/MOL
REMARK 923 INTER-LIGAND FREE ENERGY PREDICTED BY IDOCK:   -8.56 KCAL/MOL
REMARK 924 INTRA-LIGAND FREE ENERGY PREDICTED BY IDOCK:   -1.38 KCAL/MOL
REMARK 927      BINDING AFFINITY PREDICTED BY RF-SCORE:    0.00 PKD
ROOT
HETATM    1  C   UNL     1     -10.985  11.084  69.320  1.00  0.00    -0.252 C  
HETATM    2  C   UNL     1     -11.790  10.877  70.601  1.00  0.00    -0.453 C  
HETATM    3  O   UNL     1      -9.676  12.874  68.314  1.00  0.00    -0.219 OA 
HETATM    4  C   UNL     1     -13.302  14.848  72.527  1.00  0.00    -0.525 A  
HETATM    5  N   UNL     1     -11.860  13.427  68.786  1.00  0.00    -0.338 N  
HETATM    6  C   UNL     1     -13.131  11.586  70.594  1.00  0.00     0.139 C  
HETATM    7  C   UNL     1     -10.746  12.561  68.851  1.00  0.00    -0.165 C  
HETATM    8  C   UNL     1     -12.253  15.282  70.397  1.00  0.00    -0.404 A  
HETATM    9  C   UNL     1     -12.949  13.037  70.943  1.00  0.00    -0.121 A  
HETATM   10  C   UNL     1     -13.420  13.506  72.181  1.00  0.00    -0.631 A  
HETATM   11  C   UNL     1     -12.725  15.738  71.630  1.00  0.00    -0.515 A  
HETATM   12  C   UNL     1     -12.333  13.924  70.051  1.00  0.00    -0.316 A  
ENDROOT
BRANCH   1  13
HETATM   13  N   UNL     1      -9.657  10.438  69.460  1.00  0.00    -0.363 NA 
HETATM   14  H   UNL     1      -8.828  10.986  69.691  1.00  0.00     0.000 HD 
BRANCH  13  15
HETATM   15  C   UNL     1      -9.570   8.975  69.254  1.00  0.00    -0.162 C  
BRANCH  15  16
HETATM   16  C   UNL     1      -8.693   8.542  68.063  1.00  0.00    -0.142 C  
BRANCH  16  17
HETATM   17  C   UNL     1      -9.522   7.986  66.892  1.00  0.00    -0.244 C  
BRANCH  17  18
HETATM   18  C   UNL     1      -9.280   6.511  66.684  1.00  0.00    -0.172 A  
HETATM   19  C   UNL     1      -7.972   6.006  66.638  1.00  0.00    -0.102 A  
HETATM   20  C   UNL     1      -8.824   3.784  66.207  1.00  0.00    -0.128 A  
HETATM   21  C   UNL     1      -7.748   4.647  66.401  1.00  0.00    -0.091 A  
HETATM   22  C   UNL     1     -10.128   4.277  66.264  1.00  0.00    -0.196 A  
HETATM   23  C   UNL     1     -10.354   5.632  66.504  1.00  0.00    -0.287 A  
ENDBRANCH  17  18
ENDBRANCH  16  17
ENDBRANCH  15  16
BRANCH  15  24
HETATM   24  C   UNL     1      -8.966   8.361  70.539  1.00  0.00    -0.150 C  
HETATM   25  O   UNL     1      -8.810   8.970  71.588  1.00  0.00    -0.329 OA 
BRANCH  24  26
HETATM   26  O   UNL     1      -8.565   7.078  70.302  1.00  0.00    -0.137 OA 
BRANCH  26  27
HETATM   27  C   UNL     1      -9.170   6.078  71.138  1.00  0.00    -0.150 C  
HETATM   28  C   UNL     1     -10.175   5.276  70.331  1.00  0.00    -0.338 C  
ENDBRANCH  26  27
ENDBRANCH  24  26
ENDBRANCH  15  24
ENDBRANCH  13  15
ENDBRANCH   1  13
BRANCH   5  29
HETATM   29  C   UNL     1     -11.792  14.367  67.648  1.00  0.00    -0.378 C  
HETATM   30  C   UNL     1     -12.110  13.791  66.269  1.00  0.00    -0.446 C  
HETATM   31  O   UNL     1     -12.077  14.460  65.244  1.00  0.00    -0.378 OA 
HETATM   32  O   UNL     1     -12.396  12.470  66.235  1.00  0.00    -0.570 OA 
ENDBRANCH   5  29
TORSDOF 9
ENDMDL
MODEL      108
REMARK 921   NORMALIZED FREE ENERGY PREDICTED BY IDOCK:   -5.10 KCAL/MOL
REMARK 922        TOTAL FREE ENERGY PREDICTED BY IDOCK:   -9.93 KCAL/MOL
REMARK 923 INTER-LIGAND FREE ENERGY PREDICTED BY IDOCK:   -8.28 KCAL/MOL
REMARK 924 INTRA-LIGAND FREE ENERGY PREDICTED BY IDOCK:   -1.65 KCAL/MOL
REMARK 927      BINDING AFFINITY PREDICTED BY RF-SCORE:    0.00 PKD
ROOT
HETATM    1  C   UNL     1     -10.937  10.290  69.744  1.00  0.00    -0.289 C  
HETATM    2  C   UNL     1     -11.860  10.983  70.742  1.00  0.00    -0.383 C  
HETATM    3  O   UNL     1      -8.890  10.833  68.541  1.00  0.00    -0.135 OA 
HETATM    4  C   UNL     1     -11.633  15.640  70.583  1.00  0.00    -0.394 A  
HETATM    5  N   UNL     1     -10.640  12.283  68.168  1.00  0.00    -0.207 N  
HETATM    6  C   UNL     1     -12.747  12.042  70.113  1.00  0.00     0.147 C  
HETATM    7  C   UNL     1     -10.032  11.202  68.846  1.00  0.00    -0.175 C  
HETATM    8  C   UNL     1     -10.317  14.663  68.811  1.00  0.00    -0.248 A  
HETATM    9  C   UNL     1     -11.975  13.321  69.937  1.00  0.00    -0.400 A  
HETATM   10  C   UNL     1     -12.299  14.429  70.739  1.00  0.00    -0.417 A  
HETATM   11  C   UNL     1     -10.647  15.759  69.612  1.00  0.00    -0.295 A  
HETATM   12  C   UNL     1     -10.955  13.426  68.982  1.00  0.00    -0.224 A  
ENDROOT
BRANCH   1  13
HETATM   13  N   UNL     1     -10.047   9.346  70.464  1.00  0.00    -0.255 NA 
HETATM   14  H   UNL     1      -9.183   9.012  70.038  1.00  0.00     0.000 HD 
BRANCH  13  15
HETATM   15  C   UNL     1     -10.451   8.903  71.817  1.00  0.00    -0.360 C  
BRANCH  15  16
HETATM   16  C   UNL     1     -11.442   7.723  71.840  1.00  0.00    -0.320 C  
BRANCH  16  17
HETATM   17  C   UNL     1     -10.990   6.556  70.946  1.00  0.00    -0.325 C  
BRANCH  17  18
HETATM   18  C   UNL     1     -10.694   5.315  71.752  1.00  0.00    -0.240 A  
HETATM   19  C   UNL     1     -11.165   5.193  73.068  1.00  0.00    -0.390 A  
HETATM   20  C   UNL     1     -10.068   3.050  73.286  1.00  0.00    -0.195 A  
HETATM   21  C   UNL     1     -10.853   4.064  73.829  1.00  0.00    -0.333 A  
HETATM   22  C   UNL     1      -9.606   3.157  71.974  1.00  0.00    -0.216 A  
HETATM   23  C   UNL     1      -9.920   4.281  71.211  1.00  0.00    -0.230 A  
ENDBRANCH  17  18
ENDBRANCH  16  17
ENDBRANCH  15  16
BRANCH  15  24
HETATM   24  C   UNL     1      -9.170   8.464  72.563  1.00  0.00    -0.268 C  
HETATM   25  O   UNL     1      -9.152   8.019  73.703  1.00  0.00    -0.271 OA 
BRANCH  24  26
HETATM   26  O   UNL     1      -8.069   8.722  71.797  1.00  0.00    -0.252 OA 
BRANCH  26  27
HETATM   27  C   UNL     1      -7.123   7.645  71.695  1.00  0.00    -0.063 C  
HETATM   28  C   UNL     1      -7.273   6.958  70.350  1.00  0.00    -0.076 C  
ENDBRANCH  26  27
ENDBRANCH  24  26
ENDBRANCH  15  24
ENDBRANCH  13  15
ENDBRANCH   1  13
BRANCH   5  29
HETATM   29  C   UNL     1     -10.065  12.517  66.827  1.00  0.00    -0.223 C  
HETATM   30  C   UNL     1     -11.051  12.555  65.660  1.00  0.00    -0.303 C  
HETATM   31  O   UNL     1     -10.702  12.728  64.500  1.00  0.00    -0.316 OA 
HETATM   32  O   UNL     1     -12.347  12.342  65.979  1.00  0.00    -0.627 OA 
ENDBRANCH   5  29
TORSDOF 9
ENDMDL
MODEL      109
REMARK 921   NORMALIZED FREE ENERGY PREDICTED BY IDOCK:   -5.08 KCAL/MOL
REMARK 922        TOTAL FREE ENERGY PREDICTED BY IDOCK:   -9.91 KCAL/MOL
REMARK 923 INTER-LIGAND FREE ENERGY PREDICTED BY IDOCK:   -8.30 KCAL/MOL
REMARK 924 INTRA-LIGAND FREE ENERGY PREDICTED BY IDOCK:   -1.61 KCAL/MOL
REMARK 927      BINDING AFFINITY PREDICTED BY RF-SCORE:    0.00 PKD
ROOT
HETATM    1  C   UNL     1      -9.680  14.389  68.305  1.00  0.00    -0.222 C  
HETATM    2  C   UNL     1     -10.096  15.164  67.057  1.00  0.00    -0.244 C  
HETATM    3  O   UNL     1      -8.769  12.188  68.809  1.00  0.00    -0.042 OA 
HETATM    4  C   UNL     1     -11.185  12.435  63.432  1.00  0.00    -0.492 A  
HETATM    5  N   UNL     1     -10.762  12.163  67.656  1.00  0.00    -0.214 N  
HETATM    6  C   UNL     1     -11.416  14.701  66.469  1.00  0.00    -0.354 C  
HETATM    7  C   UNL     1      -9.638  12.825  68.200  1.00  0.00    -0.223 C  
HETATM    8  C   UNL     1     -10.775  11.105  65.405  1.00  0.00    -0.259 A  
HETATM    9  C   UNL     1     -11.204  13.469  65.634  1.00  0.00    -0.304 A  
HETATM   10  C   UNL     1     -11.339  13.559  64.237  1.00  0.00    -0.402 A  
HETATM   11  C   UNL     1     -10.911  11.206  64.018  1.00  0.00    -0.351 A  
HETATM   12  C   UNL     1     -10.891  12.238  66.225  1.00  0.00    -0.278 A  
ENDROOT
BRANCH   1  13
HETATM   13  N   UNL     1      -8.340  14.844  68.747  1.00  0.00    -0.163 NA 
HETATM   14  H   UNL     1      -8.119  14.938  69.738  1.00  0.00     0.000 HD 
BRANCH  13  15
HETATM   15  C   UNL     1      -7.333  15.159  67.709  1.00  0.00    -0.164 C  
BRANCH  15  16
HETATM   16  C   UNL     1      -6.722  16.570  67.809  1.00  0.00    -0.158 C  
BRANCH  16  17
HETATM   17  C   UNL     1      -7.390  17.425  68.901  1.00  0.00    -0.244 C  
BRANCH  17  18
HETATM   18  C   UNL     1      -8.297  18.477  68.312  1.00  0.00    -0.344 A  
HETATM   19  C   UNL     1      -9.684  18.411  68.510  1.00  0.00    -0.386 A  
HETATM   20  C   UNL     1      -9.995  20.379  67.141  1.00  0.00    -0.568 A  
HETATM   21  C   UNL     1     -10.527  19.360  67.927  1.00  0.00    -0.536 A  
HETATM   22  C   UNL     1      -8.615  20.460  66.950  1.00  0.00    -0.330 A  
HETATM   23  C   UNL     1      -7.772  19.516  67.534  1.00  0.00    -0.296 A  
ENDBRANCH  17  18
ENDBRANCH  16  17
ENDBRANCH  15  16
BRANCH  15  24
HETATM   24  C   UNL     1      -6.186  14.131  67.849  1.00  0.00    -0.155 C  
HETATM   25  O   UNL     1      -6.045  13.151  67.131  1.00  0.00    -0.301 OA 
BRANCH  24  26
HETATM   26  O   UNL     1      -5.411  14.438  68.931  1.00  0.00    -0.084 OA 
BRANCH  26  27
HETATM   27  C   UNL     1      -5.840  13.867  70.178  1.00  0.00    -0.143 C  
HETATM   28  C   UNL     1      -5.699  14.896  71.286  1.00  0.00     0.036 C  
ENDBRANCH  26  27
ENDBRANCH  24  26
ENDBRANCH  15  24
ENDBRANCH  13  15
ENDBRANCH   1  13
BRANCH   5  29
HETATM   29  C   UNL     1     -11.045  10.872  68.317  1.00  0.00    -0.266 C  
HETATM   30  C   UNL     1     -11.855  10.933  69.611  1.00  0.00    -0.344 C  
HETATM   31  O   UNL     1     -12.146   9.937  70.261  1.00  0.00    -0.207 OA 
HETATM   32  O   UNL     1     -12.206  12.170  70.028  1.00  0.00    -0.269 OA 
ENDBRANCH   5  29
TORSDOF 9
ENDMDL
MODEL      110
REMARK 921   NORMALIZED FREE ENERGY PREDICTED BY IDOCK:   -5.08 KCAL/MOL
REMARK 922        TOTAL FREE ENERGY PREDICTED BY IDOCK:   -9.91 KCAL/MOL
REMARK 923 INTER-LIGAND FREE ENERGY PREDICTED BY IDOCK:   -9.07 KCAL/MOL
REMARK 924 INTRA-LIGAND FREE ENERGY PREDICTED BY IDOCK:   -0.83 KCAL/MOL
REMARK 927      BINDING AFFINITY PREDICTED BY RF-SCORE:    0.00 PKD
ROOT
HETATM    1  C   UNL     1      -9.154  11.912  66.620  1.00  0.00    -0.203 C  
HETATM    2  C   UNL     1      -8.916  12.121  68.113  1.00  0.00    -0.195 C  
HETATM    3  O   UNL     1     -10.368  10.336  65.216  1.00  0.00    -0.278 OA 
HETATM    4  C   UNL     1      -9.447   8.244  70.654  1.00  0.00    -0.181 A  
HETATM    5  N   UNL     1      -8.802   9.379  66.606  1.00  0.00    -0.133 N  
HETATM    6  C   UNL     1      -7.933  11.133  68.714  1.00  0.00    -0.144 C  
HETATM    7  C   UNL     1      -9.568  10.475  66.151  1.00  0.00    -0.190 C  
HETATM    8  C   UNL     1      -9.613   7.746  68.298  1.00  0.00    -0.162 A  
HETATM    9  C   UNL     1      -8.624   9.830  69.005  1.00  0.00    -0.146 A  
HETATM   10  C   UNL     1      -8.842   9.457  70.342  1.00  0.00    -0.290 A  
HETATM   11  C   UNL     1      -9.825   7.384  69.631  1.00  0.00    -0.175 A  
HETATM   12  C   UNL     1      -9.037   8.982  67.969  1.00  0.00    -0.136 A  
ENDROOT
BRANCH   1  13
HETATM   13  N   UNL     1     -10.196  12.856  66.147  1.00  0.00    -0.272 NA 
HETATM   14  H   UNL     1      -9.971  13.596  65.482  1.00  0.00     0.000 HD 
BRANCH  13  15
HETATM   15  C   UNL     1     -11.571  12.693  66.669  1.00  0.00    -0.381 C  
BRANCH  15  16
HETATM   16  C   UNL     1     -11.905  13.567  67.893  1.00  0.00    -0.397 C  
BRANCH  16  17
HETATM   17  C   UNL     1     -11.871  12.774  69.211  1.00  0.00    -0.358 C  
BRANCH  17  18
HETATM   18  C   UNL     1     -12.318  13.614  70.382  1.00  0.00    -0.415 A  
HETATM   19  C   UNL     1     -13.032  13.033  71.441  1.00  0.00    -0.373 A  
HETATM   20  C   UNL     1     -13.231  15.190  72.516  1.00  0.00    -0.505 A  
HETATM   21  C   UNL     1     -13.485  13.820  72.503  1.00  0.00    -0.682 A  
HETATM   22  C   UNL     1     -12.510  15.772  71.474  1.00  0.00    -0.515 A  
HETATM   23  C   UNL     1     -12.055  14.988  70.414  1.00  0.00    -0.384 A  
ENDBRANCH  17  18
ENDBRANCH  16  17
ENDBRANCH  15  16
BRANCH  15  24
HETATM   24  C   UNL     1     -12.547  13.073  65.530  1.00  0.00    -0.362 C  
HETATM   25  O   UNL     1     -13.035  12.274  64.743  1.00  0.00    -0.713 OA 
BRANCH  24  26
HETATM   26  O   UNL     1     -12.714  14.427  65.488  1.00  0.00    -0.414 OA 
BRANCH  26  27
HETATM   27  C   UNL     1     -12.186  15.078  64.321  1.00  0.00    -0.293 C  
HETATM   28  C   UNL     1     -11.188  16.144  64.738  1.00  0.00    -0.313 C  
ENDBRANCH  26  27
ENDBRANCH  24  26
ENDBRANCH  15  24
ENDBRANCH  13  15
ENDBRANCH   1  13
BRANCH   5  29
HETATM   29  C   UNL     1      -8.651   8.319  65.587  1.00  0.00    -0.166 C  
HETATM   30  C   UNL     1      -7.575   8.544  64.525  1.00  0.00    -0.115 C  
HETATM   31  O   UNL     1      -7.358   7.750  63.619  1.00  0.00    -0.087 OA 
HETATM   32  O   UNL     1      -6.892   9.707  64.618  1.00  0.00    -0.097 OA 
ENDBRANCH   5  29
TORSDOF 9
ENDMDL
MODEL      111
REMARK 921   NORMALIZED FREE ENERGY PREDICTED BY IDOCK:   -5.05 KCAL/MOL
REMARK 922        TOTAL FREE ENERGY PREDICTED BY IDOCK:   -9.86 KCAL/MOL
REMARK 923 INTER-LIGAND FREE ENERGY PREDICTED BY IDOCK:   -8.16 KCAL/MOL
REMARK 924 INTRA-LIGAND FREE ENERGY PREDICTED BY IDOCK:   -1.70 KCAL/MOL
REMARK 927      BINDING AFFINITY PREDICTED BY RF-SCORE:    0.00 PKD
ROOT
HETATM    1  C   UNL     1     -10.487  11.882  68.472  1.00  0.00    -0.224 C  
HETATM    2  C   UNL     1     -10.964  12.957  69.445  1.00  0.00    -0.048 C  
HETATM    3  O   UNL     1      -9.005  11.759  66.544  1.00  0.00    -0.191 OA 
HETATM    4  C   UNL     1     -10.676  17.290  67.738  1.00  0.00    -0.333 A  
HETATM    5  N   UNL     1     -10.728  13.273  66.339  1.00  0.00    -0.283 N  
HETATM    6  C   UNL     1     -11.987  13.905  68.848  1.00  0.00    -0.393 C  
HETATM    7  C   UNL     1      -9.946  12.359  67.081  1.00  0.00    -0.207 C  
HETATM    8  C   UNL     1     -10.124  15.667  66.038  1.00  0.00    -0.355 A  
HETATM    9  C   UNL     1     -11.296  14.956  68.023  1.00  0.00    -0.337 A  
HETATM   10  C   UNL     1     -11.274  16.282  68.487  1.00  0.00    -0.359 A  
HETATM   11  C   UNL     1     -10.107  16.983  66.508  1.00  0.00    -0.318 A  
HETATM   12  C   UNL     1     -10.692  14.635  66.800  1.00  0.00    -0.301 A  
ENDROOT
BRANCH   1  13
HETATM   13  N   UNL     1      -9.424  11.070  69.112  1.00  0.00    -0.401 NA 
HETATM   14  H   UNL     1      -8.522  11.481  69.350  1.00  0.00     0.000 HD 
BRANCH  13  15
HETATM   15  C   UNL     1      -9.712   9.646  69.396  1.00  0.00    -0.194 C  
BRANCH  15  16
HETATM   16  C   UNL     1      -8.885   8.644  68.568  1.00  0.00    -0.142 C  
BRANCH  16  17
HETATM   17  C   UNL     1      -9.474   8.412  67.165  1.00  0.00    -0.209 C  
BRANCH  17  18
HETATM   18  C   UNL     1      -8.394   8.277  66.119  1.00  0.00    -0.125 A  
HETATM   19  C   UNL     1      -8.653   7.609  64.913  1.00  0.00     0.091 A  
HETATM   20  C   UNL     1      -6.363   7.943  64.212  1.00  0.00    -0.057 A  
HETATM   21  C   UNL     1      -7.640   7.445  63.965  1.00  0.00    -0.110 A  
HETATM   22  C   UNL     1      -6.101   8.620  65.404  1.00  0.00    -0.049 A  
HETATM   23  C   UNL     1      -7.111   8.788  66.350  1.00  0.00    -0.083 A  
ENDBRANCH  17  18
ENDBRANCH  16  17
ENDBRANCH  15  16
BRANCH  15  24
HETATM   24  C   UNL     1      -9.402   9.399  70.891  1.00  0.00    -0.193 C  
HETATM   25  O   UNL     1      -8.284   9.179  71.338  1.00  0.00    -0.316 OA 
BRANCH  24  26
HETATM   26  O   UNL     1     -10.560   9.384  71.614  1.00  0.00    -0.340 OA 
BRANCH  26  27
HETATM   27  C   UNL     1     -11.744   9.041  70.876  1.00  0.00    -0.276 C  
HETATM   28  C   UNL     1     -12.812  10.095  71.104  1.00  0.00    -0.494 C  
ENDBRANCH  26  27
ENDBRANCH  24  26
ENDBRANCH  15  24
ENDBRANCH  13  15
ENDBRANCH   1  13
BRANCH   5  29
HETATM   29  C   UNL     1     -10.674  13.028  64.883  1.00  0.00    -0.332 C  
HETATM   30  C   UNL     1     -12.010  12.775  64.185  1.00  0.00    -0.427 C  
HETATM   31  O   UNL     1     -12.101  12.546  62.986  1.00  0.00    -0.343 OA 
HETATM   32  O   UNL     1     -13.100  12.778  64.984  1.00  0.00    -0.811 OA 
ENDBRANCH   5  29
TORSDOF 9
ENDMDL
MODEL      112
REMARK 921   NORMALIZED FREE ENERGY PREDICTED BY IDOCK:   -5.01 KCAL/MOL
REMARK 922        TOTAL FREE ENERGY PREDICTED BY IDOCK:   -9.80 KCAL/MOL
REMARK 923 INTER-LIGAND FREE ENERGY PREDICTED BY IDOCK:   -8.49 KCAL/MOL
REMARK 924 INTRA-LIGAND FREE ENERGY PREDICTED BY IDOCK:   -1.30 KCAL/MOL
REMARK 927      BINDING AFFINITY PREDICTED BY RF-SCORE:    0.00 PKD
ROOT
HETATM    1  C   UNL     1     -10.633  10.932  69.223  1.00  0.00    -0.217 C  
HETATM    2  C   UNL     1     -11.350  10.560  70.518  1.00  0.00    -0.400 C  
HETATM    3  O   UNL     1      -9.609  12.923  68.267  1.00  0.00    -0.218 OA 
HETATM    4  C   UNL     1     -13.281  14.202  72.703  1.00  0.00    -0.612 A  
HETATM    5  N   UNL     1     -11.825  13.163  68.844  1.00  0.00    -0.317 N  
HETATM    6  C   UNL     1     -12.771  11.086  70.596  1.00  0.00    -0.375 C  
HETATM    7  C   UNL     1     -10.606  12.447  68.824  1.00  0.00    -0.183 C  
HETATM    8  C   UNL     1     -12.386  14.871  70.562  1.00  0.00    -0.400 A  
HETATM    9  C   UNL     1     -12.763  12.531  71.014  1.00  0.00    -0.316 A  
HETATM   10  C   UNL     1     -13.239  12.874  72.291  1.00  0.00    -0.519 A  
HETATM   11  C   UNL     1     -12.862  15.202  71.834  1.00  0.00    -0.428 A  
HETATM   12  C   UNL     1     -12.304  13.533  70.148  1.00  0.00    -0.275 A  
ENDROOT
BRANCH   1  13
HETATM   13  N   UNL     1      -9.228  10.459  69.282  1.00  0.00    -0.259 NA 
HETATM   14  H   UNL     1      -8.587  10.807  69.994  1.00  0.00     0.000 HD 
BRANCH  13  15
HETATM   15  C   UNL     1      -8.785   9.467  68.277  1.00  0.00    -0.120 C  
BRANCH  15  16
HETATM   16  C   UNL     1      -8.812   8.004  68.759  1.00  0.00    -0.138 C  
BRANCH  16  17
HETATM   17  C   UNL     1      -7.784   7.123  68.025  1.00  0.00    -0.113 C  
BRANCH  17  18
HETATM   18  C   UNL     1      -8.448   6.183  67.049  1.00  0.00    -0.105 A  
HETATM   19  C   UNL     1      -9.809   5.869  67.178  1.00  0.00    -0.162 A  
HETATM   20  C   UNL     1      -9.663   4.363  65.292  1.00  0.00    -0.199 A  
HETATM   21  C   UNL     1     -10.412   4.964  66.302  1.00  0.00    -0.349 A  
HETATM   22  C   UNL     1      -8.312   4.680  65.149  1.00  0.00    -0.126 A  
HETATM   23  C   UNL     1      -7.709   5.586  66.021  1.00  0.00    -0.095 A  
ENDBRANCH  17  18
ENDBRANCH  16  17
ENDBRANCH  15  16
BRANCH  15  24
HETATM   24  C   UNL     1      -9.731   9.586  67.059  1.00  0.00    -0.176 C  
HETATM   25  O   UNL     1     -10.776   8.963  66.933  1.00  0.00    -0.230 OA 
BRANCH  24  26
HETATM   26  O   UNL     1      -9.189  10.419  66.123  1.00  0.00    -0.160 OA 
BRANCH  26  27
HETATM   27  C   UNL     1      -7.815  10.161  65.788  1.00  0.00    -0.139 C  
HETATM   28  C   UNL     1      -7.744   9.097  64.707  1.00  0.00    -0.111 C  
ENDBRANCH  26  27
ENDBRANCH  24  26
ENDBRANCH  15  24
ENDBRANCH  13  15
ENDBRANCH   1  13
BRANCH   5  29
HETATM   29  C   UNL     1     -11.926  14.156  67.755  1.00  0.00    -0.354 C  
HETATM   30  C   UNL     1     -12.261  13.613  66.366  1.00  0.00    -0.423 C  
HETATM   31  O   UNL     1     -12.361  14.329  65.379  1.00  0.00    -0.417 OA 
HETATM   32  O   UNL     1     -12.404  12.272  66.279  1.00  0.00    -0.556 OA 
ENDBRANCH   5  29
TORSDOF 9
ENDMDL
MODEL      113
REMARK 921   NORMALIZED FREE ENERGY PREDICTED BY IDOCK:   -5.00 KCAL/MOL
REMARK 922        TOTAL FREE ENERGY PREDICTED BY IDOCK:   -9.78 KCAL/MOL
REMARK 923 INTER-LIGAND FREE ENERGY PREDICTED BY IDOCK:   -8.37 KCAL/MOL
REMARK 924 INTRA-LIGAND FREE ENERGY PREDICTED BY IDOCK:   -1.41 KCAL/MOL
REMARK 927      BINDING AFFINITY PREDICTED BY RF-SCORE:    0.00 PKD
ROOT
HETATM    1  C   UNL     1     -10.988  14.411  68.042  1.00  0.00    -0.258 C  
HETATM    2  C   UNL     1     -11.608  15.182  66.880  1.00  0.00    -0.160 C  
HETATM    3  O   UNL     1     -10.080  14.934  70.240  1.00  0.00     0.055 OA 
HETATM    4  C   UNL     1     -10.386  19.684  66.754  1.00  0.00    -0.591 A  
HETATM    5  N   UNL     1      -9.062  16.034  68.492  1.00  0.00    -0.195 N  
HETATM    6  C   UNL     1     -10.595  15.958  66.058  1.00  0.00    -0.331 C  
HETATM    7  C   UNL     1     -10.077  15.213  69.034  1.00  0.00    -0.244 C  
HETATM    8  C   UNL     1      -9.166  18.519  68.481  1.00  0.00    -0.360 A  
HETATM    9  C   UNL     1     -10.261  17.255  66.742  1.00  0.00    -0.318 A  
HETATM   10  C   UNL     1     -10.703  18.461  66.171  1.00  0.00    -0.210 A  
HETATM   11  C   UNL     1      -9.609  19.712  67.906  1.00  0.00    -0.459 A  
HETATM   12  C   UNL     1      -9.509  17.278  67.924  1.00  0.00    -0.266 A  
ENDROOT
BRANCH   1  13
HETATM   13  N   UNL     1     -12.061  13.768  68.839  1.00  0.00    -0.373 NA 
HETATM   14  H   UNL     1     -12.817  14.321  69.243  1.00  0.00     0.000 HD 
BRANCH  13  15
HETATM   15  C   UNL     1     -12.002  12.302  69.031  1.00  0.00    -0.248 C  
BRANCH  15  16
HETATM   16  C   UNL     1     -10.658  11.654  68.644  1.00  0.00    -0.236 C  
BRANCH  16  17
HETATM   17  C   UNL     1     -10.765  10.790  67.375  1.00  0.00    -0.317 C  
BRANCH  17  18
HETATM   18  C   UNL     1      -9.876   9.573  67.449  1.00  0.00    -0.218 A  
HETATM   19  C   UNL     1      -9.036   9.239  66.376  1.00  0.00    -0.200 A  
HETATM   20  C   UNL     1      -8.290   7.260  67.547  1.00  0.00    -0.116 A  
HETATM   21  C   UNL     1      -8.247   8.088  66.428  1.00  0.00    -0.113 A  
HETATM   22  C   UNL     1      -9.112   7.592  68.625  1.00  0.00    -0.134 A  
HETATM   23  C   UNL     1      -9.898   8.743  68.576  1.00  0.00    -0.183 A  
ENDBRANCH  17  18
ENDBRANCH  16  17
ENDBRANCH  15  16
BRANCH  15  24
HETATM   24  C   UNL     1     -12.253  12.020  70.531  1.00  0.00    -0.325 C  
HETATM   25  O   UNL     1     -12.362  10.902  71.015  1.00  0.00    -0.347 OA 
BRANCH  24  26
HETATM   26  O   UNL     1     -12.411  13.194  71.209  1.00  0.00    -0.332 OA 
BRANCH  26  27
HETATM   27  C   UNL     1     -13.437  13.192  72.216  1.00  0.00    -0.568 C  
HETATM   28  C   UNL     1     -14.396  14.343  71.970  1.00  0.00    -0.636 C  
ENDBRANCH  26  27
ENDBRANCH  24  26
ENDBRANCH  15  24
ENDBRANCH  13  15
ENDBRANCH   1  13
BRANCH   5  29
HETATM   29  C   UNL     1      -7.830  16.042  69.308  1.00  0.00    -0.222 C  
HETATM   30  C   UNL     1      -6.537  15.651  68.594  1.00  0.00    -0.110 C  
HETATM   31  O   UNL     1      -5.453  15.605  69.160  1.00  0.00    -0.100 OA 
HETATM   32  O   UNL     1      -6.664  15.314  67.291  1.00  0.00    -0.252 OA 
ENDBRANCH   5  29
TORSDOF 9
ENDMDL
MODEL      114
REMARK 921   NORMALIZED FREE ENERGY PREDICTED BY IDOCK:   -4.98 KCAL/MOL
REMARK 922        TOTAL FREE ENERGY PREDICTED BY IDOCK:   -9.76 KCAL/MOL
REMARK 923 INTER-LIGAND FREE ENERGY PREDICTED BY IDOCK:   -9.03 KCAL/MOL
REMARK 924 INTRA-LIGAND FREE ENERGY PREDICTED BY IDOCK:   -0.73 KCAL/MOL
REMARK 927      BINDING AFFINITY PREDICTED BY RF-SCORE:    0.00 PKD
ROOT
HETATM    1  C   UNL     1      -9.846  12.947  68.501  1.00  0.00    -0.144 C  
HETATM    2  C   UNL     1     -10.964  12.227  69.252  1.00  0.00    -0.155 C  
HETATM    3  O   UNL     1      -8.378  14.849  68.894  1.00  0.00    -0.164 OA 
HETATM    4  C   UNL     1     -13.092  14.887  72.441  1.00  0.00    -0.453 A  
HETATM    5  N   UNL     1     -10.627  15.330  69.003  1.00  0.00    -0.235 N  
HETATM    6  C   UNL     1     -12.277  12.987  69.258  1.00  0.00    -0.138 C  
HETATM    7  C   UNL     1      -9.543  14.429  68.910  1.00  0.00    -0.123 C  
HETATM    8  C   UNL     1     -11.514  16.191  71.161  1.00  0.00    -0.433 A  
HETATM    9  C   UNL     1     -12.251  14.055  70.317  1.00  0.00    -0.430 A  
HETATM   10  C   UNL     1     -13.061  13.906  71.456  1.00  0.00    -0.441 A  
HETATM   11  C   UNL     1     -12.323  16.034  72.290  1.00  0.00    -0.570 A  
HETATM   12  C   UNL     1     -11.446  15.193  70.178  1.00  0.00    -0.281 A  
ENDROOT
BRANCH   1  13
HETATM   13  N   UNL     1      -8.585  12.177  68.634  1.00  0.00    -0.348 NA 
HETATM   14  H   UNL     1      -7.779  12.571  69.118  1.00  0.00     0.000 HD 
BRANCH  13  15
HETATM   15  C   UNL     1      -8.531  10.822  68.042  1.00  0.00    -0.124 C  
BRANCH  15  16
HETATM   16  C   UNL     1      -9.595   9.843  68.574  1.00  0.00    -0.159 C  
BRANCH  16  17
HETATM   17  C   UNL     1      -9.268   9.328  69.988  1.00  0.00    -0.231 C  
BRANCH  17  18
HETATM   18  C   UNL     1     -10.414   8.541  70.576  1.00  0.00    -0.230 A  
HETATM   19  C   UNL     1     -11.132   9.043  71.672  1.00  0.00    -0.433 A  
HETATM   20  C   UNL     1     -12.484   7.039  71.731  1.00  0.00    -0.393 A  
HETATM   21  C   UNL     1     -12.162   8.294  72.244  1.00  0.00    -0.428 A  
HETATM   22  C   UNL     1     -11.783   6.539  70.633  1.00  0.00    -0.436 A  
HETATM   23  C   UNL     1     -10.756   7.287  70.058  1.00  0.00    -0.261 A  
ENDBRANCH  17  18
ENDBRANCH  16  17
ENDBRANCH  15  16
BRANCH  15  24
HETATM   24  C   UNL     1      -8.742  10.972  66.518  1.00  0.00    -0.168 C  
HETATM   25  O   UNL     1      -7.849  11.217  65.717  1.00  0.00    -0.057 OA 
BRANCH  24  26
HETATM   26  O   UNL     1     -10.069  10.872  66.215  1.00  0.00    -0.218 OA 
BRANCH  26  27
HETATM   27  C   UNL     1     -10.510  11.665  65.100  1.00  0.00    -0.279 C  
HETATM   28  C   UNL     1     -11.793  12.390  65.463  1.00  0.00    -0.469 C  
ENDBRANCH  26  27
ENDBRANCH  24  26
ENDBRANCH  15  24
ENDBRANCH  13  15
ENDBRANCH   1  13
BRANCH   5  29
HETATM   29  C   UNL     1     -10.283  16.693  68.546  1.00  0.00    -0.282 C  
HETATM   30  C   UNL     1     -10.406  16.960  67.047  1.00  0.00    -0.307 C  
HETATM   31  O   UNL     1     -10.139  18.041  66.540  1.00  0.00    -0.340 OA 
HETATM   32  O   UNL     1     -10.792  15.907  66.292  1.00  0.00    -0.292 OA 
ENDBRANCH   5  29
TORSDOF 9
ENDMDL
MODEL      115
REMARK 921   NORMALIZED FREE ENERGY PREDICTED BY IDOCK:   -4.98 KCAL/MOL
REMARK 922        TOTAL FREE ENERGY PREDICTED BY IDOCK:   -9.76 KCAL/MOL
REMARK 923 INTER-LIGAND FREE ENERGY PREDICTED BY IDOCK:   -8.75 KCAL/MOL
REMARK 924 INTRA-LIGAND FREE ENERGY PREDICTED BY IDOCK:   -1.00 KCAL/MOL
REMARK 927      BINDING AFFINITY PREDICTED BY RF-SCORE:    0.00 PKD
ROOT
HETATM    1  C   UNL     1     -10.066   9.683  68.879  1.00  0.00    -0.187 C  
HETATM    2  C   UNL     1     -10.580  10.521  70.047  1.00  0.00    -0.223 C  
HETATM    3  O   UNL     1     -10.919   7.897  67.461  1.00  0.00    -0.141 OA 
HETATM    4  C   UNL     1     -14.025   8.480  72.442  1.00  0.00    -0.371 A  
HETATM    5  N   UNL     1     -10.935   7.428  69.715  1.00  0.00    -0.232 N  
HETATM    6  C   UNL     1     -10.621   9.766  71.362  1.00  0.00    -0.009 C  
HETATM    7  C   UNL     1     -10.764   8.304  68.620  1.00  0.00    -0.027 C  
HETATM    8  C   UNL     1     -13.138   6.973  70.778  1.00  0.00     0.069 A  
HETATM    9  C   UNL     1     -11.857   8.912  71.428  1.00  0.00    -0.383 A  
HETATM   10  C   UNL     1     -12.881   9.263  72.325  1.00  0.00    -0.459 A  
HETATM   11  C   UNL     1     -14.149   7.330  71.673  1.00  0.00    -0.522 A  
HETATM   12  C   UNL     1     -11.995   7.773  70.624  1.00  0.00    -0.070 A  
ENDROOT
BRANCH   1  13
HETATM   13  N   UNL     1     -10.155  10.473  67.626  1.00  0.00    -0.173 NA 
HETATM   14  H   UNL     1      -9.600  10.221  66.807  1.00  0.00     0.000 HD 
BRANCH  13  15
HETATM   15  C   UNL     1     -11.069  11.635  67.599  1.00  0.00    -0.255 C  
BRANCH  15  16
HETATM   16  C   UNL     1     -10.543  12.888  68.325  1.00  0.00    -0.259 C  
BRANCH  16  17
HETATM   17  C   UNL     1     -11.612  13.988  68.453  1.00  0.00    -0.366 C  
BRANCH  17  18
HETATM   18  C   UNL     1     -11.833  14.390  69.890  1.00  0.00    -0.382 A  
HETATM   19  C   UNL     1     -12.541  13.549  70.762  1.00  0.00    -0.382 A  
HETATM   20  C   UNL     1     -12.328  15.174  72.539  1.00  0.00    -0.460 A  
HETATM   21  C   UNL     1     -12.785  13.941  72.080  1.00  0.00    -0.338 A  
HETATM   22  C   UNL     1     -11.611  16.010  71.683  1.00  0.00    -0.538 A  
HETATM   23  C   UNL     1     -11.364  15.619  70.367  1.00  0.00    -0.373 A  
ENDBRANCH  17  18
ENDBRANCH  16  17
ENDBRANCH  15  16
BRANCH  15  24
HETATM   24  C   UNL     1     -11.303  12.007  66.116  1.00  0.00    -0.351 C  
HETATM   25  O   UNL     1     -12.404  12.079  65.587  1.00  0.00    -0.470 OA 
BRANCH  24  26
HETATM   26  O   UNL     1     -10.107  12.161  65.476  1.00  0.00    -0.241 OA 
BRANCH  26  27
HETATM   27  C   UNL     1     -10.190  12.571  64.101  1.00  0.00    -0.350 C  
HETATM   28  C   UNL     1     -10.217  11.347  63.204  1.00  0.00    -0.380 C  
ENDBRANCH  26  27
ENDBRANCH  24  26
ENDBRANCH  15  24
ENDBRANCH  13  15
ENDBRANCH   1  13
BRANCH   5  29
HETATM   29  C   UNL     1     -10.766   6.006  69.347  1.00  0.00    -0.334 C  
HETATM   30  C   UNL     1      -9.829   5.182  70.228  1.00  0.00    -0.225 C  
HETATM   31  O   UNL     1      -9.594   3.998  70.023  1.00  0.00    -0.179 OA 
HETATM   32  O   UNL     1      -9.232   5.851  71.239  1.00  0.00    -0.143 OA 
ENDBRANCH   5  29
TORSDOF 9
ENDMDL
MODEL      116
REMARK 921   NORMALIZED FREE ENERGY PREDICTED BY IDOCK:   -4.96 KCAL/MOL
REMARK 922        TOTAL FREE ENERGY PREDICTED BY IDOCK:   -9.73 KCAL/MOL
REMARK 923 INTER-LIGAND FREE ENERGY PREDICTED BY IDOCK:   -8.05 KCAL/MOL
REMARK 924 INTRA-LIGAND FREE ENERGY PREDICTED BY IDOCK:   -1.68 KCAL/MOL
REMARK 927      BINDING AFFINITY PREDICTED BY RF-SCORE:    0.00 PKD
ROOT
HETATM    1  C   UNL     1      -9.947   9.156  67.750  1.00  0.00    -0.189 C  
HETATM    2  C   UNL     1     -10.973  10.256  68.008  1.00  0.00    -0.345 C  
HETATM    3  O   UNL     1      -9.598   6.849  68.449  1.00  0.00    -0.128 OA 
HETATM    4  C   UNL     1     -13.310   9.735  72.013  1.00  0.00    -0.547 A  
HETATM    5  N   UNL     1      -9.726   8.370  70.174  1.00  0.00    -0.172 N  
HETATM    6  C   UNL     1     -10.840  10.899  69.376  1.00  0.00    -0.286 C  
HETATM    7  C   UNL     1      -9.838   8.009  68.813  1.00  0.00    -0.172 C  
HETATM    8  C   UNL     1     -11.561   8.081  71.827  1.00  0.00    -0.331 A  
HETATM    9  C   UNL     1     -11.500  10.038  70.417  1.00  0.00    -0.389 A  
HETATM   10  C   UNL     1     -12.687  10.486  71.021  1.00  0.00    -0.504 A  
HETATM   11  C   UNL     1     -12.741   8.535  72.422  1.00  0.00    -0.394 A  
HETATM   12  C   UNL     1     -10.943   8.810  70.800  1.00  0.00    -0.247 A  
ENDROOT
BRANCH   1  13
HETATM   13  N   UNL     1     -10.217   8.525  66.435  1.00  0.00    -0.406 NA 
HETATM   14  H   UNL     1     -10.867   7.743  66.352  1.00  0.00     0.000 HD 
BRANCH  13  15
HETATM   15  C   UNL     1      -9.517   9.063  65.248  1.00  0.00    -0.023 C  
BRANCH  15  16
HETATM   16  C   UNL     1      -9.101  10.542  65.359  1.00  0.00    -0.215 C  
BRANCH  16  17
HETATM   17  C   UNL     1      -9.951  11.463  64.465  1.00  0.00    -0.318 C  
BRANCH  17  18
HETATM   18  C   UNL     1     -10.662  12.523  65.269  1.00  0.00    -0.318 A  
HETATM   19  C   UNL     1     -12.038  12.740  65.099  1.00  0.00    -0.498 A  
HETATM   20  C   UNL     1     -11.970  14.556  66.694  1.00  0.00    -0.358 A  
HETATM   21  C   UNL     1     -12.687  13.752  65.810  1.00  0.00    -0.494 A  
HETATM   22  C   UNL     1     -10.605  14.338  66.879  1.00  0.00    -0.273 A  
HETATM   23  C   UNL     1      -9.956  13.326  66.172  1.00  0.00    -0.295 A  
ENDBRANCH  17  18
ENDBRANCH  16  17
ENDBRANCH  15  16
BRANCH  15  24
HETATM   24  C   UNL     1      -8.236   8.221  65.043  1.00  0.00    -0.158 C  
HETATM   25  O   UNL     1      -7.389   8.031  65.906  1.00  0.00    -0.073 OA 
BRANCH  24  26
HETATM   26  O   UNL     1      -8.155   7.796  63.748  1.00  0.00    -0.127 OA 
BRANCH  26  27
HETATM   27  C   UNL     1      -7.236   6.718  63.509  1.00  0.00    -0.066 C  
HETATM   28  C   UNL     1      -7.986   5.522  62.949  1.00  0.00    -0.098 C  
ENDBRANCH  26  27
ENDBRANCH  24  26
ENDBRANCH  15  24
ENDBRANCH  13  15
ENDBRANCH   1  13
BRANCH   5  29
HETATM   29  C   UNL     1      -8.834   7.471  70.936  1.00  0.00    -0.144 C  
HETATM   30  C   UNL     1      -7.625   8.121  71.609  1.00  0.00    -0.087 C  
HETATM   31  O   UNL     1      -6.804   7.485  72.257  1.00  0.00    -0.057 OA 
HETATM   32  O   UNL     1      -7.488   9.450  71.412  1.00  0.00    -0.335 OA 
ENDBRANCH   5  29
TORSDOF 9
ENDMDL
MODEL      117
REMARK 921   NORMALIZED FREE ENERGY PREDICTED BY IDOCK:   -4.93 KCAL/MOL
REMARK 922        TOTAL FREE ENERGY PREDICTED BY IDOCK:   -9.69 KCAL/MOL
REMARK 923 INTER-LIGAND FREE ENERGY PREDICTED BY IDOCK:   -7.83 KCAL/MOL
REMARK 924 INTRA-LIGAND FREE ENERGY PREDICTED BY IDOCK:   -1.85 KCAL/MOL
REMARK 927      BINDING AFFINITY PREDICTED BY RF-SCORE:    0.00 PKD
ROOT
HETATM    1  C   UNL     1     -10.249  11.446  68.505  1.00  0.00    -0.208 C  
HETATM    2  C   UNL     1     -10.417  10.605  69.768  1.00  0.00    -0.189 C  
HETATM    3  O   UNL     1     -10.850  11.261  66.153  1.00  0.00    -0.267 OA 
HETATM    4  C   UNL     1     -11.009   6.055  68.924  1.00  0.00    -0.395 A  
HETATM    5  N   UNL     1      -9.555   9.534  66.955  1.00  0.00    -0.157 N  
HETATM    6  C   UNL     1      -9.483   9.410  69.829  1.00  0.00    -0.216 C  
HETATM    7  C   UNL     1     -10.331  10.702  67.129  1.00  0.00    -0.228 C  
HETATM    8  C   UNL     1     -10.521   7.243  66.880  1.00  0.00    -0.369 A  
HETATM    9  C   UNL     1     -10.036   8.282  69.003  1.00  0.00    -0.208 A  
HETATM   10  C   UNL     1     -10.522   7.134  69.653  1.00  0.00    -0.241 A  
HETATM   11  C   UNL     1     -11.001   6.106  67.536  1.00  0.00    -0.404 A  
HETATM   12  C   UNL     1     -10.060   8.353  67.603  1.00  0.00    -0.209 A  
ENDROOT
BRANCH   1  13
HETATM   13  N   UNL     1     -11.264  12.527  68.492  1.00  0.00    -0.261 NA 
HETATM   14  H   UNL     1     -12.250  12.319  68.334  1.00  0.00     0.000 HD 
BRANCH  13  15
HETATM   15  C   UNL     1     -10.805  13.916  68.715  1.00  0.00    -0.263 C  
BRANCH  15  16
HETATM   16  C   UNL     1      -9.317  14.163  68.399  1.00  0.00    -0.208 C  
BRANCH  16  17
HETATM   17  C   UNL     1      -8.754  15.391  69.137  1.00  0.00    -0.242 C  
BRANCH  17  18
HETATM   18  C   UNL     1      -8.440  16.519  68.186  1.00  0.00    -0.191 A  
HETATM   19  C   UNL     1      -8.884  17.822  68.458  1.00  0.00    -0.284 A  
HETATM   20  C   UNL     1      -7.938  18.603  66.375  1.00  0.00    -0.298 A  
HETATM   21  C   UNL     1      -8.633  18.858  67.555  1.00  0.00    -0.296 A  
HETATM   22  C   UNL     1      -7.481  17.313  66.103  1.00  0.00    -0.321 A  
HETATM   23  C   UNL     1      -7.728  16.279  67.004  1.00  0.00    -0.250 A  
ENDBRANCH  17  18
ENDBRANCH  16  17
ENDBRANCH  15  16
BRANCH  15  24
HETATM   24  C   UNL     1     -11.645  14.835  67.798  1.00  0.00    -0.357 C  
HETATM   25  O   UNL     1     -11.887  16.012  68.033  1.00  0.00    -0.126 OA 
BRANCH  24  26
HETATM   26  O   UNL     1     -12.136  14.123  66.742  1.00  0.00    -0.429 OA 
BRANCH  26  27
HETATM   27  C   UNL     1     -11.972  14.737  65.453  1.00  0.00    -0.209 C  
HETATM   28  C   UNL     1     -10.519  14.641  65.023  1.00  0.00    -0.447 C  
ENDBRANCH  26  27
ENDBRANCH  24  26
ENDBRANCH  15  24
ENDBRANCH  13  15
ENDBRANCH   1  13
BRANCH   5  29
HETATM   29  C   UNL     1      -9.012   9.401  65.587  1.00  0.00    -0.193 C  
HETATM   30  C   UNL     1      -7.598   9.933  65.361  1.00  0.00    -0.131 C  
HETATM   31  O   UNL     1      -7.039   9.895  64.273  1.00  0.00    -0.122 OA 
HETATM   32  O   UNL     1      -7.002  10.494  66.437  1.00  0.00    -0.108 OA 
ENDBRANCH   5  29
TORSDOF 9
ENDMDL
MODEL      118
REMARK 921   NORMALIZED FREE ENERGY PREDICTED BY IDOCK:   -4.93 KCAL/MOL
REMARK 922        TOTAL FREE ENERGY PREDICTED BY IDOCK:   -9.68 KCAL/MOL
REMARK 923 INTER-LIGAND FREE ENERGY PREDICTED BY IDOCK:   -8.94 KCAL/MOL
REMARK 924 INTRA-LIGAND FREE ENERGY PREDICTED BY IDOCK:   -0.74 KCAL/MOL
REMARK 927      BINDING AFFINITY PREDICTED BY RF-SCORE:    0.00 PKD
ROOT
HETATM    1  C   UNL     1      -9.363  15.052  68.926  1.00  0.00    -0.208 C  
HETATM    2  C   UNL     1      -7.867  14.865  69.161  1.00  0.00    -0.171 C  
HETATM    3  O   UNL     1     -10.797  15.809  67.109  1.00  0.00    -0.321 OA 
HETATM    4  C   UNL     1      -5.192  17.506  66.396  1.00  0.00    -0.219 A  
HETATM    5  N   UNL     1      -9.210  17.335  67.782  1.00  0.00    -0.236 N  
HETATM    6  C   UNL     1      -7.120  16.168  69.380  1.00  0.00    -0.215 C  
HETATM    7  C   UNL     1      -9.796  16.049  67.797  1.00  0.00    -0.231 C  
HETATM    8  C   UNL     1      -7.524  18.056  66.102  1.00  0.00    -0.305 A  
HETATM    9  C   UNL     1      -6.832  16.825  68.058  1.00  0.00    -0.152 A  
HETATM   10  C   UNL     1      -5.505  16.877  67.597  1.00  0.00    -0.148 A  
HETATM   11  C   UNL     1      -6.202  18.103  65.652  1.00  0.00    -0.279 A  
HETATM   12  C   UNL     1      -7.858  17.394  67.292  1.00  0.00    -0.198 A  
ENDROOT
BRANCH   1  13
HETATM   13  N   UNL     1      -9.986  13.740  68.628  1.00  0.00    -0.330 NA 
HETATM   14  H   UNL     1      -9.415  12.936  68.365  1.00  0.00     0.000 HD 
BRANCH  13  15
HETATM   15  C   UNL     1     -11.458  13.630  68.723  1.00  0.00    -0.309 C  
BRANCH  15  16
HETATM   16  C   UNL     1     -12.093  12.607  67.761  1.00  0.00    -0.157 C  
BRANCH  16  17
HETATM   17  C   UNL     1     -12.007  13.051  66.289  1.00  0.00    -0.477 C  
BRANCH  17  18
HETATM   18  C   UNL     1     -11.135  12.126  65.476  1.00  0.00    -0.361 A  
HETATM   19  C   UNL     1     -10.536  11.007  66.072  1.00  0.00    -0.304 A  
HETATM   20  C   UNL     1      -9.439  10.458  63.988  1.00  0.00    -0.351 A  
HETATM   21  C   UNL     1      -9.693  10.177  65.329  1.00  0.00    -0.365 A  
HETATM   22  C   UNL     1     -10.042  11.561  63.384  1.00  0.00    -0.454 A  
HETATM   23  C   UNL     1     -10.886  12.389  64.123  1.00  0.00    -0.414 A  
ENDBRANCH  17  18
ENDBRANCH  16  17
ENDBRANCH  15  16
BRANCH  15  24
HETATM   24  C   UNL     1     -11.799  13.198  70.169  1.00  0.00    -0.257 C  
HETATM   25  O   UNL     1     -12.018  12.045  70.513  1.00  0.00    -0.351 OA 
BRANCH  24  26
HETATM   26  O   UNL     1     -11.896  14.296  70.975  1.00  0.00    -0.317 OA 
BRANCH  26  27
HETATM   27  C   UNL     1     -13.067  15.106  70.777  1.00  0.00    -0.397 C  
HETATM   28  C   UNL     1     -14.111  14.759  71.824  1.00  0.00    -0.598 C  
ENDBRANCH  26  27
ENDBRANCH  24  26
ENDBRANCH  15  24
ENDBRANCH  13  15
ENDBRANCH   1  13
BRANCH   5  29
HETATM   29  C   UNL     1     -10.152  18.393  67.361  1.00  0.00    -0.353 C  
HETATM   30  C   UNL     1     -10.166  19.667  68.203  1.00  0.00    -0.461 C  
HETATM   31  O   UNL     1     -10.909  20.611  67.968  1.00  0.00     0.272 OA 
HETATM   32  O   UNL     1      -9.329  19.680  69.264  1.00  0.00    -0.275 OA 
ENDBRANCH   5  29
TORSDOF 9
ENDMDL
MODEL      119
REMARK 921   NORMALIZED FREE ENERGY PREDICTED BY IDOCK:   -4.91 KCAL/MOL
REMARK 922        TOTAL FREE ENERGY PREDICTED BY IDOCK:   -9.65 KCAL/MOL
REMARK 923 INTER-LIGAND FREE ENERGY PREDICTED BY IDOCK:   -7.98 KCAL/MOL
REMARK 924 INTRA-LIGAND FREE ENERGY PREDICTED BY IDOCK:   -1.66 KCAL/MOL
REMARK 927      BINDING AFFINITY PREDICTED BY RF-SCORE:    0.00 PKD
ROOT
HETATM    1  C   UNL     1      -9.229  14.072  67.402  1.00  0.00    -0.216 C  
HETATM    2  C   UNL     1      -7.899  14.814  67.498  1.00  0.00    -0.208 C  
HETATM    3  O   UNL     1     -11.524  14.606  66.786  1.00  0.00    -0.352 OA 
HETATM    4  C   UNL     1      -8.363  19.424  68.050  1.00  0.00    -0.354 A  
HETATM    5  N   UNL     1     -10.667  15.877  68.504  1.00  0.00    -0.260 N  
HETATM    6  C   UNL     1      -7.801  15.728  68.705  1.00  0.00    -0.180 C  
HETATM    7  C   UNL     1     -10.539  14.930  67.463  1.00  0.00    -0.266 C  
HETATM    8  C   UNL     1     -10.515  18.335  68.150  1.00  0.00    -0.359 A  
HETATM    9  C   UNL     1      -8.507  17.026  68.428  1.00  0.00    -0.239 A  
HETATM   10  C   UNL     1      -7.746  18.197  68.273  1.00  0.00    -0.291 A  
HETATM   11  C   UNL     1      -9.749  19.493  67.997  1.00  0.00    -0.474 A  
HETATM   12  C   UNL     1      -9.904  17.086  68.338  1.00  0.00    -0.283 A  
ENDROOT
BRANCH   1  13
HETATM   13  N   UNL     1      -9.268  13.284  66.145  1.00  0.00    -0.472 NA 
HETATM   14  H   UNL     1      -9.320  13.747  65.238  1.00  0.00     0.000 HD 
BRANCH  13  15
HETATM   15  C   UNL     1      -9.229  11.808  66.247  1.00  0.00    -0.221 C  
BRANCH  15  16
HETATM   16  C   UNL     1      -7.913  11.234  66.807  1.00  0.00    -0.159 C  
BRANCH  16  17
HETATM   17  C   UNL     1      -7.502   9.922  66.115  1.00  0.00    -0.104 C  
BRANCH  17  18
HETATM   18  C   UNL     1      -7.991   8.712  66.873  1.00  0.00    -0.095 A  
HETATM   19  C   UNL     1      -7.309   8.265  68.014  1.00  0.00    -0.096 A  
HETATM   20  C   UNL     1      -8.843   6.409  68.230  1.00  0.00    -0.115 A  
HETATM   21  C   UNL     1      -7.736   7.118  68.688  1.00  0.00    -0.120 A  
HETATM   22  C   UNL     1      -9.536   6.855  67.104  1.00  0.00    -0.168 A  
HETATM   23  C   UNL     1      -9.113   8.001  66.431  1.00  0.00    -0.226 A  
ENDBRANCH  17  18
ENDBRANCH  16  17
ENDBRANCH  15  16
BRANCH  15  24
HETATM   24  C   UNL     1     -10.377  11.378  67.191  1.00  0.00    -0.212 C  
HETATM   25  O   UNL     1     -11.557  11.338  66.870  1.00  0.00    -0.464 OA 
BRANCH  24  26
HETATM   26  O   UNL     1      -9.888  11.132  68.442  1.00  0.00    -0.172 OA 
BRANCH  26  27
HETATM   27  C   UNL     1     -10.850  10.656  69.398  1.00  0.00    -0.246 C  
HETATM   28  C   UNL     1     -10.201   9.628  70.308  1.00  0.00    -0.333 C  
ENDBRANCH  26  27
ENDBRANCH  24  26
ENDBRANCH  15  24
ENDBRANCH  13  15
ENDBRANCH   1  13
BRANCH   5  29
HETATM   29  C   UNL     1     -12.049  15.989  69.015  1.00  0.00    -0.014 C  
HETATM   30  C   UNL     1     -12.262  15.640  70.487  1.00  0.00    -0.399 C  
HETATM   31  O   UNL     1     -13.359  15.679  71.028  1.00  0.00    -0.545 OA 
HETATM   32  O   UNL     1     -11.160  15.241  71.161  1.00  0.00    -0.340 OA 
ENDBRANCH   5  29
TORSDOF 9
ENDMDL
MODEL      120
REMARK 921   NORMALIZED FREE ENERGY PREDICTED BY IDOCK:   -4.90 KCAL/MOL
REMARK 922        TOTAL FREE ENERGY PREDICTED BY IDOCK:   -9.64 KCAL/MOL
REMARK 923 INTER-LIGAND FREE ENERGY PREDICTED BY IDOCK:   -8.30 KCAL/MOL
REMARK 924 INTRA-LIGAND FREE ENERGY PREDICTED BY IDOCK:   -1.34 KCAL/MOL
REMARK 927      BINDING AFFINITY PREDICTED BY RF-SCORE:    0.00 PKD
ROOT
HETATM    1  C   UNL     1      -9.164  10.681  67.318  1.00  0.00    -0.143 C  
HETATM    2  C   UNL     1      -9.439  10.866  68.808  1.00  0.00    -0.196 C  
HETATM    3  O   UNL     1     -10.027   9.299  65.509  1.00  0.00    -0.228 OA 
HETATM    4  C   UNL     1     -11.402   7.145  70.827  1.00  0.00    -0.322 A  
HETATM    5  N   UNL     1      -9.212   8.124  67.314  1.00  0.00    -0.136 N  
HETATM    6  C   UNL     1      -8.889   9.744  69.670  1.00  0.00    -0.224 C  
HETATM    7  C   UNL     1      -9.596   9.321  66.670  1.00  0.00    -0.204 C  
HETATM    8  C   UNL     1     -10.800   6.655  68.541  1.00  0.00    -0.319 A  
HETATM    9  C   UNL     1      -9.824   8.567  69.642  1.00  0.00    -0.183 A  
HETATM   10  C   UNL     1     -10.552   8.247  70.801  1.00  0.00    -0.236 A  
HETATM   11  C   UNL     1     -11.519   6.344  69.698  1.00  0.00    -0.446 A  
HETATM   12  C   UNL     1      -9.968   7.783  68.489  1.00  0.00    -0.182 A  
ENDROOT
BRANCH   1  13
HETATM   13  N   UNL     1      -9.820  11.771  66.555  1.00  0.00    -0.202 NA 
HETATM   14  H   UNL     1      -9.998  11.677  65.555  1.00  0.00     0.000 HD 
BRANCH  13  15
HETATM   15  C   UNL     1     -10.208  12.997  67.286  1.00  0.00    -0.239 C  
BRANCH  15  16
HETATM   16  C   UNL     1      -9.360  14.241  66.955  1.00  0.00    -0.249 C  
BRANCH  16  17
HETATM   17  C   UNL     1      -9.232  15.201  68.152  1.00  0.00    -0.184 C  
BRANCH  17  18
HETATM   18  C   UNL     1      -9.364  16.644  67.729  1.00  0.00    -0.222 A  
HETATM   19  C   UNL     1      -8.257  17.340  67.220  1.00  0.00    -0.213 A  
HETATM   20  C   UNL     1      -9.583  19.352  67.028  1.00  0.00    -0.412 A  
HETATM   21  C   UNL     1      -8.369  18.688  66.871  1.00  0.00    -0.269 A  
HETATM   22  C   UNL     1     -10.693  18.664  67.520  1.00  0.00    -0.447 A  
HETATM   23  C   UNL     1     -10.584  17.318  67.866  1.00  0.00    -0.384 A  
ENDBRANCH  17  18
ENDBRANCH  16  17
ENDBRANCH  15  16
BRANCH  15  24
HETATM   24  C   UNL     1     -11.678  13.311  66.919  1.00  0.00    -0.388 C  
HETATM   25  O   UNL     1     -12.358  14.169  67.464  1.00  0.00    -0.296 OA 
BRANCH  24  26
HETATM   26  O   UNL     1     -12.118  12.442  65.962  1.00  0.00    -0.600 OA 
BRANCH  26  27
HETATM   27  C   UNL     1     -12.640  13.050  64.769  1.00  0.00    -0.397 C  
HETATM   28  C   UNL     1     -12.519  12.080  63.607  1.00  0.00    -0.637 C  
ENDBRANCH  26  27
ENDBRANCH  24  26
ENDBRANCH  15  24
ENDBRANCH  13  15
ENDBRANCH   1  13
BRANCH   5  29
HETATM   29  C   UNL     1      -8.872   7.043  66.365  1.00  0.00    -0.145 C  
HETATM   30  C   UNL     1      -7.396   6.657  66.274  1.00  0.00    -0.073 C  
HETATM   31  O   UNL     1      -6.982   5.787  65.519  1.00  0.00    -0.064 OA 
HETATM   32  O   UNL     1      -6.553   7.366  67.057  1.00  0.00    -0.057 OA 
ENDBRANCH   5  29
TORSDOF 9
ENDMDL
MODEL      121
REMARK 921   NORMALIZED FREE ENERGY PREDICTED BY IDOCK:   -4.90 KCAL/MOL
REMARK 922        TOTAL FREE ENERGY PREDICTED BY IDOCK:   -9.64 KCAL/MOL
REMARK 923 INTER-LIGAND FREE ENERGY PREDICTED BY IDOCK:   -7.83 KCAL/MOL
REMARK 924 INTRA-LIGAND FREE ENERGY PREDICTED BY IDOCK:   -1.81 KCAL/MOL
REMARK 927      BINDING AFFINITY PREDICTED BY RF-SCORE:    0.00 PKD
ROOT
HETATM    1  C   UNL     1      -8.974   8.519  69.591  1.00  0.00    -0.145 C  
HETATM    2  C   UNL     1      -9.546   9.552  70.558  1.00  0.00    -0.312 C  
HETATM    3  O   UNL     1      -9.848   6.798  68.106  1.00  0.00    -0.134 OA 
HETATM    4  C   UNL     1     -13.787   8.461  72.171  1.00  0.00    -0.399 A  
HETATM    5  N   UNL     1     -10.462   6.567  70.313  1.00  0.00    -0.207 N  
HETATM    6  C   UNL     1     -10.035   8.953  71.864  1.00  0.00    -0.384 C  
HETATM    7  C   UNL     1      -9.872   7.281  69.246  1.00  0.00    -0.166 C  
HETATM    8  C   UNL     1     -12.890   6.653  70.846  1.00  0.00     0.091 A  
HETATM    9  C   UNL     1     -11.407   8.365  71.679  1.00  0.00    -0.349 A  
HETATM   10  C   UNL     1     -12.507   8.993  72.289  1.00  0.00    -0.427 A  
HETATM   11  C   UNL     1     -13.976   7.285  71.456  1.00  0.00    -0.486 A  
HETATM   12  C   UNL     1     -11.600   7.199  70.926  1.00  0.00    -0.311 A  
ENDROOT
BRANCH   1  13
HETATM   13  N   UNL     1      -8.615   9.182  68.313  1.00  0.00    -0.128 NA 
HETATM   14  H   UNL     1      -7.650   9.193  67.981  1.00  0.00     0.000 HD 
BRANCH  13  15
HETATM   15  C   UNL     1      -9.696   9.827  67.536  1.00  0.00    -0.157 C  
BRANCH  15  16
HETATM   16  C   UNL     1      -9.854  11.340  67.783  1.00  0.00    -0.186 C  
BRANCH  16  17
HETATM   17  C   UNL     1     -11.321  11.799  67.701  1.00  0.00    -0.370 C  
BRANCH  17  18
HETATM   18  C   UNL     1     -11.749  12.530  68.950  1.00  0.00    -0.367 A  
HETATM   19  C   UNL     1     -12.249  11.820  70.052  1.00  0.00    -0.317 A  
HETATM   20  C   UNL     1     -12.633  13.891  71.239  1.00  0.00    -0.450 A  
HETATM   21  C   UNL     1     -12.688  12.500  71.191  1.00  0.00    -0.340 A  
HETATM   22  C   UNL     1     -12.125  14.604  70.153  1.00  0.00    -0.385 A  
HETATM   23  C   UNL     1     -11.684  13.927  69.016  1.00  0.00    -0.378 A  
ENDBRANCH  17  18
ENDBRANCH  16  17
ENDBRANCH  15  16
BRANCH  15  24
HETATM   24  C   UNL     1      -9.376   9.620  66.037  1.00  0.00    -0.207 C  
HETATM   25  O   UNL     1     -10.139   9.900  65.122  1.00  0.00    -0.309 OA 
BRANCH  24  26
HETATM   26  O   UNL     1      -8.162   9.011  65.896  1.00  0.00    -0.111 OA 
BRANCH  26  27
HETATM   27  C   UNL     1      -7.289   9.595  64.914  1.00  0.00    -0.118 C  
HETATM   28  C   UNL     1      -6.482  10.713  65.548  1.00  0.00    -0.066 C  
ENDBRANCH  26  27
ENDBRANCH  24  26
ENDBRANCH  15  24
ENDBRANCH  13  15
ENDBRANCH   1  13
BRANCH   5  29
HETATM   29  C   UNL     1     -10.518   5.111  70.070  1.00  0.00    -0.235 C  
HETATM   30  C   UNL     1      -9.692   4.231  71.008  1.00  0.00    -0.190 C  
HETATM   31  O   UNL     1      -9.643   3.013  70.905  1.00  0.00    -0.153 OA 
HETATM   32  O   UNL     1      -8.974   4.886  71.948  1.00  0.00    -0.132 OA 
ENDBRANCH   5  29
TORSDOF 9
ENDMDL
MODEL      122
REMARK 921   NORMALIZED FREE ENERGY PREDICTED BY IDOCK:   -4.89 KCAL/MOL
REMARK 922        TOTAL FREE ENERGY PREDICTED BY IDOCK:   -9.62 KCAL/MOL
REMARK 923 INTER-LIGAND FREE ENERGY PREDICTED BY IDOCK:   -8.32 KCAL/MOL
REMARK 924 INTRA-LIGAND FREE ENERGY PREDICTED BY IDOCK:   -1.30 KCAL/MOL
REMARK 927      BINDING AFFINITY PREDICTED BY RF-SCORE:    0.00 PKD
ROOT
HETATM    1  C   UNL     1      -9.753  13.136  66.935  1.00  0.00    -0.243 C  
HETATM    2  C   UNL     1      -8.916  12.694  68.132  1.00  0.00    -0.199 C  
HETATM    3  O   UNL     1     -11.600  12.236  65.627  1.00  0.00    -0.359 OA 
HETATM    4  C   UNL     1      -8.824   8.070  68.748  1.00  0.00    -0.138 A  
HETATM    5  N   UNL     1      -9.729  10.896  65.701  1.00  0.00    -0.219 N  
HETATM    6  C   UNL     1      -7.894  11.624  67.794  1.00  0.00    -0.129 C  
HETATM    7  C   UNL     1     -10.482  12.018  66.114  1.00  0.00    -0.236 C  
HETATM    8  C   UNL     1      -9.975   8.633  66.702  1.00  0.00    -0.357 A  
HETATM    9  C   UNL     1      -8.555  10.274  67.756  1.00  0.00    -0.118 A  
HETATM   10  C   UNL     1      -8.260   9.341  68.766  1.00  0.00    -0.112 A  
HETATM   11  C   UNL     1      -9.675   7.713  67.710  1.00  0.00    -0.180 A  
HETATM   12  C   UNL     1      -9.442   9.931  66.728  1.00  0.00    -0.169 A  
ENDROOT
BRANCH   1  13
HETATM   13  N   UNL     1     -10.782  14.107  67.382  1.00  0.00    -0.282 NA 
HETATM   14  H   UNL     1     -11.468  14.483  66.728  1.00  0.00     0.000 HD 
BRANCH  13  15
HETATM   15  C   UNL     1     -10.784  14.514  68.805  1.00  0.00    -0.253 C  
BRANCH  15  16
HETATM   16  C   UNL     1     -10.631  16.028  69.043  1.00  0.00    -0.257 C  
BRANCH  16  17
HETATM   17  C   UNL     1     -10.966  16.859  67.791  1.00  0.00    -0.212 C  
BRANCH  17  18
HETATM   18  C   UNL     1     -10.084  18.078  67.675  1.00  0.00    -0.352 A  
HETATM   19  C   UNL     1      -8.735  18.017  68.053  1.00  0.00    -0.264 A  
HETATM   20  C   UNL     1      -8.465  20.366  67.548  1.00  0.00    -0.349 A  
HETATM   21  C   UNL     1      -7.931  19.157  67.988  1.00  0.00    -0.331 A  
HETATM   22  C   UNL     1      -9.803  20.432  67.158  1.00  0.00    -0.601 A  
HETATM   23  C   UNL     1     -10.607  19.294  67.219  1.00  0.00    -0.590 A  
ENDBRANCH  17  18
ENDBRANCH  16  17
ENDBRANCH  15  16
BRANCH  15  24
HETATM   24  C   UNL     1     -12.136  14.070  69.412  1.00  0.00    -0.340 C  
HETATM   25  O   UNL     1     -12.862  14.791  70.083  1.00  0.00    -0.273 OA 
BRANCH  24  26
HETATM   26  O   UNL     1     -12.353  12.747  69.157  1.00  0.00    -0.099 OA 
BRANCH  26  27
HETATM   27  C   UNL     1     -11.669  11.830  70.028  1.00  0.00    -0.305 C  
HETATM   28  C   UNL     1     -12.683  10.992  70.785  1.00  0.00    -0.414 C  
ENDBRANCH  26  27
ENDBRANCH  24  26
ENDBRANCH  15  24
ENDBRANCH  13  15
ENDBRANCH   1  13
BRANCH   5  29
HETATM   29  C   UNL     1     -10.120  10.400  64.365  1.00  0.00    -0.272 C  
HETATM   30  C   UNL     1      -8.989   9.904  63.464  1.00  0.00    -0.252 C  
HETATM   31  O   UNL     1      -9.179   9.481  62.331  1.00  0.00    -0.279 OA 
HETATM   32  O   UNL     1      -7.744   9.997  63.980  1.00  0.00    -0.138 OA 
ENDBRANCH   5  29
TORSDOF 9
ENDMDL
MODEL      123
REMARK 921   NORMALIZED FREE ENERGY PREDICTED BY IDOCK:   -4.88 KCAL/MOL
REMARK 922        TOTAL FREE ENERGY PREDICTED BY IDOCK:   -9.60 KCAL/MOL
REMARK 923 INTER-LIGAND FREE ENERGY PREDICTED BY IDOCK:   -7.90 KCAL/MOL
REMARK 924 INTRA-LIGAND FREE ENERGY PREDICTED BY IDOCK:   -1.70 KCAL/MOL
REMARK 927      BINDING AFFINITY PREDICTED BY RF-SCORE:    0.00 PKD
ROOT
HETATM    1  C   UNL     1      -9.623  10.080  69.043  1.00  0.00    -0.196 C  
HETATM    2  C   UNL     1      -9.951   9.465  67.685  1.00  0.00    -0.238 C  
HETATM    3  O   UNL     1      -7.984   9.720  70.808  1.00  0.00    -0.288 OA 
HETATM    4  C   UNL     1      -8.455   5.072  67.205  1.00  0.00    -0.105 A  
HETATM    5  N   UNL     1      -9.268   7.878  70.296  1.00  0.00    -0.152 N  
HETATM    6  C   UNL     1     -10.644   8.118  67.781  1.00  0.00    -0.233 C  
HETATM    7  C   UNL     1      -8.818   9.196  70.057  1.00  0.00    -0.182 C  
HETATM    8  C   UNL     1      -8.091   5.853  69.461  1.00  0.00    -0.106 A  
HETATM    9  C   UNL     1      -9.632   7.034  68.028  1.00  0.00    -0.133 A  
HETATM   10  C   UNL     1      -9.358   6.110  67.005  1.00  0.00    -0.132 A  
HETATM   11  C   UNL     1      -7.827   4.939  68.438  1.00  0.00    -0.082 A  
HETATM   12  C   UNL     1      -8.973   6.926  69.260  1.00  0.00    -0.137 A  
ENDROOT
BRANCH   1  13
HETATM   13  N   UNL     1      -8.865  11.340  68.846  1.00  0.00    -0.352 NA 
HETATM   14  H   UNL     1      -7.981  11.501  69.330  1.00  0.00     0.000 HD 
BRANCH  13  15
HETATM   15  C   UNL     1      -9.428  12.355  67.929  1.00  0.00    -0.198 C  
BRANCH  15  16
HETATM   16  C   UNL     1     -10.678  13.082  68.460  1.00  0.00    -0.275 C  
BRANCH  16  17
HETATM   17  C   UNL     1     -11.975  12.590  67.791  1.00  0.00    -0.286 C  
BRANCH  17  18
HETATM   18  C   UNL     1     -11.987  12.881  66.311  1.00  0.00    -0.472 A  
HETATM   19  C   UNL     1     -11.656  11.879  65.387  1.00  0.00    -0.284 A  
HETATM   20  C   UNL     1     -11.918  13.444  63.563  1.00  0.00    -0.467 A  
HETATM   21  C   UNL     1     -11.624  12.161  64.019  1.00  0.00    -0.504 A  
HETATM   22  C   UNL     1     -12.261  14.443  64.474  1.00  0.00    -0.483 A  
HETATM   23  C   UNL     1     -12.297  14.162  65.839  1.00  0.00    -0.486 A  
ENDBRANCH  17  18
ENDBRANCH  16  17
ENDBRANCH  15  16
BRANCH  15  24
HETATM   24  C   UNL     1      -8.330  13.415  67.680  1.00  0.00    -0.179 C  
HETATM   25  O   UNL     1      -7.138  13.162  67.570  1.00  0.00    -0.148 OA 
BRANCH  24  26
HETATM   26  O   UNL     1      -8.877  14.666  67.681  1.00  0.00    -0.169 OA 
BRANCH  26  27
HETATM   27  C   UNL     1      -8.865  15.346  66.415  1.00  0.00    -0.305 C  
HETATM   28  C   UNL     1      -9.746  16.580  66.490  1.00  0.00    -0.290 C  
ENDBRANCH  26  27
ENDBRANCH  24  26
ENDBRANCH  15  24
ENDBRANCH  13  15
ENDBRANCH   1  13
BRANCH   5  29
HETATM   29  C   UNL     1      -9.095   7.457  71.702  1.00  0.00    -0.130 C  
HETATM   30  C   UNL     1     -10.334   7.536  72.594  1.00  0.00    -0.259 C  
HETATM   31  O   UNL     1     -10.320   7.228  73.779  1.00  0.00    -0.360 OA 
HETATM   32  O   UNL     1     -11.454   8.009  72.004  1.00  0.00    -0.272 OA 
ENDBRANCH   5  29
TORSDOF 9
ENDMDL
MODEL      124
REMARK 921   NORMALIZED FREE ENERGY PREDICTED BY IDOCK:   -4.87 KCAL/MOL
REMARK 922        TOTAL FREE ENERGY PREDICTED BY IDOCK:   -9.59 KCAL/MOL
REMARK 923 INTER-LIGAND FREE ENERGY PREDICTED BY IDOCK:   -8.01 KCAL/MOL
REMARK 924 INTRA-LIGAND FREE ENERGY PREDICTED BY IDOCK:   -1.58 KCAL/MOL
REMARK 927      BINDING AFFINITY PREDICTED BY RF-SCORE:    0.00 PKD
ROOT
HETATM    1  C   UNL     1     -10.001  11.394  66.434  1.00  0.00    -0.214 C  
HETATM    2  C   UNL     1      -9.609  11.404  64.959  1.00  0.00    -0.250 C  
HETATM    3  O   UNL     1      -8.883  11.043  68.568  1.00  0.00    -0.147 OA 
HETATM    4  C   UNL     1      -5.753   8.947  64.028  1.00  0.00    -0.070 A  
HETATM    5  N   UNL     1      -8.693   9.294  67.083  1.00  0.00    -0.127 N  
HETATM    6  C   UNL     1      -9.377  10.019  64.384  1.00  0.00    -0.348 C  
HETATM    7  C   UNL     1      -9.067  10.614  67.422  1.00  0.00    -0.139 C  
HETATM    8  C   UNL     1      -6.406   8.665  66.335  1.00  0.00    -0.061 A  
HETATM    9  C   UNL     1      -8.001   9.534  64.748  1.00  0.00    -0.123 A  
HETATM   10  C   UNL     1      -7.027   9.424  63.740  1.00  0.00    -0.095 A  
HETATM   11  C   UNL     1      -5.445   8.559  65.326  1.00  0.00    -0.035 A  
HETATM   12  C   UNL     1      -7.683   9.179  66.065  1.00  0.00    -0.095 A  
ENDROOT
BRANCH   1  13
HETATM   13  N   UNL     1     -10.110  12.789  66.927  1.00  0.00    -0.229 NA 
HETATM   14  H   UNL     1      -9.352  13.219  67.457  1.00  0.00     0.000 HD 
BRANCH  13  15
HETATM   15  C   UNL     1     -11.351  13.537  66.629  1.00  0.00    -0.322 C  
BRANCH  15  16
HETATM   16  C   UNL     1     -12.150  13.982  67.869  1.00  0.00    -0.314 C  
BRANCH  16  17
HETATM   17  C   UNL     1     -11.496  13.527  69.186  1.00  0.00    -0.345 C  
BRANCH  17  18
HETATM   18  C   UNL     1     -12.353  13.863  70.382  1.00  0.00    -0.433 A  
HETATM   19  C   UNL     1     -12.856  12.843  71.204  1.00  0.00    -0.326 A  
HETATM   20  C   UNL     1     -14.022  14.476  72.552  1.00  0.00    -0.510 A  
HETATM   21  C   UNL     1     -13.686  13.151  72.284  1.00  0.00    -0.647 A  
HETATM   22  C   UNL     1     -13.515  15.497  71.748  1.00  0.00    -0.576 A  
HETATM   23  C   UNL     1     -12.684  15.192  70.671  1.00  0.00    -0.451 A  
ENDBRANCH  17  18
ENDBRANCH  16  17
ENDBRANCH  15  16
BRANCH  15  24
HETATM   24  C   UNL     1     -10.949  14.806  65.840  1.00  0.00    -0.335 C  
HETATM   25  O   UNL     1     -10.623  14.812  64.661  1.00  0.00    -0.374 OA 
BRANCH  24  26
HETATM   26  O   UNL     1     -10.937  15.890  66.671  1.00  0.00    -0.262 OA 
BRANCH  26  27
HETATM   27  C   UNL     1      -9.645  16.476  66.900  1.00  0.00    -0.243 C  
HETATM   28  C   UNL     1      -9.472  16.768  68.380  1.00  0.00    -0.241 C  
ENDBRANCH  26  27
ENDBRANCH  24  26
ENDBRANCH  15  24
ENDBRANCH  13  15
ENDBRANCH   1  13
BRANCH   5  29
HETATM   29  C   UNL     1      -8.606   8.401  68.257  1.00  0.00    -0.139 C  
HETATM   30  C   UNL     1      -9.768   7.429  68.460  1.00  0.00    -0.151 C  
HETATM   31  O   UNL     1      -9.823   6.646  69.400  1.00  0.00    -0.150 OA 
HETATM   32  O   UNL     1     -10.767   7.509  67.554  1.00  0.00    -0.256 OA 
ENDBRANCH   5  29
TORSDOF 9
ENDMDL
MODEL      125
REMARK 921   NORMALIZED FREE ENERGY PREDICTED BY IDOCK:   -4.84 KCAL/MOL
REMARK 922        TOTAL FREE ENERGY PREDICTED BY IDOCK:   -9.54 KCAL/MOL
REMARK 923 INTER-LIGAND FREE ENERGY PREDICTED BY IDOCK:   -7.78 KCAL/MOL
REMARK 924 INTRA-LIGAND FREE ENERGY PREDICTED BY IDOCK:   -1.76 KCAL/MOL
REMARK 927      BINDING AFFINITY PREDICTED BY RF-SCORE:    0.00 PKD
ROOT
HETATM    1  C   UNL     1     -10.261  10.090  68.648  1.00  0.00    -0.180 C  
HETATM    2  C   UNL     1     -10.114  10.278  67.141  1.00  0.00    -0.259 C  
HETATM    3  O   UNL     1      -8.874   9.291  70.483  1.00  0.00    -0.206 OA 
HETATM    4  C   UNL     1      -6.845   7.557  65.222  1.00  0.00    -0.048 A  
HETATM    5  N   UNL     1      -9.174   7.778  68.774  1.00  0.00    -0.140 N  
HETATM    6  C   UNL     1     -10.176   8.979  66.359  1.00  0.00    -0.297 C  
HETATM    7  C   UNL     1      -9.299   9.065  69.343  1.00  0.00    -0.158 C  
HETATM    8  C   UNL     1      -7.150   7.006  67.553  1.00  0.00    -0.085 A  
HETATM    9  C   UNL     1      -8.841   8.287  66.404  1.00  0.00    -0.180 A  
HETATM   10  C   UNL     1      -8.069   8.218  65.231  1.00  0.00    -0.142 A  
HETATM   11  C   UNL     1      -6.389   6.944  66.382  1.00  0.00    -0.050 A  
HETATM   12  C   UNL     1      -8.368   7.701  67.585  1.00  0.00    -0.118 A  
ENDROOT
BRANCH   1  13
HETATM   13  N   UNL     1     -10.091  11.396  69.329  1.00  0.00    -0.426 NA 
HETATM   14  H   UNL     1      -9.170  11.826  69.419  1.00  0.00     0.000 HD 
BRANCH  13  15
HETATM   15  C   UNL     1     -11.296  12.059  69.876  1.00  0.00    -0.065 C  
BRANCH  15  16
HETATM   16  C   UNL     1     -12.018  12.999  68.891  1.00  0.00    -0.303 C  
BRANCH  16  17
HETATM   17  C   UNL     1     -11.039  13.868  68.081  1.00  0.00    -0.278 C  
BRANCH  17  18
HETATM   18  C   UNL     1     -11.423  13.935  66.624  1.00  0.00    -0.370 A  
HETATM   19  C   UNL     1     -12.051  12.844  66.004  1.00  0.00    -0.484 A  
HETATM   20  C   UNL     1     -12.055  14.020  63.891  1.00  0.00    -0.350 A  
HETATM   21  C   UNL     1     -12.365  12.890  64.643  1.00  0.00    -0.501 A  
HETATM   22  C   UNL     1     -11.443  15.115  64.503  1.00  0.00    -0.319 A  
HETATM   23  C   UNL     1     -11.131  15.073  65.861  1.00  0.00    -0.334 A  
ENDBRANCH  17  18
ENDBRANCH  16  17
ENDBRANCH  15  16
BRANCH  15  24
HETATM   24  C   UNL     1     -12.289  10.947  70.288  1.00  0.00    -0.330 C  
HETATM   25  O   UNL     1     -13.273  10.623  69.637  1.00  0.00     0.039 OA 
BRANCH  24  26
HETATM   26  O   UNL     1     -11.951  10.446  71.513  1.00  0.00    -0.333 OA 
BRANCH  26  27
HETATM   27  C   UNL     1     -12.686   9.284  71.929  1.00  0.00    -0.394 C  
HETATM   28  C   UNL     1     -11.723   8.216  72.413  1.00  0.00    -0.461 C  
ENDBRANCH  26  27
ENDBRANCH  24  26
ENDBRANCH  15  24
ENDBRANCH  13  15
ENDBRANCH   1  13
BRANCH   5  29
HETATM   29  C   UNL     1      -9.027   6.712  69.788  1.00  0.00    -0.143 C  
HETATM   30  C   UNL     1     -10.261   5.852  70.057  1.00  0.00    -0.224 C  
HETATM   31  O   UNL     1     -10.273   4.947  70.881  1.00  0.00    -0.227 OA 
HETATM   32  O   UNL     1     -11.368   6.177  69.354  1.00  0.00    -0.420 OA 
ENDBRANCH   5  29
TORSDOF 9
ENDMDL
MODEL      126
REMARK 921   NORMALIZED FREE ENERGY PREDICTED BY IDOCK:   -4.82 KCAL/MOL
REMARK 922        TOTAL FREE ENERGY PREDICTED BY IDOCK:   -9.51 KCAL/MOL
REMARK 923 INTER-LIGAND FREE ENERGY PREDICTED BY IDOCK:   -8.17 KCAL/MOL
REMARK 924 INTRA-LIGAND FREE ENERGY PREDICTED BY IDOCK:   -1.35 KCAL/MOL
REMARK 927      BINDING AFFINITY PREDICTED BY RF-SCORE:    0.00 PKD
ROOT
HETATM    1  C   UNL     1      -9.190  11.914  66.882  1.00  0.00    -0.193 C  
HETATM    2  C   UNL     1      -9.231  11.103  65.590  1.00  0.00    -0.238 C  
HETATM    3  O   UNL     1      -7.955  11.855  68.980  1.00  0.00    -0.015 OA 
HETATM    4  C   UNL     1      -7.679   6.730  66.072  1.00  0.00    -0.093 A  
HETATM    5  N   UNL     1      -9.109   9.925  68.488  1.00  0.00    -0.123 N  
HETATM    6  C   UNL     1      -9.932   9.765  65.736  1.00  0.00    -0.349 C  
HETATM    7  C   UNL     1      -8.616  11.207  68.158  1.00  0.00    -0.140 C  
HETATM    8  C   UNL     1      -7.789   7.834  68.216  1.00  0.00    -0.121 A  
HETATM    9  C   UNL     1      -8.996   8.756  66.341  1.00  0.00    -0.194 A  
HETATM   10  C   UNL     1      -8.518   7.703  65.541  1.00  0.00    -0.132 A  
HETATM   11  C   UNL     1      -7.321   6.791  67.413  1.00  0.00    -0.095 A  
HETATM   12  C   UNL     1      -8.607   8.843  67.684  1.00  0.00    -0.124 A  
ENDROOT
BRANCH   1  13
HETATM   13  N   UNL     1      -8.405  13.154  66.665  1.00  0.00    -0.410 NA 
HETATM   14  H   UNL     1      -7.443  13.113  66.329  1.00  0.00     0.000 HD 
BRANCH  13  15
HETATM   15  C   UNL     1      -9.058  14.450  66.950  1.00  0.00    -0.251 C  
BRANCH  15  16
HETATM   16  C   UNL     1      -8.168  15.687  66.716  1.00  0.00    -0.300 C  
BRANCH  16  17
HETATM   17  C   UNL     1      -8.172  16.652  67.915  1.00  0.00    -0.183 C  
BRANCH  17  18
HETATM   18  C   UNL     1      -8.815  17.972  67.568  1.00  0.00    -0.252 A  
HETATM   19  C   UNL     1      -8.034  19.131  67.442  1.00  0.00    -0.283 A  
HETATM   20  C   UNL     1     -10.018  20.447  67.016  1.00  0.00    -0.568 A  
HETATM   21  C   UNL     1      -8.635  20.361  67.166  1.00  0.00    -0.402 A  
HETATM   22  C   UNL     1     -10.800  19.297  67.127  1.00  0.00    -0.543 A  
HETATM   23  C   UNL     1     -10.202  18.067  67.399  1.00  0.00    -0.370 A  
ENDBRANCH  17  18
ENDBRANCH  16  17
ENDBRANCH  15  16
BRANCH  15  24
HETATM   24  C   UNL     1     -10.288  14.565  66.020  1.00  0.00    -0.309 C  
HETATM   25  O   UNL     1     -10.249  14.434  64.804  1.00  0.00    -0.404 OA 
BRANCH  24  26
HETATM   26  O   UNL     1     -11.393  14.910  66.744  1.00  0.00    -0.344 OA 
BRANCH  26  27
HETATM   27  C   UNL     1     -12.278  13.826  67.073  1.00  0.00    -0.340 C  
HETATM   28  C   UNL     1     -12.019  13.371  68.498  1.00  0.00    -0.363 C  
ENDBRANCH  26  27
ENDBRANCH  24  26
ENDBRANCH  15  24
ENDBRANCH  13  15
ENDBRANCH   1  13
BRANCH   5  29
HETATM   29  C   UNL     1      -9.233   9.713  69.945  1.00  0.00    -0.229 C  
HETATM   30  C   UNL     1     -10.653   9.627  70.503  1.00  0.00    -0.306 C  
HETATM   31  O   UNL     1     -10.891   9.466  71.693  1.00  0.00    -0.368 OA 
HETATM   32  O   UNL     1     -11.649   9.779  69.602  1.00  0.00    -0.126 OA 
ENDBRANCH   5  29
TORSDOF 9
ENDMDL
MODEL      127
REMARK 921   NORMALIZED FREE ENERGY PREDICTED BY IDOCK:   -4.82 KCAL/MOL
REMARK 922        TOTAL FREE ENERGY PREDICTED BY IDOCK:   -9.51 KCAL/MOL
REMARK 923 INTER-LIGAND FREE ENERGY PREDICTED BY IDOCK:   -7.86 KCAL/MOL
REMARK 924 INTRA-LIGAND FREE ENERGY PREDICTED BY IDOCK:   -1.65 KCAL/MOL
REMARK 927      BINDING AFFINITY PREDICTED BY RF-SCORE:    0.00 PKD
ROOT
HETATM    1  C   UNL     1     -10.544   9.959  66.827  1.00  0.00    -0.144 C  
HETATM    2  C   UNL     1     -10.688  10.491  68.250  1.00  0.00    -0.270 C  
HETATM    3  O   UNL     1      -9.395  10.626  64.787  1.00  0.00    -0.201 OA 
HETATM    4  C   UNL     1      -9.927  15.080  68.619  1.00  0.00    -0.220 A  
HETATM    5  N   UNL     1     -10.851  12.198  65.631  1.00  0.00    -0.274 N  
HETATM    6  C   UNL     1     -11.613  11.690  68.358  1.00  0.00    -0.376 C  
HETATM    7  C   UNL     1     -10.135  10.983  65.713  1.00  0.00    -0.252 C  
HETATM    8  C   UNL     1      -9.904  14.397  66.304  1.00  0.00    -0.321 A  
HETATM    9  C   UNL     1     -10.882  12.942  67.962  1.00  0.00    -0.261 A  
HETATM   10  C   UNL     1     -10.571  13.893  68.950  1.00  0.00    -0.228 A  
HETATM   11  C   UNL     1      -9.601  15.336  67.293  1.00  0.00    -0.214 A  
HETATM   12  C   UNL     1     -10.521  13.180  66.629  1.00  0.00    -0.277 A  
ENDROOT
BRANCH   1  13
HETATM   13  N   UNL     1      -9.551   8.857  66.809  1.00  0.00    -0.183 NA 
HETATM   14  H   UNL     1      -9.696   8.030  66.230  1.00  0.00     0.000 HD 
BRANCH  13  15
HETATM   15  C   UNL     1      -8.345   8.992  67.656  1.00  0.00    -0.117 C  
BRANCH  15  16
HETATM   16  C   UNL     1      -8.208   7.924  68.759  1.00  0.00    -0.127 C  
BRANCH  16  17
HETATM   17  C   UNL     1      -9.446   7.014  68.855  1.00  0.00    -0.137 C  
BRANCH  17  18
HETATM   18  C   UNL     1     -10.270   7.318  70.082  1.00  0.00    -0.209 A  
HETATM   19  C   UNL     1     -11.433   6.584  70.357  1.00  0.00    -0.465 A  
HETATM   20  C   UNL     1     -11.854   7.941  72.313  1.00  0.00    -0.404 A  
HETATM   21  C   UNL     1     -12.219   6.895  71.469  1.00  0.00    -0.415 A  
HETATM   22  C   UNL     1     -10.691   8.668  72.055  1.00  0.00    -0.427 A  
HETATM   23  C   UNL     1      -9.903   8.356  70.947  1.00  0.00    -0.223 A  
ENDBRANCH  17  18
ENDBRANCH  16  17
ENDBRANCH  15  16
BRANCH  15  24
HETATM   24  C   UNL     1      -7.112   8.881  66.729  1.00  0.00    -0.081 C  
HETATM   25  O   UNL     1      -6.058   9.476  66.908  1.00  0.00    -0.061 OA 
BRANCH  24  26
HETATM   26  O   UNL     1      -7.403   8.093  65.653  1.00  0.00    -0.073 OA 
BRANCH  26  27
HETATM   27  C   UNL     1      -6.413   7.104  65.326  1.00  0.00    -0.047 C  
HETATM   28  C   UNL     1      -6.621   6.624  63.901  1.00  0.00    -0.041 C  
ENDBRANCH  26  27
ENDBRANCH  24  26
ENDBRANCH  15  24
ENDBRANCH  13  15
ENDBRANCH   1  13
BRANCH   5  29
HETATM   29  C   UNL     1     -11.050  12.656  64.239  1.00  0.00    -0.362 C  
HETATM   30  C   UNL     1     -12.398  13.299  63.920  1.00  0.00    -0.351 C  
HETATM   31  O   UNL     1     -12.692  13.707  62.804  1.00  0.00    -0.420 OA 
HETATM   32  O   UNL     1     -13.279  13.357  64.943  1.00  0.00    -0.679 OA 
ENDBRANCH   5  29
TORSDOF 9
ENDMDL
MODEL      128
REMARK 921   NORMALIZED FREE ENERGY PREDICTED BY IDOCK:   -4.81 KCAL/MOL
REMARK 922        TOTAL FREE ENERGY PREDICTED BY IDOCK:   -9.50 KCAL/MOL
REMARK 923 INTER-LIGAND FREE ENERGY PREDICTED BY IDOCK:   -8.78 KCAL/MOL
REMARK 924 INTRA-LIGAND FREE ENERGY PREDICTED BY IDOCK:   -0.72 KCAL/MOL
REMARK 927      BINDING AFFINITY PREDICTED BY RF-SCORE:    0.00 PKD
ROOT
HETATM    1  C   UNL     1      -9.487  12.932  68.206  1.00  0.00    -0.206 C  
HETATM    2  C   UNL     1     -10.758  13.658  67.773  1.00  0.00    -0.255 C  
HETATM    3  O   UNL     1      -7.609  11.831  67.115  1.00  0.00    -0.141 OA 
HETATM    4  C   UNL     1     -12.233  12.471  63.508  1.00  0.00    -0.652 A  
HETATM    5  N   UNL     1      -9.676  10.980  66.563  1.00  0.00    -0.193 N  
HETATM    6  C   UNL     1     -11.848  12.727  67.276  1.00  0.00    -0.414 C  
HETATM    7  C   UNL     1      -8.841  11.938  67.180  1.00  0.00    -0.180 C  
HETATM    8  C   UNL     1     -10.366  11.094  64.176  1.00  0.00    -0.423 A  
HETATM    9  C   UNL     1     -11.582  12.338  65.848  1.00  0.00    -0.450 A  
HETATM   10  C   UNL     1     -12.424  12.834  64.837  1.00  0.00    -0.563 A  
HETATM   11  C   UNL     1     -11.208  11.593  63.179  1.00  0.00    -0.180 A  
HETATM   12  C   UNL     1     -10.524  11.482  65.515  1.00  0.00    -0.275 A  
ENDROOT
BRANCH   1  13
HETATM   13  N   UNL     1      -8.451  13.926  68.581  1.00  0.00    -0.296 NA 
HETATM   14  H   UNL     1      -8.310  14.193  69.555  1.00  0.00     0.000 HD 
BRANCH  13  15
HETATM   15  C   UNL     1      -7.631  14.517  67.501  1.00  0.00    -0.190 C  
BRANCH  15  16
HETATM   16  C   UNL     1      -8.080  15.918  67.043  1.00  0.00    -0.265 C  
BRANCH  16  17
HETATM   17  C   UNL     1      -8.844  16.680  68.140  1.00  0.00    -0.206 C  
BRANCH  17  18
HETATM   18  C   UNL     1      -9.406  17.984  67.629  1.00  0.00    -0.259 A  
HETATM   19  C   UNL     1     -10.126  18.023  66.425  1.00  0.00    -0.384 A  
HETATM   20  C   UNL     1     -10.375  20.420  66.628  1.00  0.00    -0.286 A  
HETATM   21  C   UNL     1     -10.607  19.237  65.929  1.00  0.00    -0.521 A  
HETATM   22  C   UNL     1      -9.672  20.387  67.833  1.00  0.00    -0.426 A  
HETATM   23  C   UNL     1      -9.193  19.176  68.331  1.00  0.00    -0.406 A  
ENDBRANCH  17  18
ENDBRANCH  16  17
ENDBRANCH  15  16
BRANCH  15  24
HETATM   24  C   UNL     1      -6.181  14.630  68.029  1.00  0.00    -0.156 C  
HETATM   25  O   UNL     1      -5.215  14.083  67.516  1.00  0.00    -0.328 OA 
BRANCH  24  26
HETATM   26  O   UNL     1      -6.158  15.357  69.184  1.00  0.00    -0.102 OA 
BRANCH  26  27
HETATM   27  C   UNL     1      -5.202  16.430  69.219  1.00  0.00    -0.120 C  
HETATM   28  C   UNL     1      -5.658  17.489  70.206  1.00  0.00    -0.236 C  
ENDBRANCH  26  27
ENDBRANCH  24  26
ENDBRANCH  15  24
ENDBRANCH  13  15
ENDBRANCH   1  13
BRANCH   5  29
HETATM   29  C   UNL     1      -9.006   9.679  66.357  1.00  0.00    -0.152 C  
HETATM   30  C   UNL     1      -9.782   8.437  66.792  1.00  0.00    -0.242 C  
HETATM   31  O   UNL     1      -9.333   7.303  66.687  1.00  0.00    -0.159 OA 
HETATM   32  O   UNL     1     -10.993   8.664  67.345  1.00  0.00    -0.114 OA 
ENDBRANCH   5  29
TORSDOF 9
ENDMDL
MODEL      129
REMARK 921   NORMALIZED FREE ENERGY PREDICTED BY IDOCK:   -4.80 KCAL/MOL
REMARK 922        TOTAL FREE ENERGY PREDICTED BY IDOCK:   -9.48 KCAL/MOL
REMARK 923 INTER-LIGAND FREE ENERGY PREDICTED BY IDOCK:   -7.79 KCAL/MOL
REMARK 924 INTRA-LIGAND FREE ENERGY PREDICTED BY IDOCK:   -1.68 KCAL/MOL
REMARK 927      BINDING AFFINITY PREDICTED BY RF-SCORE:    0.00 PKD
ROOT
HETATM    1  C   UNL     1      -8.948  13.864  67.759  1.00  0.00    -0.188 C  
HETATM    2  C   UNL     1      -7.670  14.699  67.785  1.00  0.00    -0.169 C  
HETATM    3  O   UNL     1     -11.232  14.133  66.959  1.00  0.00    -0.299 OA 
HETATM    4  C   UNL     1      -8.429  19.295  67.513  1.00  0.00    -0.324 A  
HETATM    5  N   UNL     1     -10.546  15.731  68.468  1.00  0.00    -0.244 N  
HETATM    6  C   UNL     1      -7.691  15.808  68.820  1.00  0.00    -0.177 C  
HETATM    7  C   UNL     1     -10.307  14.632  67.614  1.00  0.00    -0.233 C  
HETATM    8  C   UNL     1     -10.517  18.097  67.703  1.00  0.00    -0.432 A  
HETATM    9  C   UNL     1      -8.455  16.991  68.292  1.00  0.00    -0.233 A  
HETATM   10  C   UNL     1      -7.755  18.167  67.971  1.00  0.00    -0.259 A  
HETATM   11  C   UNL     1      -9.812  19.262  67.387  1.00  0.00    -0.425 A  
HETATM   12  C   UNL     1      -9.846  16.942  68.131  1.00  0.00    -0.264 A  
ENDROOT
BRANCH   1  13
HETATM   13  N   UNL     1      -8.872  12.875  66.657  1.00  0.00    -0.401 NA 
HETATM   14  H   UNL     1      -8.882  13.174  65.682  1.00  0.00     0.000 HD 
BRANCH  13  15
HETATM   15  C   UNL     1      -8.781  11.441  67.013  1.00  0.00    -0.160 C  
BRANCH  15  16
HETATM   16  C   UNL     1     -10.090  10.648  66.837  1.00  0.00    -0.260 C  
BRANCH  16  17
HETATM   17  C   UNL     1     -10.487   9.877  68.108  1.00  0.00    -0.256 C  
BRANCH  17  18
HETATM   18  C   UNL     1     -10.073   8.428  68.036  1.00  0.00    -0.245 A  
HETATM   19  C   UNL     1     -10.828   7.508  67.294  1.00  0.00    -0.297 A  
HETATM   20  C   UNL     1      -9.357   5.715  67.976  1.00  0.00    -0.114 A  
HETATM   21  C   UNL     1     -10.470   6.159  67.265  1.00  0.00    -0.317 A  
HETATM   22  C   UNL     1      -8.592   6.625  68.706  1.00  0.00    -0.122 A  
HETATM   23  C   UNL     1      -8.947   7.973  68.734  1.00  0.00    -0.141 A  
ENDBRANCH  17  18
ENDBRANCH  16  17
ENDBRANCH  15  16
BRANCH  15  24
HETATM   24  C   UNL     1      -7.710  10.803  66.098  1.00  0.00    -0.149 C  
HETATM   25  O   UNL     1      -6.507  10.830  66.318  1.00  0.00    -0.114 OA 
BRANCH  24  26
HETATM   26  O   UNL     1      -8.298  10.281  64.982  1.00  0.00    -0.159 OA 
BRANCH  26  27
HETATM   27  C   UNL     1      -7.624   9.153  64.399  1.00  0.00    -0.115 C  
HETATM   28  C   UNL     1      -8.069   7.878  65.093  1.00  0.00    -0.144 C  
ENDBRANCH  26  27
ENDBRANCH  24  26
ENDBRANCH  15  24
ENDBRANCH  13  15
ENDBRANCH   1  13
BRANCH   5  29
HETATM   29  C   UNL     1     -11.959  15.836  68.890  1.00  0.00    -0.252 C  
HETATM   30  C   UNL     1     -12.247  15.591  70.371  1.00  0.00    -0.406 C  
HETATM   31  O   UNL     1     -13.375  15.635  70.844  1.00  0.00    -0.556 OA 
HETATM   32  O   UNL     1     -11.176  15.279  71.134  1.00  0.00    -0.339 OA 
ENDBRANCH   5  29
TORSDOF 9
ENDMDL
MODEL      130
REMARK 921   NORMALIZED FREE ENERGY PREDICTED BY IDOCK:   -4.78 KCAL/MOL
REMARK 922        TOTAL FREE ENERGY PREDICTED BY IDOCK:   -9.44 KCAL/MOL
REMARK 923 INTER-LIGAND FREE ENERGY PREDICTED BY IDOCK:   -7.89 KCAL/MOL
REMARK 924 INTRA-LIGAND FREE ENERGY PREDICTED BY IDOCK:   -1.56 KCAL/MOL
REMARK 927      BINDING AFFINITY PREDICTED BY RF-SCORE:    0.00 PKD
ROOT
HETATM    1  C   UNL     1     -10.242  10.335  69.273  1.00  0.00    -0.227 C  
HETATM    2  C   UNL     1     -11.391  11.283  69.603  1.00  0.00    -0.359 C  
HETATM    3  O   UNL     1      -7.914  10.534  68.587  1.00  0.00    -0.109 OA 
HETATM    4  C   UNL     1     -10.956  15.503  67.659  1.00  0.00    -0.315 A  
HETATM    5  N   UNL     1      -9.422  11.564  67.185  1.00  0.00    -0.176 N  
HETATM    6  C   UNL     1     -12.014  11.929  68.379  1.00  0.00    -0.246 C  
HETATM    7  C   UNL     1      -9.080  10.894  68.381  1.00  0.00    -0.164 C  
HETATM    8  C   UNL     1      -9.214  14.023  66.881  1.00  0.00    -0.271 A  
HETATM    9  C   UNL     1     -11.178  13.096  67.931  1.00  0.00    -0.300 A  
HETATM   10  C   UNL     1     -11.682  14.398  68.092  1.00  0.00    -0.377 A  
HETATM   11  C   UNL     1      -9.724  15.314  67.045  1.00  0.00    -0.232 A  
HETATM   12  C   UNL     1      -9.920  12.904  67.346  1.00  0.00    -0.217 A  
ENDROOT
BRANCH   1  13
HETATM   13  N   UNL     1      -9.638   9.831  70.531  1.00  0.00    -0.355 NA 
HETATM   14  H   UNL     1      -8.675  10.057  70.778  1.00  0.00     0.000 HD 
BRANCH  13  15
HETATM   15  C   UNL     1     -10.475   8.991  71.417  1.00  0.00    -0.324 C  
BRANCH  15  16
HETATM   16  C   UNL     1     -11.045   7.722  70.753  1.00  0.00    -0.265 C  
BRANCH  16  17
HETATM   17  C   UNL     1      -9.949   6.701  70.399  1.00  0.00    -0.193 C  
BRANCH  17  18
HETATM   18  C   UNL     1     -10.101   6.184  68.989  1.00  0.00    -0.213 A  
HETATM   19  C   UNL     1     -10.662   6.995  67.991  1.00  0.00    -0.252 A  
HETATM   20  C   UNL     1     -10.471   5.195  66.389  1.00  0.00    -0.356 A  
HETATM   21  C   UNL     1     -10.844   6.501  66.698  1.00  0.00    -0.222 A  
HETATM   22  C   UNL     1      -9.900   4.386  67.372  1.00  0.00    -0.193 A  
HETATM   23  C   UNL     1      -9.715   4.878  68.663  1.00  0.00    -0.225 A  
ENDBRANCH  17  18
ENDBRANCH  16  17
ENDBRANCH  15  16
BRANCH  15  24
HETATM   24  C   UNL     1      -9.592   8.551  72.608  1.00  0.00    -0.223 C  
HETATM   25  O   UNL     1      -8.396   8.790  72.707  1.00  0.00    -0.412 OA 
BRANCH  24  26
HETATM   26  O   UNL     1     -10.323   7.796  73.480  1.00  0.00    -0.322 OA 
BRANCH  26  27
HETATM   27  C   UNL     1      -9.579   6.812  74.217  1.00  0.00    -0.275 C  
HETATM   28  C   UNL     1     -10.420   5.559  74.388  1.00  0.00    -0.236 C  
ENDBRANCH  26  27
ENDBRANCH  24  26
ENDBRANCH  15  24
ENDBRANCH  13  15
ENDBRANCH   1  13
BRANCH   5  29
HETATM   29  C   UNL     1      -8.470  11.299  66.085  1.00  0.00    -0.135 C  
HETATM   30  C   UNL     1      -9.045  10.647  64.829  1.00  0.00    -0.209 C  
HETATM   31  O   UNL     1      -8.361  10.365  63.854  1.00  0.00    -0.168 OA 
HETATM   32  O   UNL     1     -10.365  10.357  64.869  1.00  0.00    -0.317 OA 
ENDBRANCH   5  29
TORSDOF 9
ENDMDL
MODEL      131
REMARK 921   NORMALIZED FREE ENERGY PREDICTED BY IDOCK:   -4.76 KCAL/MOL
REMARK 922        TOTAL FREE ENERGY PREDICTED BY IDOCK:   -9.43 KCAL/MOL
REMARK 923 INTER-LIGAND FREE ENERGY PREDICTED BY IDOCK:   -8.24 KCAL/MOL
REMARK 924 INTRA-LIGAND FREE ENERGY PREDICTED BY IDOCK:   -1.19 KCAL/MOL
REMARK 927      BINDING AFFINITY PREDICTED BY RF-SCORE:    0.00 PKD
ROOT
HETATM    1  C   UNL     1     -10.445  11.057  67.483  1.00  0.00    -0.209 C  
HETATM    2  C   UNL     1     -10.971  10.959  68.913  1.00  0.00    -0.278 C  
HETATM    3  O   UNL     1      -9.298  12.716  66.120  1.00  0.00    -0.207 OA 
HETATM    4  C   UNL     1     -11.858  15.102  70.869  1.00  0.00    -0.373 A  
HETATM    5  N   UNL     1     -11.305  13.417  67.002  1.00  0.00    -0.305 N  
HETATM    6  C   UNL     1     -12.249  11.743  69.144  1.00  0.00    -0.169 C  
HETATM    7  C   UNL     1     -10.244  12.492  66.886  1.00  0.00    -0.226 C  
HETATM    8  C   UNL     1     -11.264  15.368  68.544  1.00  0.00    -0.321 A  
HETATM    9  C   UNL     1     -11.931  13.197  69.358  1.00  0.00    -0.347 A  
HETATM   10  C   UNL     1     -12.108  13.753  70.637  1.00  0.00    -0.405 A  
HETATM   11  C   UNL     1     -11.443  15.911  69.819  1.00  0.00    -0.342 A  
HETATM   12  C   UNL     1     -11.477  14.002  68.305  1.00  0.00    -0.304 A  
ENDROOT
BRANCH   1  13
HETATM   13  N   UNL     1      -9.149  10.342  67.382  1.00  0.00    -0.135 NA 
HETATM   14  H   UNL     1      -8.268  10.828  67.549  1.00  0.00     0.000 HD 
BRANCH  13  15
HETATM   15  C   UNL     1      -9.172   8.905  67.031  1.00  0.00    -0.137 C  
BRANCH  15  16
HETATM   16  C   UNL     1     -10.567   8.252  67.073  1.00  0.00    -0.328 C  
BRANCH  16  17
HETATM   17  C   UNL     1     -10.651   7.107  68.099  1.00  0.00    -0.241 C  
BRANCH  17  18
HETATM   18  C   UNL     1      -9.540   6.104  67.910  1.00  0.00    -0.118 A  
HETATM   19  C   UNL     1      -8.504   6.007  68.849  1.00  0.00    -0.116 A  
HETATM   20  C   UNL     1      -7.424   4.304  67.515  1.00  0.00    -0.069 A  
HETATM   21  C   UNL     1      -7.452   5.109  68.651  1.00  0.00    -0.074 A  
HETATM   22  C   UNL     1      -8.458   4.385  66.582  1.00  0.00    -0.105 A  
HETATM   23  C   UNL     1      -9.511   5.278  66.779  1.00  0.00    -0.142 A  
ENDBRANCH  17  18
ENDBRANCH  16  17
ENDBRANCH  15  16
BRANCH  15  24
HETATM   24  C   UNL     1      -8.626   8.770  65.590  1.00  0.00    -0.172 C  
HETATM   25  O   UNL     1      -7.862   7.889  65.220  1.00  0.00    -0.097 OA 
BRANCH  24  26
HETATM   26  O   UNL     1      -9.056   9.817  64.826  1.00  0.00    -0.210 OA 
BRANCH  26  27
HETATM   27  C   UNL     1      -8.292  10.066  63.635  1.00  0.00    -0.166 C  
HETATM   28  C   UNL     1      -9.221  10.139  62.437  1.00  0.00    -0.320 C  
ENDBRANCH  26  27
ENDBRANCH  24  26
ENDBRANCH  15  24
ENDBRANCH  13  15
ENDBRANCH   1  13
BRANCH   5  29
HETATM   29  C   UNL     1     -11.436  14.294  65.820  1.00  0.00    -0.335 C  
HETATM   30  C   UNL     1     -12.436  13.852  64.752  1.00  0.00    -0.354 C  
HETATM   31  O   UNL     1     -12.628  14.483  63.720  1.00  0.00    -0.825 OA 
HETATM   32  O   UNL     1     -13.077  12.687  64.993  1.00  0.00    -0.808 OA 
ENDBRANCH   5  29
TORSDOF 9
ENDMDL
MODEL      132
REMARK 921   NORMALIZED FREE ENERGY PREDICTED BY IDOCK:   -4.76 KCAL/MOL
REMARK 922        TOTAL FREE ENERGY PREDICTED BY IDOCK:   -9.42 KCAL/MOL
REMARK 923 INTER-LIGAND FREE ENERGY PREDICTED BY IDOCK:   -6.95 KCAL/MOL
REMARK 924 INTRA-LIGAND FREE ENERGY PREDICTED BY IDOCK:   -2.47 KCAL/MOL
REMARK 927      BINDING AFFINITY PREDICTED BY RF-SCORE:    0.00 PKD
ROOT
HETATM    1  C   UNL     1      -8.866  11.665  65.901  1.00  0.00    -0.057 C  
HETATM    2  C   UNL     1      -8.765  12.159  67.341  1.00  0.00    -0.177 C  
HETATM    3  O   UNL     1     -10.157  10.001  64.678  1.00  0.00    -0.271 OA 
HETATM    4  C   UNL     1     -10.194   9.033  70.497  1.00  0.00    -0.268 A  
HETATM    5  N   UNL     1      -8.930   9.165  66.438  1.00  0.00    -0.142 N  
HETATM    6  C   UNL     1      -8.027  11.202  68.259  1.00  0.00    -0.127 C  
HETATM    7  C   UNL     1      -9.453  10.230  65.671  1.00  0.00    -0.221 C  
HETATM    8  C   UNL     1     -10.177   8.063  68.287  1.00  0.00    -0.243 A  
HETATM    9  C   UNL     1      -8.948  10.098  68.701  1.00  0.00    -0.136 A  
HETATM   10  C   UNL     1      -9.371  10.057  70.041  1.00  0.00    -0.165 A  
HETATM   11  C   UNL     1     -10.591   8.031  69.621  1.00  0.00    -0.223 A  
HETATM   12  C   UNL     1      -9.376   9.109  67.804  1.00  0.00    -0.136 A  
ENDROOT
BRANCH   1  13
HETATM   13  N   UNL     1      -9.683  12.616  65.107  1.00  0.00    -0.478 NA 
HETATM   14  H   UNL     1      -9.689  12.579  64.088  1.00  0.00     0.000 HD 
BRANCH  13  15
HETATM   15  C   UNL     1     -10.488  13.620  65.838  1.00  0.00    -0.296 C  
BRANCH  15  16
HETATM   16  C   UNL     1     -10.592  14.992  65.145  1.00  0.00    -0.440 C  
BRANCH  16  17
HETATM   17  C   UNL     1     -10.481  16.164  66.137  1.00  0.00    -0.334 C  
BRANCH  17  18
HETATM   18  C   UNL     1      -9.244  16.056  66.995  1.00  0.00    -0.229 A  
HETATM   19  C   UNL     1      -7.971  16.219  66.429  1.00  0.00    -0.299 A  
HETATM   20  C   UNL     1      -6.938  15.764  68.566  1.00  0.00    -0.117 A  
HETATM   21  C   UNL     1      -6.824  16.074  67.213  1.00  0.00    -0.236 A  
HETATM   22  C   UNL     1      -8.200  15.613  69.140  1.00  0.00    -0.248 A  
HETATM   23  C   UNL     1      -9.346  15.760  68.359  1.00  0.00    -0.196 A  
ENDBRANCH  17  18
ENDBRANCH  16  17
ENDBRANCH  15  16
BRANCH  15  24
HETATM   24  C   UNL     1     -11.919  13.050  65.984  1.00  0.00    -0.440 C  
HETATM   25  O   UNL     1     -12.517  12.451  65.101  1.00  0.00    -0.583 OA 
BRANCH  24  26
HETATM   26  O   UNL     1     -12.434  13.384  67.203  1.00  0.00    -0.217 OA 
BRANCH  26  27
HETATM   27  C   UNL     1     -12.147  12.463  68.268  1.00  0.00    -0.048 C  
HETATM   28  C   UNL     1     -11.597  13.220  69.464  1.00  0.00    -0.349 C  
ENDBRANCH  26  27
ENDBRANCH  24  26
ENDBRANCH  15  24
ENDBRANCH  13  15
ENDBRANCH   1  13
BRANCH   5  29
HETATM   29  C   UNL     1      -8.840   7.900  65.680  1.00  0.00    -0.082 C  
HETATM   30  C   UNL     1      -7.457   7.255  65.593  1.00  0.00    -0.085 C  
HETATM   31  O   UNL     1      -7.247   6.214  64.985  1.00  0.00    -0.065 OA 
HETATM   32  O   UNL     1      -6.455   7.929  66.200  1.00  0.00    -0.045 OA 
ENDBRANCH   5  29
TORSDOF 9
ENDMDL
MODEL      133
REMARK 921   NORMALIZED FREE ENERGY PREDICTED BY IDOCK:   -4.75 KCAL/MOL
REMARK 922        TOTAL FREE ENERGY PREDICTED BY IDOCK:   -9.41 KCAL/MOL
REMARK 923 INTER-LIGAND FREE ENERGY PREDICTED BY IDOCK:   -8.69 KCAL/MOL
REMARK 924 INTRA-LIGAND FREE ENERGY PREDICTED BY IDOCK:   -0.72 KCAL/MOL
REMARK 927      BINDING AFFINITY PREDICTED BY RF-SCORE:    0.00 PKD
ROOT
HETATM    1  C   UNL     1     -10.258  10.306  69.278  1.00  0.00    -0.227 C  
HETATM    2  C   UNL     1      -8.818   9.802  69.224  1.00  0.00    -0.171 C  
HETATM    3  O   UNL     1     -11.852  10.952  71.002  1.00  0.00    -0.310 OA 
HETATM    4  C   UNL     1      -7.416   7.711  73.152  1.00  0.00    -0.119 A  
HETATM    5  N   UNL     1     -11.033   8.810  71.202  1.00  0.00    -0.249 N  
HETATM    6  C   UNL     1      -8.670   8.347  69.627  1.00  0.00    -0.133 C  
HETATM    7  C   UNL     1     -11.044  10.096  70.618  1.00  0.00    -0.322 C  
HETATM    8  C   UNL     1      -9.766   8.252  73.268  1.00  0.00    -0.104 A  
HETATM    9  C   UNL     1      -8.657   8.225  71.126  1.00  0.00    -0.168 A  
HETATM   10  C   UNL     1      -7.461   7.868  71.771  1.00  0.00    -0.078 A  
HETATM   11  C   UNL     1      -8.572   7.896  73.901  1.00  0.00    -0.332 A  
HETATM   12  C   UNL     1      -9.817   8.448  71.880  1.00  0.00    -0.258 A  
ENDROOT
BRANCH   1  13
HETATM   13  N   UNL     1     -10.287  11.756  68.964  1.00  0.00    -0.395 NA 
HETATM   14  H   UNL     1      -9.624  12.400  69.395  1.00  0.00     0.000 HD 
BRANCH  13  15
HETATM   15  C   UNL     1     -11.307  12.240  68.007  1.00  0.00    -0.293 C  
BRANCH  15  16
HETATM   16  C   UNL     1     -11.743  13.703  68.214  1.00  0.00    -0.398 C  
BRANCH  16  17
HETATM   17  C   UNL     1     -11.533  14.564  66.955  1.00  0.00    -0.375 C  
BRANCH  17  18
HETATM   18  C   UNL     1     -10.622  15.737  67.224  1.00  0.00    -0.313 A  
HETATM   19  C   UNL     1      -9.364  15.816  66.609  1.00  0.00    -0.284 A  
HETATM   20  C   UNL     1      -8.889  17.869  67.794  1.00  0.00    -0.251 A  
HETATM   21  C   UNL     1      -8.503  16.879  66.893  1.00  0.00    -0.243 A  
HETATM   22  C   UNL     1     -10.144  17.805  68.400  1.00  0.00    -0.376 A  
HETATM   23  C   UNL     1     -11.006  16.747  68.115  1.00  0.00    -0.309 A  
ENDBRANCH  17  18
ENDBRANCH  16  17
ENDBRANCH  15  16
BRANCH  15  24
HETATM   24  C   UNL     1     -10.706  12.117  66.587  1.00  0.00    -0.246 C  
HETATM   25  O   UNL     1      -9.532  12.328  66.313  1.00  0.00    -0.234 OA 
BRANCH  24  26
HETATM   26  O   UNL     1     -11.688  11.822  65.686  1.00  0.00    -0.321 OA 
BRANCH  26  27
HETATM   27  C   UNL     1     -11.304  11.910  64.304  1.00  0.00    -0.353 C  
HETATM   28  C   UNL     1     -12.514  12.267  63.459  1.00  0.00    -0.642 C  
ENDBRANCH  26  27
ENDBRANCH  24  26
ENDBRANCH  15  24
ENDBRANCH  13  15
ENDBRANCH   1  13
BRANCH   5  29
HETATM   29  C   UNL     1     -12.319   8.455  71.838  1.00  0.00    -0.347 C  
HETATM   30  C   UNL     1     -12.978   7.160  71.365  1.00  0.00    -0.368 C  
HETATM   31  O   UNL     1     -14.050   6.761  71.802  1.00  0.00    -0.245 OA 
HETATM   32  O   UNL     1     -12.323   6.488  70.392  1.00  0.00    -0.222 OA 
ENDBRANCH   5  29
TORSDOF 9
ENDMDL
MODEL      134
REMARK 921   NORMALIZED FREE ENERGY PREDICTED BY IDOCK:   -4.74 KCAL/MOL
REMARK 922        TOTAL FREE ENERGY PREDICTED BY IDOCK:   -9.39 KCAL/MOL
REMARK 923 INTER-LIGAND FREE ENERGY PREDICTED BY IDOCK:   -7.88 KCAL/MOL
REMARK 924 INTRA-LIGAND FREE ENERGY PREDICTED BY IDOCK:   -1.50 KCAL/MOL
REMARK 927      BINDING AFFINITY PREDICTED BY RF-SCORE:    0.00 PKD
ROOT
HETATM    1  C   UNL     1      -9.591   9.301  69.317  1.00  0.00    -0.161 C  
HETATM    2  C   UNL     1     -10.864  10.141  69.376  1.00  0.00    -0.274 C  
HETATM    3  O   UNL     1      -9.013   6.938  69.425  1.00  0.00    -0.138 OA 
HETATM    4  C   UNL     1     -14.402   8.028  71.565  1.00  0.00    -0.546 A  
HETATM    5  N   UNL     1     -10.170   7.731  71.251  1.00  0.00    -0.193 N  
HETATM    6  C   UNL     1     -11.441  10.268  70.774  1.00  0.00    -0.438 C  
HETATM    7  C   UNL     1      -9.644   7.867  69.947  1.00  0.00    -0.168 C  
HETATM    8  C   UNL     1     -12.386   6.711  71.739  1.00  0.00    -0.385 A  
HETATM    9  C   UNL     1     -12.235   9.038  71.117  1.00  0.00    -0.331 A  
HETATM   10  C   UNL     1     -13.634   9.134  71.216  1.00  0.00    -0.272 A  
HETATM   11  C   UNL     1     -13.776   6.818  71.835  1.00  0.00    -0.119 A  
HETATM   12  C   UNL     1     -11.603   7.810  71.353  1.00  0.00    -0.276 A  
ENDROOT
BRANCH   1  13
HETATM   13  N   UNL     1      -9.159   9.155  67.905  1.00  0.00    -0.128 NA 
HETATM   14  H   UNL     1      -8.171   9.167  67.655  1.00  0.00     0.000 HD 
BRANCH  13  15
HETATM   15  C   UNL     1     -10.205   8.990  66.871  1.00  0.00    -0.269 C  
BRANCH  15  16
HETATM   16  C   UNL     1     -10.019   9.870  65.620  1.00  0.00    -0.353 C  
BRANCH  16  17
HETATM   17  C   UNL     1      -9.591  11.307  65.968  1.00  0.00    -0.245 C  
BRANCH  17  18
HETATM   18  C   UNL     1     -10.457  12.332  65.277  1.00  0.00    -0.315 A  
HETATM   19  C   UNL     1     -10.187  13.701  65.419  1.00  0.00    -0.330 A  
HETATM   20  C   UNL     1     -12.118  14.243  64.068  1.00  0.00    -0.350 A  
HETATM   21  C   UNL     1     -11.015  14.651  64.815  1.00  0.00    -0.399 A  
HETATM   22  C   UNL     1     -12.385  12.883  63.911  1.00  0.00    -0.476 A  
HETATM   23  C   UNL     1     -11.558  11.934  64.509  1.00  0.00    -0.344 A  
ENDBRANCH  17  18
ENDBRANCH  16  17
ENDBRANCH  15  16
BRANCH  15  24
HETATM   24  C   UNL     1     -10.184   7.511  66.421  1.00  0.00     0.048 C  
HETATM   25  O   UNL     1     -11.041   6.688  66.711  1.00  0.00    -0.354 OA 
BRANCH  24  26
HETATM   26  O   UNL     1      -9.037   7.248  65.727  1.00  0.00    -0.086 OA 
BRANCH  26  27
HETATM   27  C   UNL     1      -8.397   6.001  66.044  1.00  0.00    -0.134 C  
HETATM   28  C   UNL     1      -8.383   5.107  64.816  1.00  0.00    -0.143 C  
ENDBRANCH  26  27
ENDBRANCH  24  26
ENDBRANCH  15  24
ENDBRANCH  13  15
ENDBRANCH   1  13
BRANCH   5  29
HETATM   29  C   UNL     1      -9.469   6.705  72.051  1.00  0.00    -0.148 C  
HETATM   30  C   UNL     1      -8.689   7.204  73.266  1.00  0.00    -0.134 C  
HETATM   31  O   UNL     1      -8.055   6.459  74.002  1.00  0.00    -0.107 OA 
HETATM   32  O   UNL     1      -8.704   8.541  73.466  1.00  0.00    -0.314 OA 
ENDBRANCH   5  29
TORSDOF 9
ENDMDL
MODEL      135
REMARK 921   NORMALIZED FREE ENERGY PREDICTED BY IDOCK:   -4.73 KCAL/MOL
REMARK 922        TOTAL FREE ENERGY PREDICTED BY IDOCK:   -9.38 KCAL/MOL
REMARK 923 INTER-LIGAND FREE ENERGY PREDICTED BY IDOCK:   -7.73 KCAL/MOL
REMARK 924 INTRA-LIGAND FREE ENERGY PREDICTED BY IDOCK:   -1.65 KCAL/MOL
REMARK 927      BINDING AFFINITY PREDICTED BY RF-SCORE:    0.00 PKD
ROOT
HETATM    1  C   UNL     1      -8.917   7.121  70.296  1.00  0.00    -0.152 C  
HETATM    2  C   UNL     1      -9.201   8.620  70.291  1.00  0.00    -0.178 C  
HETATM    3  O   UNL     1     -10.210   5.065  70.124  1.00  0.00    -0.251 OA 
HETATM    4  C   UNL     1     -13.558   9.706  71.558  1.00  0.00    -0.376 A  
HETATM    5  N   UNL     1     -10.834   6.453  71.852  1.00  0.00    -0.231 N  
HETATM    6  C   UNL     1      -9.807   9.127  71.587  1.00  0.00    -0.295 C  
HETATM    7  C   UNL     1     -10.098   6.165  70.681  1.00  0.00    -0.193 C  
HETATM    8  C   UNL     1     -13.157   7.341  71.832  1.00  0.00    -0.290 A  
HETATM    9  C   UNL     1     -11.284   8.846  71.609  1.00  0.00    -0.415 A  
HETATM   10  C   UNL     1     -12.185   9.920  71.506  1.00  0.00    -0.505 A  
HETATM   11  C   UNL     1     -14.044   8.416  71.729  1.00  0.00    -0.509 A  
HETATM   12  C   UNL     1     -11.771   7.539  71.744  1.00  0.00    -0.284 A  
ENDROOT
BRANCH   1  13
HETATM   13  N   UNL     1      -8.420   6.705  68.962  1.00  0.00    -0.129 NA 
HETATM   14  H   UNL     1      -7.549   6.183  68.866  1.00  0.00     0.000 HD 
BRANCH  13  15
HETATM   15  C   UNL     1      -9.224   7.071  67.775  1.00  0.00    -0.124 C  
BRANCH  15  16
HETATM   16  C   UNL     1      -8.890   8.448  67.169  1.00  0.00    -0.139 C  
BRANCH  16  17
HETATM   17  C   UNL     1     -10.118   9.123  66.530  1.00  0.00    -0.357 C  
BRANCH  17  18
HETATM   18  C   UNL     1     -10.320  10.525  67.052  1.00  0.00    -0.289 A  
HETATM   19  C   UNL     1     -11.380  10.811  67.925  1.00  0.00    -0.372 A  
HETATM   20  C   UNL     1     -10.756  13.147  67.952  1.00  0.00    -0.249 A  
HETATM   21  C   UNL     1     -11.594  12.117  68.372  1.00  0.00    -0.381 A  
HETATM   22  C   UNL     1      -9.691  12.868  67.094  1.00  0.00    -0.221 A  
HETATM   23  C   UNL     1      -9.474  11.564  66.649  1.00  0.00    -0.208 A  
ENDBRANCH  17  18
ENDBRANCH  16  17
ENDBRANCH  15  16
BRANCH  15  24
HETATM   24  C   UNL     1      -8.966   5.998  66.691  1.00  0.00    -0.128 C  
HETATM   25  O   UNL     1      -9.090   6.187  65.489  1.00  0.00    -0.070 OA 
BRANCH  24  26
HETATM   26  O   UNL     1      -8.661   4.803  67.278  1.00  0.00    -0.105 OA 
BRANCH  26  27
HETATM   27  C   UNL     1      -9.391   3.669  66.782  1.00  0.00    -0.190 C  
HETATM   28  C   UNL     1      -9.237   2.503  67.743  1.00  0.00    -0.240 C  
ENDBRANCH  26  27
ENDBRANCH  24  26
ENDBRANCH  15  24
ENDBRANCH  13  15
ENDBRANCH   1  13
BRANCH   5  29
HETATM   29  C   UNL     1     -11.255   5.238  72.580  1.00  0.00    -0.248 C  
HETATM   30  C   UNL     1     -10.505   4.925  73.875  1.00  0.00    -0.267 C  
HETATM   31  O   UNL     1     -10.749   3.943  74.564  1.00  0.00    -0.198 OA 
HETATM   32  O   UNL     1      -9.516   5.785  74.203  1.00  0.00    -0.134 OA 
ENDBRANCH   5  29
TORSDOF 9
ENDMDL
MODEL      136
REMARK 921   NORMALIZED FREE ENERGY PREDICTED BY IDOCK:   -4.71 KCAL/MOL
REMARK 922        TOTAL FREE ENERGY PREDICTED BY IDOCK:   -9.35 KCAL/MOL
REMARK 923 INTER-LIGAND FREE ENERGY PREDICTED BY IDOCK:   -7.93 KCAL/MOL
REMARK 924 INTRA-LIGAND FREE ENERGY PREDICTED BY IDOCK:   -1.42 KCAL/MOL
REMARK 927      BINDING AFFINITY PREDICTED BY RF-SCORE:    0.00 PKD
ROOT
HETATM    1  C   UNL     1     -10.103   8.004  68.758  1.00  0.00    -0.195 C  
HETATM    2  C   UNL     1     -10.516   7.724  67.316  1.00  0.00    -0.392 C  
HETATM    3  O   UNL     1      -8.205   7.494  70.196  1.00  0.00    -0.127 OA 
HETATM    4  C   UNL     1      -8.446   3.972  65.469  1.00  0.00    -0.109 A  
HETATM    5  N   UNL     1      -9.251   5.652  69.293  1.00  0.00    -0.115 N  
HETATM    6  C   UNL     1     -10.976   6.297  67.082  1.00  0.00    -0.453 C  
HETATM    7  C   UNL     1      -9.044   7.045  69.403  1.00  0.00    -0.145 C  
HETATM    8  C   UNL     1      -7.903   4.176  67.812  1.00  0.00    -0.086 A  
HETATM    9  C   UNL     1      -9.786   5.392  66.919  1.00  0.00    -0.166 A  
HETATM   10  C   UNL     1      -9.516   4.841  65.654  1.00  0.00    -0.173 A  
HETATM   11  C   UNL     1      -7.644   3.633  66.551  1.00  0.00    -0.080 A  
HETATM   12  C   UNL     1      -8.957   5.082  68.005  1.00  0.00    -0.108 A  
ENDROOT
BRANCH   1  13
HETATM   13  N   UNL     1      -9.581   9.388  68.865  1.00  0.00    -0.153 NA 
HETATM   14  H   UNL     1      -8.650   9.625  68.520  1.00  0.00     0.000 HD 
BRANCH  13  15
HETATM   15  C   UNL     1     -10.447  10.413  69.486  1.00  0.00    -0.247 C  
BRANCH  15  16
HETATM   16  C   UNL     1     -11.579  10.936  68.580  1.00  0.00    -0.373 C  
BRANCH  16  17
HETATM   17  C   UNL     1     -11.302  12.354  68.050  1.00  0.00    -0.340 C  
BRANCH  17  18
HETATM   18  C   UNL     1     -10.978  12.348  66.576  1.00  0.00    -0.312 A  
HETATM   19  C   UNL     1     -10.930  13.550  65.854  1.00  0.00    -0.284 A  
HETATM   20  C   UNL     1     -10.468  12.332  63.817  1.00  0.00    -0.476 A  
HETATM   21  C   UNL     1     -10.675  13.539  64.481  1.00  0.00    -0.431 A  
HETATM   22  C   UNL     1     -10.501  11.134  64.530  1.00  0.00    -0.415 A  
HETATM   23  C   UNL     1     -10.752  11.142  65.902  1.00  0.00    -0.261 A  
ENDBRANCH  17  18
ENDBRANCH  16  17
ENDBRANCH  15  16
BRANCH  15  24
HETATM   24  C   UNL     1     -11.095   9.778  70.739  1.00  0.00    -0.345 C  
HETATM   25  O   UNL     1     -10.467   9.314  71.681  1.00  0.00    -0.344 OA 
BRANCH  24  26
HETATM   26  O   UNL     1     -12.452   9.741  70.598  1.00  0.00    -0.242 OA 
BRANCH  26  27
HETATM   27  C   UNL     1     -13.202   9.803  71.822  1.00  0.00    -0.436 C  
HETATM   28  C   UNL     1     -14.173   8.637  71.887  1.00  0.00    -0.507 C  
ENDBRANCH  26  27
ENDBRANCH  24  26
ENDBRANCH  15  24
ENDBRANCH  13  15
ENDBRANCH   1  13
BRANCH   5  29
HETATM   29  C   UNL     1      -8.826   4.910  70.498  1.00  0.00    -0.115 C  
HETATM   30  C   UNL     1      -9.843   4.820  71.636  1.00  0.00    -0.184 C  
HETATM   31  O   UNL     1      -9.610   4.245  72.691  1.00  0.00    -0.124 OA 
HETATM   32  O   UNL     1     -11.018   5.453  71.425  1.00  0.00    -0.190 OA 
ENDBRANCH   5  29
TORSDOF 9
ENDMDL
MODEL      137
REMARK 921   NORMALIZED FREE ENERGY PREDICTED BY IDOCK:   -4.70 KCAL/MOL
REMARK 922        TOTAL FREE ENERGY PREDICTED BY IDOCK:   -9.32 KCAL/MOL
REMARK 923 INTER-LIGAND FREE ENERGY PREDICTED BY IDOCK:   -8.13 KCAL/MOL
REMARK 924 INTRA-LIGAND FREE ENERGY PREDICTED BY IDOCK:   -1.19 KCAL/MOL
REMARK 927      BINDING AFFINITY PREDICTED BY RF-SCORE:    0.00 PKD
ROOT
HETATM    1  C   UNL     1      -9.757   9.553  67.199  1.00  0.00    -0.171 C  
HETATM    2  C   UNL     1      -9.631   9.428  65.683  1.00  0.00    -0.345 C  
HETATM    3  O   UNL     1     -11.344  10.509  68.779  1.00  0.00    -0.255 OA 
HETATM    4  C   UNL     1     -12.028  12.667  63.330  1.00  0.00    -0.613 A  
HETATM    5  N   UNL     1     -10.497  12.001  67.242  1.00  0.00    -0.215 N  
HETATM    6  C   UNL     1      -9.228  10.721  64.999  1.00  0.00    -0.241 C  
HETATM    7  C   UNL     1     -10.675  10.696  67.753  1.00  0.00    -0.257 C  
HETATM    8  C   UNL     1     -12.108  13.105  65.703  1.00  0.00    -0.501 A  
HETATM    9  C   UNL     1     -10.430  11.609  64.828  1.00  0.00    -0.346 A  
HETATM   10  C   UNL     1     -10.939  11.825  63.536  1.00  0.00    -0.499 A  
HETATM   11  C   UNL     1     -12.607  13.313  64.415  1.00  0.00    -0.282 A  
HETATM   12  C   UNL     1     -11.035  12.230  65.928  1.00  0.00    -0.302 A  
ENDROOT
BRANCH   1  13
HETATM   13  N   UNL     1     -10.246   8.271  67.763  1.00  0.00    -0.210 NA 
HETATM   14  H   UNL     1     -11.211   8.171  68.077  1.00  0.00     0.000 HD 
BRANCH  13  15
HETATM   15  C   UNL     1      -9.293   7.143  67.857  1.00  0.00    -0.128 C  
BRANCH  15  16
HETATM   16  C   UNL     1      -9.202   6.490  69.250  1.00  0.00    -0.139 C  
BRANCH  16  17
HETATM   17  C   UNL     1     -10.581   6.088  69.803  1.00  0.00    -0.356 C  
BRANCH  17  18
HETATM   18  C   UNL     1     -10.463   5.305  71.088  1.00  0.00    -0.275 A  
HETATM   19  C   UNL     1      -9.633   4.176  71.158  1.00  0.00    -0.249 A  
HETATM   20  C   UNL     1     -10.311   3.794  73.447  1.00  0.00    -0.238 A  
HETATM   21  C   UNL     1      -9.559   3.426  72.334  1.00  0.00    -0.196 A  
HETATM   22  C   UNL     1     -11.129   4.923  73.390  1.00  0.00    -0.415 A  
HETATM   23  C   UNL     1     -11.202   5.675  72.218  1.00  0.00    -0.317 A  
ENDBRANCH  17  18
ENDBRANCH  16  17
ENDBRANCH  15  16
BRANCH  15  24
HETATM   24  C   UNL     1      -9.753   6.062  66.852  1.00  0.00    -0.148 C  
HETATM   25  O   UNL     1     -10.922   5.816  66.589  1.00  0.00    -0.277 OA 
BRANCH  24  26
HETATM   26  O   UNL     1      -8.673   5.378  66.371  1.00  0.00    -0.117 OA 
BRANCH  26  27
HETATM   27  C   UNL     1      -7.583   6.193  65.909  1.00  0.00    -0.087 C  
HETATM   28  C   UNL     1      -7.740   6.462  64.423  1.00  0.00    -0.108 C  
ENDBRANCH  26  27
ENDBRANCH  24  26
ENDBRANCH  15  24
ENDBRANCH  13  15
ENDBRANCH   1  13
BRANCH   5  29
HETATM   29  C   UNL     1     -10.683  13.050  68.266  1.00  0.00    -0.245 C  
HETATM   30  C   UNL     1      -9.581  14.103  68.371  1.00  0.00    -0.225 C  
HETATM   31  O   UNL     1      -9.609  15.017  69.185  1.00  0.00    -0.210 OA 
HETATM   32  O   UNL     1      -8.536  13.946  67.528  1.00  0.00    -0.169 OA 
ENDBRANCH   5  29
TORSDOF 9
ENDMDL
MODEL      138
REMARK 921   NORMALIZED FREE ENERGY PREDICTED BY IDOCK:   -4.69 KCAL/MOL
REMARK 922        TOTAL FREE ENERGY PREDICTED BY IDOCK:   -9.32 KCAL/MOL
REMARK 923 INTER-LIGAND FREE ENERGY PREDICTED BY IDOCK:   -7.70 KCAL/MOL
REMARK 924 INTRA-LIGAND FREE ENERGY PREDICTED BY IDOCK:   -1.62 KCAL/MOL
REMARK 927      BINDING AFFINITY PREDICTED BY RF-SCORE:    0.00 PKD
ROOT
HETATM    1  C   UNL     1     -10.841  11.520  68.863  1.00  0.00    -0.218 C  
HETATM    2  C   UNL     1     -10.743  10.548  70.036  1.00  0.00    -0.282 C  
HETATM    3  O   UNL     1     -11.701  11.476  66.585  1.00  0.00    -0.486 OA 
HETATM    4  C   UNL     1     -10.856   6.060  68.767  1.00  0.00    -0.391 A  
HETATM    5  N   UNL     1     -10.109   9.877  67.045  1.00  0.00    -0.206 N  
HETATM    6  C   UNL     1      -9.666   9.494  69.862  1.00  0.00    -0.252 C  
HETATM    7  C   UNL     1     -10.998  10.905  67.430  1.00  0.00    -0.293 C  
HETATM    8  C   UNL     1     -10.779   7.492  66.824  1.00  0.00    -0.169 A  
HETATM    9  C   UNL     1     -10.170   8.383  68.982  1.00  0.00    -0.217 A  
HETATM   10  C   UNL     1     -10.422   7.123  69.552  1.00  0.00    -0.236 A  
HETATM   11  C   UNL     1     -11.027   6.243  67.400  1.00  0.00    -0.447 A  
HETATM   12  C   UNL     1     -10.376   8.582  67.611  1.00  0.00    -0.253 A  
ENDROOT
BRANCH   1  13
HETATM   13  N   UNL     1     -11.978  12.447  69.081  1.00  0.00    -0.274 NA 
HETATM   14  H   UNL     1     -12.932  12.096  69.164  1.00  0.00     0.000 HD 
BRANCH  13  15
HETATM   15  C   UNL     1     -11.689  13.895  69.174  1.00  0.00    -0.338 C  
BRANCH  15  16
HETATM   16  C   UNL     1     -12.121  14.719  67.946  1.00  0.00    -0.161 C  
BRANCH  16  17
HETATM   17  C   UNL     1     -11.024  14.791  66.868  1.00  0.00    -0.328 C  
BRANCH  17  18
HETATM   18  C   UNL     1      -9.653  14.958  67.476  1.00  0.00    -0.204 A  
HETATM   19  C   UNL     1      -9.372  16.053  68.306  1.00  0.00    -0.199 A  
HETATM   20  C   UNL     1      -7.079  15.321  68.532  1.00  0.00    -0.110 A  
HETATM   21  C   UNL     1      -8.090  16.231  68.831  1.00  0.00    -0.231 A  
HETATM   22  C   UNL     1      -7.353  14.221  67.719  1.00  0.00    -0.185 A  
HETATM   23  C   UNL     1      -8.633  14.040  67.196  1.00  0.00    -0.220 A  
ENDBRANCH  17  18
ENDBRANCH  16  17
ENDBRANCH  15  16
BRANCH  15  24
HETATM   24  C   UNL     1     -12.447  14.441  70.406  1.00  0.00    -0.357 C  
HETATM   25  O   UNL     1     -12.210  15.515  70.943  1.00  0.00    -0.336 OA 
BRANCH  24  26
HETATM   26  O   UNL     1     -13.354  13.520  70.846  1.00  0.00    -0.088 OA 
BRANCH  26  27
HETATM   27  C   UNL     1     -13.162  13.059  72.193  1.00  0.00    -0.457 C  
HETATM   28  C   UNL     1     -13.381  11.558  72.256  1.00  0.00    -0.097 C  
ENDBRANCH  26  27
ENDBRANCH  24  26
ENDBRANCH  15  24
ENDBRANCH  13  15
ENDBRANCH   1  13
BRANCH   5  29
HETATM   29  C   UNL     1      -9.727   9.951  65.619  1.00  0.00    -0.279 C  
HETATM   30  C   UNL     1      -8.295  10.389  65.319  1.00  0.00    -0.166 C  
HETATM   31  O   UNL     1      -7.858  10.502  64.181  1.00  0.00    -0.096 OA 
HETATM   32  O   UNL     1      -7.534  10.688  66.395  1.00  0.00    -0.125 OA 
ENDBRANCH   5  29
TORSDOF 9
ENDMDL
MODEL      139
REMARK 921   NORMALIZED FREE ENERGY PREDICTED BY IDOCK:   -4.69 KCAL/MOL
REMARK 922        TOTAL FREE ENERGY PREDICTED BY IDOCK:   -9.32 KCAL/MOL
REMARK 923 INTER-LIGAND FREE ENERGY PREDICTED BY IDOCK:   -7.69 KCAL/MOL
REMARK 924 INTRA-LIGAND FREE ENERGY PREDICTED BY IDOCK:   -1.63 KCAL/MOL
REMARK 927      BINDING AFFINITY PREDICTED BY RF-SCORE:    0.00 PKD
ROOT
HETATM    1  C   UNL     1     -10.352   8.766  68.127  1.00  0.00    -0.216 C  
HETATM    2  C   UNL     1     -10.322   7.268  67.833  1.00  0.00    -0.253 C  
HETATM    3  O   UNL     1      -9.547  10.251  69.880  1.00  0.00    -0.176 OA 
HETATM    4  C   UNL     1      -9.773   4.623  71.638  1.00  0.00    -0.235 A  
HETATM    5  N   UNL     1     -10.953   8.578  70.606  1.00  0.00    -0.236 N  
HETATM    6  C   UNL     1     -11.287   6.464  68.683  1.00  0.00    -0.214 C  
HETATM    7  C   UNL     1     -10.166   9.211  69.618  1.00  0.00    -0.203 C  
HETATM    8  C   UNL     1     -10.044   6.944  72.246  1.00  0.00    -0.194 A  
HETATM    9  C   UNL     1     -10.691   6.211  70.041  1.00  0.00    -0.370 A  
HETATM   10  C   UNL     1     -10.296   4.905  70.380  1.00  0.00    -0.248 A  
HETATM   11  C   UNL     1      -9.655   5.643  72.574  1.00  0.00    -0.167 A  
HETATM   12  C   UNL     1     -10.539   7.249  70.970  1.00  0.00    -0.221 A  
ENDROOT
BRANCH   1  13
HETATM   13  N   UNL     1      -9.312   9.450  67.321  1.00  0.00    -0.129 NA 
HETATM   14  H   UNL     1      -8.329   9.410  67.590  1.00  0.00     0.000 HD 
BRANCH  13  15
HETATM   15  C   UNL     1      -9.742  10.192  66.115  1.00  0.00    -0.218 C  
BRANCH  15  16
HETATM   16  C   UNL     1      -9.794  11.723  66.284  1.00  0.00    -0.245 C  
BRANCH  16  17
HETATM   17  C   UNL     1     -11.233  12.269  66.271  1.00  0.00    -0.367 C  
BRANCH  17  18
HETATM   18  C   UNL     1     -11.503  13.160  67.459  1.00  0.00    -0.371 A  
HETATM   19  C   UNL     1     -11.729  12.605  68.727  1.00  0.00    -0.364 A  
HETATM   20  C   UNL     1     -12.099  14.809  69.650  1.00  0.00    -0.346 A  
HETATM   21  C   UNL     1     -12.024  13.428  69.817  1.00  0.00    -0.396 A  
HETATM   22  C   UNL     1     -11.863  15.370  68.395  1.00  0.00    -0.264 A  
HETATM   23  C   UNL     1     -11.565  14.551  67.307  1.00  0.00    -0.405 A  
ENDBRANCH  17  18
ENDBRANCH  16  17
ENDBRANCH  15  16
BRANCH  15  24
HETATM   24  C   UNL     1      -8.734   9.870  64.988  1.00  0.00    -0.174 C  
HETATM   25  O   UNL     1      -8.530  10.587  64.017  1.00  0.00    -0.168 OA 
BRANCH  24  26
HETATM   26  O   UNL     1      -8.172   8.644  65.197  1.00  0.00    -0.133 OA 
BRANCH  26  27
HETATM   27  C   UNL     1      -7.213   8.228  64.210  1.00  0.00    -0.089 C  
HETATM   28  C   UNL     1      -5.822   8.225  64.819  1.00  0.00    -0.045 C  
ENDBRANCH  26  27
ENDBRANCH  24  26
ENDBRANCH  15  24
ENDBRANCH  13  15
ENDBRANCH   1  13
BRANCH   5  29
HETATM   29  C   UNL     1     -11.373   9.498  71.684  1.00  0.00    -0.341 C  
HETATM   30  C   UNL     1     -12.721  10.194  71.497  1.00  0.00    -0.436 C  
HETATM   31  O   UNL     1     -13.177  10.988  72.310  1.00  0.00    -0.405 OA 
HETATM   32  O   UNL     1     -13.375   9.911  70.349  1.00  0.00    -0.059 OA 
ENDBRANCH   5  29
TORSDOF 9
ENDMDL
MODEL      140
REMARK 921   NORMALIZED FREE ENERGY PREDICTED BY IDOCK:   -4.69 KCAL/MOL
REMARK 922        TOTAL FREE ENERGY PREDICTED BY IDOCK:   -9.31 KCAL/MOL
REMARK 923 INTER-LIGAND FREE ENERGY PREDICTED BY IDOCK:   -7.79 KCAL/MOL
REMARK 924 INTRA-LIGAND FREE ENERGY PREDICTED BY IDOCK:   -1.52 KCAL/MOL
REMARK 927      BINDING AFFINITY PREDICTED BY RF-SCORE:    0.00 PKD
ROOT
HETATM    1  C   UNL     1     -10.907   9.556  69.941  1.00  0.00    -0.246 C  
HETATM    2  C   UNL     1     -12.000   9.048  70.876  1.00  0.00    -0.274 C  
HETATM    3  O   UNL     1      -9.155   8.582  68.558  1.00  0.00    -0.136 OA 
HETATM    4  C   UNL     1     -11.135   4.819  72.648  1.00  0.00    -0.186 A  
HETATM    5  N   UNL     1      -9.043   8.023  70.789  1.00  0.00    -0.143 N  
HETATM    6  C   UNL     1     -11.477   8.575  72.220  1.00  0.00    -0.445 C  
HETATM    7  C   UNL     1      -9.688   8.607  69.675  1.00  0.00    -0.179 C  
HETATM    8  C   UNL     1      -9.240   5.615  71.381  1.00  0.00    -0.163 A  
HETATM    9  C   UNL     1     -10.931   7.179  72.098  1.00  0.00    -0.274 A  
HETATM   10  C   UNL     1     -11.625   6.120  72.708  1.00  0.00    -0.171 A  
HETATM   11  C   UNL     1      -9.937   4.569  71.991  1.00  0.00    -0.255 A  
HETATM   12  C   UNL     1      -9.742   6.925  71.403  1.00  0.00    -0.174 A  
ENDROOT
BRANCH   1  13
HETATM   13  N   UNL     1     -11.500   9.902  68.626  1.00  0.00    -0.505 NA 
HETATM   14  H   UNL     1     -11.638   9.190  67.909  1.00  0.00     0.000 HD 
BRANCH  13  15
HETATM   15  C   UNL     1     -11.886  11.311  68.386  1.00  0.00    -0.261 C  
BRANCH  15  16
HETATM   16  C   UNL     1     -11.236  12.330  69.342  1.00  0.00    -0.243 C  
BRANCH  16  17
HETATM   17  C   UNL     1     -11.919  13.708  69.286  1.00  0.00    -0.384 C  
BRANCH  17  18
HETATM   18  C   UNL     1     -10.967  14.787  68.831  1.00  0.00    -0.262 A  
HETATM   19  C   UNL     1      -9.647  14.467  68.479  1.00  0.00    -0.220 A  
HETATM   20  C   UNL     1      -9.167  16.802  68.074  1.00  0.00    -0.228 A  
HETATM   21  C   UNL     1      -8.753  15.472  68.102  1.00  0.00    -0.164 A  
HETATM   22  C   UNL     1     -10.482  17.127  68.409  1.00  0.00    -0.376 A  
HETATM   23  C   UNL     1     -11.377  16.125  68.783  1.00  0.00    -0.359 A  
ENDBRANCH  17  18
ENDBRANCH  16  17
ENDBRANCH  15  16
BRANCH  15  24
HETATM   24  C   UNL     1     -11.457  11.669  66.944  1.00  0.00    -0.247 C  
HETATM   25  O   UNL     1     -12.176  12.230  66.128  1.00  0.00    -0.647 OA 
BRANCH  24  26
HETATM   26  O   UNL     1     -10.198  11.200  66.698  1.00  0.00    -0.216 OA 
BRANCH  26  27
HETATM   27  C   UNL     1      -9.817  11.152  65.313  1.00  0.00    -0.249 C  
HETATM   28  C   UNL     1      -9.048   9.871  65.039  1.00  0.00    -0.264 C  
ENDBRANCH  26  27
ENDBRANCH  24  26
ENDBRANCH  15  24
ENDBRANCH  13  15
ENDBRANCH   1  13
BRANCH   5  29
HETATM   29  C   UNL     1      -7.581   7.908  70.613  1.00  0.00    -0.077 C  
HETATM   30  C   UNL     1      -6.713   8.486  71.730  1.00  0.00    -0.080 C  
HETATM   31  O   UNL     1      -5.489   8.467  71.699  1.00  0.00    -0.034 OA 
HETATM   32  O   UNL     1      -7.380   9.065  72.752  1.00  0.00    -0.327 OA 
ENDBRANCH   5  29
TORSDOF 9
ENDMDL
MODEL      141
REMARK 921   NORMALIZED FREE ENERGY PREDICTED BY IDOCK:   -4.66 KCAL/MOL
REMARK 922        TOTAL FREE ENERGY PREDICTED BY IDOCK:   -9.27 KCAL/MOL
REMARK 923 INTER-LIGAND FREE ENERGY PREDICTED BY IDOCK:   -7.96 KCAL/MOL
REMARK 924 INTRA-LIGAND FREE ENERGY PREDICTED BY IDOCK:   -1.32 KCAL/MOL
REMARK 927      BINDING AFFINITY PREDICTED BY RF-SCORE:    0.00 PKD
ROOT
HETATM    1  C   UNL     1      -9.383  13.500  68.430  1.00  0.00    -0.171 C  
HETATM    2  C   UNL     1      -8.046  14.227  68.327  1.00  0.00    -0.143 C  
HETATM    3  O   UNL     1     -11.666  13.857  67.661  1.00  0.00    -0.327 OA 
HETATM    4  C   UNL     1      -8.459  18.808  67.541  1.00  0.00    -0.288 A  
HETATM    5  N   UNL     1     -10.809  15.557  68.956  1.00  0.00    -0.236 N  
HETATM    6  C   UNL     1      -7.947  15.446  69.226  1.00  0.00    -0.229 C  
HETATM    7  C   UNL     1     -10.684  14.352  68.230  1.00  0.00    -0.242 C  
HETATM    8  C   UNL     1     -10.624  17.811  67.920  1.00  0.00    -0.389 A  
HETATM    9  C   UNL     1      -8.635  16.618  68.583  1.00  0.00    -0.253 A  
HETATM   10  C   UNL     1      -7.858  17.690  68.110  1.00  0.00    -0.257 A  
HETATM   11  C   UNL     1      -9.844  18.871  67.453  1.00  0.00    -0.373 A  
HETATM   12  C   UNL     1     -10.030  16.662  68.463  1.00  0.00    -0.261 A  
ENDROOT
BRANCH   1  13
HETATM   13  N   UNL     1      -9.420  12.388  67.450  1.00  0.00    -0.182 NA 
HETATM   14  H   UNL     1      -9.245  12.556  66.459  1.00  0.00     0.000 HD 
BRANCH  13  15
HETATM   15  C   UNL     1      -9.718  11.028  67.950  1.00  0.00    -0.172 C  
BRANCH  15  16
HETATM   16  C   UNL     1     -10.634  10.190  67.037  1.00  0.00    -0.290 C  
BRANCH  16  17
HETATM   17  C   UNL     1      -9.847   9.185  66.176  1.00  0.00    -0.363 C  
BRANCH  17  18
HETATM   18  C   UNL     1      -9.502   9.757  64.823  1.00  0.00    -0.318 A  
HETATM   19  C   UNL     1      -8.492   9.175  64.042  1.00  0.00    -0.195 A  
HETATM   20  C   UNL     1      -8.794  10.872  62.347  1.00  0.00    -0.358 A  
HETATM   21  C   UNL     1      -8.142   9.731  62.810  1.00  0.00    -0.133 A  
HETATM   22  C   UNL     1      -9.808  11.450  63.111  1.00  0.00    -0.413 A  
HETATM   23  C   UNL     1     -10.161  10.894  64.340  1.00  0.00    -0.423 A  
ENDBRANCH  17  18
ENDBRANCH  16  17
ENDBRANCH  15  16
BRANCH  15  24
HETATM   24  C   UNL     1      -8.371  10.280  68.090  1.00  0.00    -0.118 C  
HETATM   25  O   UNL     1      -8.207   9.273  68.766  1.00  0.00    -0.109 OA 
BRANCH  24  26
HETATM   26  O   UNL     1      -7.390  10.951  67.418  1.00  0.00    -0.092 OA 
BRANCH  26  27
HETATM   27  C   UNL     1      -6.291  10.144  66.964  1.00  0.00    -0.068 C  
HETATM   28  C   UNL     1      -5.649  10.792  65.750  1.00  0.00    -0.145 C  
ENDBRANCH  26  27
ENDBRANCH  24  26
ENDBRANCH  15  24
ENDBRANCH  13  15
ENDBRANCH   1  13
BRANCH   5  29
HETATM   29  C   UNL     1     -12.194  15.822  69.398  1.00  0.00    -0.127 C  
HETATM   30  C   UNL     1     -12.550  15.393  70.821  1.00  0.00    -0.442 C  
HETATM   31  O   UNL     1     -13.665  15.544  71.302  1.00  0.00    -0.508 OA 
HETATM   32  O   UNL     1     -11.560  14.791  71.517  1.00  0.00    -0.332 OA 
ENDBRANCH   5  29
TORSDOF 9
ENDMDL
MODEL      142
REMARK 921   NORMALIZED FREE ENERGY PREDICTED BY IDOCK:   -4.64 KCAL/MOL
REMARK 922        TOTAL FREE ENERGY PREDICTED BY IDOCK:   -9.23 KCAL/MOL
REMARK 923 INTER-LIGAND FREE ENERGY PREDICTED BY IDOCK:   -7.66 KCAL/MOL
REMARK 924 INTRA-LIGAND FREE ENERGY PREDICTED BY IDOCK:   -1.58 KCAL/MOL
REMARK 927      BINDING AFFINITY PREDICTED BY RF-SCORE:    0.00 PKD
ROOT
HETATM    1  C   UNL     1     -11.426  11.604  69.094  1.00  0.00    -0.300 C  
HETATM    2  C   UNL     1     -12.410  11.191  70.185  1.00  0.00    -0.373 C  
HETATM    3  O   UNL     1     -10.291  10.533  67.225  1.00  0.00    -0.203 OA 
HETATM    4  C   UNL     1     -12.340   6.624  71.140  1.00  0.00    -0.310 A  
HETATM    5  N   UNL     1      -9.895   9.563  69.275  1.00  0.00    -0.173 N  
HETATM    6  C   UNL     1     -11.776  10.374  71.296  1.00  0.00    -0.320 C  
HETATM    7  C   UNL     1     -10.570  10.471  68.429  1.00  0.00    -0.199 C  
HETATM    8  C   UNL     1     -10.588   7.194  69.579  1.00  0.00    -0.247 A  
HETATM    9  C   UNL     1     -11.644   8.938  70.869  1.00  0.00    -0.331 A  
HETATM   10  C   UNL     1     -12.455   7.967  71.481  1.00  0.00    -0.334 A  
HETATM   11  C   UNL     1     -11.399   6.236  70.194  1.00  0.00    -0.476 A  
HETATM   12  C   UNL     1     -10.720   8.556  69.888  1.00  0.00    -0.224 A  
ENDROOT
BRANCH   1  13
HETATM   13  N   UNL     1     -12.154  12.309  68.011  1.00  0.00    -0.409 NA 
HETATM   14  H   UNL     1     -12.980  11.896  67.579  1.00  0.00     0.000 HD 
BRANCH  13  15
HETATM   15  C   UNL     1     -11.647  13.630  67.577  1.00  0.00    -0.350 C  
BRANCH  15  16
HETATM   16  C   UNL     1     -12.407  14.254  66.390  1.00  0.00    -0.378 C  
BRANCH  16  17
HETATM   17  C   UNL     1     -11.485  14.558  65.195  1.00  0.00    -0.368 C  
BRANCH  17  18
HETATM   18  C   UNL     1     -11.160  13.313  64.407  1.00  0.00    -0.407 A  
HETATM   19  C   UNL     1      -9.833  12.879  64.279  1.00  0.00     0.010 A  
HETATM   20  C   UNL     1     -10.544  11.051  62.866  1.00  0.00     0.169 A  
HETATM   21  C   UNL     1      -9.528  11.752  63.512  1.00  0.00    -0.150 A  
HETATM   22  C   UNL     1     -11.869  11.468  62.999  1.00  0.00     0.194 A  
HETATM   23  C   UNL     1     -12.175  12.591  63.767  1.00  0.00    -0.615 A  
ENDBRANCH  17  18
ENDBRANCH  16  17
ENDBRANCH  15  16
BRANCH  15  24
HETATM   24  C   UNL     1     -11.771  14.593  68.781  1.00  0.00    -0.324 C  
HETATM   25  O   UNL     1     -12.770  14.704  69.477  1.00  0.00    -0.102 OA 
BRANCH  24  26
HETATM   26  O   UNL     1     -10.638  15.347  68.896  1.00  0.00    -0.228 OA 
BRANCH  26  27
HETATM   27  C   UNL     1     -10.832  16.768  68.809  1.00  0.00    -0.318 C  
HETATM   28  C   UNL     1     -10.463  17.250  67.417  1.00  0.00    -0.338 C  
ENDBRANCH  26  27
ENDBRANCH  24  26
ENDBRANCH  15  24
ENDBRANCH  13  15
ENDBRANCH   1  13
BRANCH   5  29
HETATM   29  C   UNL     1      -8.575   9.159  68.748  1.00  0.00    -0.131 C  
HETATM   30  C   UNL     1      -7.393   9.274  69.710  1.00  0.00    -0.072 C  
HETATM   31  O   UNL     1      -6.247   8.984  69.393  1.00  0.00    -0.040 OA 
HETATM   32  O   UNL     1      -7.680   9.761  70.938  1.00  0.00    -0.312 OA 
ENDBRANCH   5  29
TORSDOF 9
ENDMDL
MODEL      143
REMARK 921   NORMALIZED FREE ENERGY PREDICTED BY IDOCK:   -4.63 KCAL/MOL
REMARK 922        TOTAL FREE ENERGY PREDICTED BY IDOCK:   -9.22 KCAL/MOL
REMARK 923 INTER-LIGAND FREE ENERGY PREDICTED BY IDOCK:   -8.35 KCAL/MOL
REMARK 924 INTRA-LIGAND FREE ENERGY PREDICTED BY IDOCK:   -0.87 KCAL/MOL
REMARK 927      BINDING AFFINITY PREDICTED BY RF-SCORE:    0.00 PKD
ROOT
HETATM    1  C   UNL     1     -10.379   9.730  68.754  1.00  0.00    -0.208 C  
HETATM    2  C   UNL     1     -10.076   9.304  67.321  1.00  0.00    -0.291 C  
HETATM    3  O   UNL     1      -9.385   9.407  70.953  1.00  0.00    -0.252 OA 
HETATM    4  C   UNL     1      -7.472   5.444  67.024  1.00  0.00    -0.088 A  
HETATM    5  N   UNL     1      -9.931   7.462  69.848  1.00  0.00    -0.186 N  
HETATM    6  C   UNL     1     -10.408   7.850  67.037  1.00  0.00    -0.411 C  
HETATM    7  C   UNL     1      -9.766   8.864  69.908  1.00  0.00    -0.177 C  
HETATM    8  C   UNL     1      -8.082   5.884  69.318  1.00  0.00    -0.106 A  
HETATM    9  C   UNL     1      -9.301   6.963  67.536  1.00  0.00    -0.130 A  
HETATM   10  C   UNL     1      -8.484   6.300  66.604  1.00  0.00    -0.114 A  
HETATM   11  C   UNL     1      -7.277   5.230  68.383  1.00  0.00    -0.067 A  
HETATM   12  C   UNL     1      -9.083   6.778  68.908  1.00  0.00    -0.133 A  
ENDROOT
BRANCH   1  13
HETATM   13  N   UNL     1      -9.935  11.130  68.960  1.00  0.00    -0.346 NA 
HETATM   14  H   UNL     1      -8.959  11.346  69.163  1.00  0.00     0.000 HD 
BRANCH  13  15
HETATM   15  C   UNL     1     -10.948  12.204  68.862  1.00  0.00    -0.224 C  
BRANCH  15  16
HETATM   16  C   UNL     1     -11.622  12.331  67.481  1.00  0.00    -0.422 C  
BRANCH  16  17
HETATM   17  C   UNL     1     -12.354  13.673  67.305  1.00  0.00    -0.195 C  
BRANCH  17  18
HETATM   18  C   UNL     1     -11.389  14.829  67.209  1.00  0.00    -0.366 A  
HETATM   19  C   UNL     1     -11.387  15.836  68.186  1.00  0.00    -0.337 A  
HETATM   20  C   UNL     1      -9.659  17.028  66.986  1.00  0.00    -0.257 A  
HETATM   21  C   UNL     1     -10.525  16.929  68.073  1.00  0.00    -0.347 A  
HETATM   22  C   UNL     1      -9.645  16.024  66.017  1.00  0.00    -0.385 A  
HETATM   23  C   UNL     1     -10.503  14.930  66.130  1.00  0.00    -0.313 A  
ENDBRANCH  17  18
ENDBRANCH  16  17
ENDBRANCH  15  16
BRANCH  15  24
HETATM   24  C   UNL     1     -12.049  11.899  69.904  1.00  0.00    -0.272 C  
HETATM   25  O   UNL     1     -12.751  10.897  69.895  1.00  0.00    -0.240 OA 
BRANCH  24  26
HETATM   26  O   UNL     1     -12.172  12.943  70.775  1.00  0.00    -0.367 OA 
BRANCH  26  27
HETATM   27  C   UNL     1     -13.068  12.725  71.878  1.00  0.00    -0.371 C  
HETATM   28  C   UNL     1     -13.487  14.059  72.468  1.00  0.00    -0.661 C  
ENDBRANCH  26  27
ENDBRANCH  24  26
ENDBRANCH  15  24
ENDBRANCH  13  15
ENDBRANCH   1  13
BRANCH   5  29
HETATM   29  C   UNL     1     -10.136   6.849  71.177  1.00  0.00    -0.191 C  
HETATM   30  C   UNL     1     -11.568   6.447  71.528  1.00  0.00    -0.310 C  
HETATM   31  O   UNL     1     -11.872   5.943  72.601  1.00  0.00    -0.260 OA 
HETATM   32  O   UNL     1     -12.501   6.720  70.590  1.00  0.00    -0.320 OA 
ENDBRANCH   5  29
TORSDOF 9
ENDMDL
MODEL      144
REMARK 921   NORMALIZED FREE ENERGY PREDICTED BY IDOCK:   -4.62 KCAL/MOL
REMARK 922        TOTAL FREE ENERGY PREDICTED BY IDOCK:   -9.20 KCAL/MOL
REMARK 923 INTER-LIGAND FREE ENERGY PREDICTED BY IDOCK:   -7.43 KCAL/MOL
REMARK 924 INTRA-LIGAND FREE ENERGY PREDICTED BY IDOCK:   -1.78 KCAL/MOL
REMARK 927      BINDING AFFINITY PREDICTED BY RF-SCORE:    0.00 PKD
ROOT
HETATM    1  C   UNL     1     -10.952   9.982  69.080  1.00  0.00    -0.212 C  
HETATM    2  C   UNL     1     -11.616  10.801  70.183  1.00  0.00    -0.424 C  
HETATM    3  O   UNL     1      -9.028  10.215  67.605  1.00  0.00    -0.131 OA 
HETATM    4  C   UNL     1     -10.709  15.371  69.928  1.00  0.00    -0.315 A  
HETATM    5  N   UNL     1     -10.572  11.916  67.450  1.00  0.00    -0.219 N  
HETATM    6  C   UNL     1     -12.408  11.987  69.664  1.00  0.00    -0.083 C  
HETATM    7  C   UNL     1     -10.049  10.752  68.056  1.00  0.00    -0.176 C  
HETATM    8  C   UNL     1      -9.807  14.216  68.009  1.00  0.00    -0.223 A  
HETATM    9  C   UNL     1     -11.483  13.135  69.367  1.00  0.00    -0.321 A  
HETATM   10  C   UNL     1     -11.524  14.274  70.189  1.00  0.00    -0.254 A  
HETATM   11  C   UNL     1      -9.856  15.345  68.832  1.00  0.00    -0.216 A  
HETATM   12  C   UNL     1     -10.597  13.089  68.283  1.00  0.00    -0.247 A  
ENDROOT
BRANCH   1  13
HETATM   13  N   UNL     1     -10.127   8.910  69.688  1.00  0.00    -0.194 NA 
HETATM   14  H   UNL     1      -9.143   8.802  69.441  1.00  0.00     0.000 HD 
BRANCH  13  15
HETATM   15  C   UNL     1     -10.773   8.001  70.661  1.00  0.00    -0.228 C  
BRANCH  15  16
HETATM   16  C   UNL     1     -11.327   6.696  70.056  1.00  0.00    -0.440 C  
BRANCH  16  17
HETATM   17  C   UNL     1     -10.601   6.293  68.760  1.00  0.00    -0.313 C  
BRANCH  17  18
HETATM   18  C   UNL     1     -10.058   4.887  68.837  1.00  0.00    -0.185 A  
HETATM   19  C   UNL     1      -9.751   4.179  67.665  1.00  0.00    -0.176 A  
HETATM   20  C   UNL     1      -9.136   2.240  68.972  1.00  0.00    -0.186 A  
HETATM   21  C   UNL     1      -9.291   2.862  67.736  1.00  0.00    -0.247 A  
HETATM   22  C   UNL     1      -9.426   2.942  70.143  1.00  0.00    -0.198 A  
HETATM   23  C   UNL     1      -9.882   4.258  70.075  1.00  0.00    -0.275 A  
ENDBRANCH  17  18
ENDBRANCH  16  17
ENDBRANCH  15  16
BRANCH  15  24
HETATM   24  C   UNL     1      -9.710   7.623  71.719  1.00  0.00    -0.161 C  
HETATM   25  O   UNL     1      -9.902   6.847  72.645  1.00  0.00    -0.162 OA 
BRANCH  24  26
HETATM   26  O   UNL     1      -8.565   8.338  71.511  1.00  0.00    -0.128 OA 
BRANCH  26  27
HETATM   27  C   UNL     1      -7.346   7.579  71.558  1.00  0.00    -0.075 C  
HETATM   28  C   UNL     1      -7.154   6.839  70.246  1.00  0.00    -0.071 C  
ENDBRANCH  26  27
ENDBRANCH  24  26
ENDBRANCH  15  24
ENDBRANCH  13  15
ENDBRANCH   1  13
BRANCH   5  29
HETATM   29  C   UNL     1     -10.155  12.069  66.041  1.00  0.00    -0.230 C  
HETATM   30  C   UNL     1     -11.268  12.316  65.024  1.00  0.00    -0.321 C  
HETATM   31  O   UNL     1     -11.056  12.447  63.825  1.00  0.00    -0.375 OA 
HETATM   32  O   UNL     1     -12.524  12.343  65.522  1.00  0.00    -0.643 OA 
ENDBRANCH   5  29
TORSDOF 9
ENDMDL
MODEL      145
REMARK 921   NORMALIZED FREE ENERGY PREDICTED BY IDOCK:   -4.61 KCAL/MOL
REMARK 922        TOTAL FREE ENERGY PREDICTED BY IDOCK:   -9.20 KCAL/MOL
REMARK 923 INTER-LIGAND FREE ENERGY PREDICTED BY IDOCK:   -7.13 KCAL/MOL
REMARK 924 INTRA-LIGAND FREE ENERGY PREDICTED BY IDOCK:   -2.07 KCAL/MOL
REMARK 927      BINDING AFFINITY PREDICTED BY RF-SCORE:    0.00 PKD
ROOT
HETATM    1  C   UNL     1     -10.005  10.580  68.962  1.00  0.00    -0.211 C  
HETATM    2  C   UNL     1      -8.614   9.954  69.038  1.00  0.00    -0.149 C  
HETATM    3  O   UNL     1     -11.700  11.343  70.534  1.00  0.00    -0.320 OA 
HETATM    4  C   UNL     1      -7.785   7.713  73.045  1.00  0.00    -0.132 A  
HETATM    5  N   UNL     1     -11.088   9.136  70.774  1.00  0.00    -0.257 N  
HETATM    6  C   UNL     1      -8.630   8.488  69.426  1.00  0.00    -0.128 C  
HETATM    7  C   UNL     1     -10.934  10.424  70.214  1.00  0.00    -0.284 C  
HETATM    8  C   UNL     1     -10.081   8.451  72.943  1.00  0.00    -0.180 A  
HETATM    9  C   UNL     1      -8.774   8.351  70.917  1.00  0.00    -0.178 A  
HETATM   10  C   UNL     1      -7.681   7.886  71.669  1.00  0.00    -0.098 A  
HETATM   11  C   UNL     1      -8.989   7.988  73.681  1.00  0.00    -0.313 A  
HETATM   12  C   UNL     1      -9.979   8.665  71.560  1.00  0.00    -0.274 A  
ENDROOT
BRANCH   1  13
HETATM   13  N   UNL     1      -9.881  12.029  68.672  1.00  0.00    -0.358 NA 
HETATM   14  H   UNL     1      -9.688  12.698  69.417  1.00  0.00     0.000 HD 
BRANCH  13  15
HETATM   15  C   UNL     1     -10.046  12.476  67.271  1.00  0.00    -0.213 C  
BRANCH  15  16
HETATM   16  C   UNL     1     -10.714  11.445  66.340  1.00  0.00    -0.325 C  
BRANCH  16  17
HETATM   17  C   UNL     1      -9.873  11.155  65.083  1.00  0.00    -0.307 C  
BRANCH  17  18
HETATM   18  C   UNL     1      -8.949   9.980  65.287  1.00  0.00    -0.220 A  
HETATM   19  C   UNL     1      -9.452   8.748  65.731  1.00  0.00    -0.239 A  
HETATM   20  C   UNL     1      -7.220   7.820  65.757  1.00  0.00    -0.068 A  
HETATM   21  C   UNL     1      -8.590   7.674  65.963  1.00  0.00    -0.165 A  
HETATM   22  C   UNL     1      -6.712   9.038  65.303  1.00  0.00    -0.068 A  
HETATM   23  C   UNL     1      -7.572  10.110  65.067  1.00  0.00    -0.141 A  
ENDBRANCH  17  18
ENDBRANCH  16  17
ENDBRANCH  15  16
BRANCH  15  24
HETATM   24  C   UNL     1     -10.930  13.745  67.290  1.00  0.00    -0.292 C  
HETATM   25  O   UNL     1     -12.153  13.734  67.328  1.00  0.00    -0.389 OA 
BRANCH  24  26
HETATM   26  O   UNL     1     -10.151  14.861  67.177  1.00  0.00    -0.237 OA 
BRANCH  26  27
HETATM   27  C   UNL     1     -10.068  15.677  68.357  1.00  0.00    -0.214 C  
HETATM   28  C   UNL     1      -9.734  17.106  67.967  1.00  0.00    -0.274 C  
ENDBRANCH  26  27
ENDBRANCH  24  26
ENDBRANCH  15  24
ENDBRANCH  13  15
ENDBRANCH   1  13
BRANCH   5  29
HETATM   29  C   UNL     1     -12.456   8.886  71.276  1.00  0.00    -0.272 C  
HETATM   30  C   UNL     1     -13.029   7.493  71.024  1.00  0.00    -0.111 C  
HETATM   31  O   UNL     1     -14.154   7.163  71.378  1.00  0.00    -0.381 OA 
HETATM   32  O   UNL     1     -12.230   6.642  70.344  1.00  0.00    -0.332 OA 
ENDBRANCH   5  29
TORSDOF 9
ENDMDL
MODEL      146
REMARK 921   NORMALIZED FREE ENERGY PREDICTED BY IDOCK:   -4.61 KCAL/MOL
REMARK 922        TOTAL FREE ENERGY PREDICTED BY IDOCK:   -9.18 KCAL/MOL
REMARK 923 INTER-LIGAND FREE ENERGY PREDICTED BY IDOCK:   -9.38 KCAL/MOL
REMARK 924 INTRA-LIGAND FREE ENERGY PREDICTED BY IDOCK:    0.20 KCAL/MOL
REMARK 927      BINDING AFFINITY PREDICTED BY RF-SCORE:    0.00 PKD
ROOT
HETATM    1  C   UNL     1     -10.517  14.250  68.677  1.00  0.00    -0.249 C  
HETATM    2  C   UNL     1     -10.427  12.771  68.311  1.00  0.00    -0.250 C  
HETATM    3  O   UNL     1     -10.929  15.562  70.686  1.00  0.00    -0.317 OA 
HETATM    4  C   UNL     1     -12.712   9.968  71.258  1.00  0.00    -0.500 A  
HETATM    5  N   UNL     1     -12.601  14.073  70.150  1.00  0.00    -0.308 N  
HETATM    6  C   UNL     1     -11.776  12.079  68.246  1.00  0.00    -0.396 C  
HETATM    7  C   UNL     1     -11.311  14.623  69.976  1.00  0.00    -0.242 C  
HETATM    8  C   UNL     1     -13.120  12.285  71.799  1.00  0.00    -0.449 A  
HETATM    9  C   UNL     1     -12.232  11.710  69.631  1.00  0.00    -0.271 A  
HETATM   10  C   UNL     1     -12.264  10.354  70.000  1.00  0.00    -0.262 A  
HETATM   11  C   UNL     1     -13.149  10.935  72.156  1.00  0.00    -0.325 A  
HETATM   12  C   UNL     1     -12.636  12.691  70.546  1.00  0.00    -0.100 A  
ENDROOT
BRANCH   1  13
HETATM   13  N   UNL     1      -9.151  14.812  68.809  1.00  0.00    -0.192 NA 
HETATM   14  H   UNL     1      -8.579  14.612  69.630  1.00  0.00     0.000 HD 
BRANCH  13  15
HETATM   15  C   UNL     1      -8.642  15.671  67.717  1.00  0.00    -0.162 C  
BRANCH  15  16
HETATM   16  C   UNL     1      -9.711  16.127  66.705  1.00  0.00    -0.260 C  
BRANCH  16  17
HETATM   17  C   UNL     1      -9.515  15.493  65.316  1.00  0.00     0.150 C  
BRANCH  17  18
HETATM   18  C   UNL     1     -10.568  14.453  65.022  1.00  0.00    -0.452 A  
HETATM   19  C   UNL     1     -11.905  14.673  65.385  1.00  0.00    -0.304 A  
HETATM   20  C   UNL     1     -12.513  12.484  64.560  1.00  0.00    -0.539 A  
HETATM   21  C   UNL     1     -12.871  13.692  65.153  1.00  0.00    -0.382 A  
HETATM   22  C   UNL     1     -11.188  12.262  64.184  1.00  0.00    -0.430 A  
HETATM   23  C   UNL     1     -10.222  13.242  64.411  1.00  0.00    -0.300 A  
ENDBRANCH  17  18
ENDBRANCH  16  17
ENDBRANCH  15  16
BRANCH  15  24
HETATM   24  C   UNL     1      -8.031  16.935  68.367  1.00  0.00    -0.232 C  
HETATM   25  O   UNL     1      -7.209  16.917  69.273  1.00  0.00    -0.239 OA 
BRANCH  24  26
HETATM   26  O   UNL     1      -8.602  18.057  67.838  1.00  0.00    -0.247 OA 
BRANCH  26  27
HETATM   27  C   UNL     1      -8.326  19.279  68.542  1.00  0.00    -0.366 C  
HETATM   28  C   UNL     1      -7.412  20.156  67.705  1.00  0.00    -0.341 C  
ENDBRANCH  26  27
ENDBRANCH  24  26
ENDBRANCH  15  24
ENDBRANCH  13  15
ENDBRANCH   1  13
BRANCH   5  29
HETATM   29  C   UNL     1     -13.544  15.009  70.797  1.00  0.00    -0.216 C  
HETATM   30  C   UNL     1     -13.256  15.367  72.254  1.00  0.00    -0.421 C  
HETATM   31  O   UNL     1     -13.967  16.120  72.907  1.00  0.00    -0.480 OA 
HETATM   32  O   UNL     1     -12.178  14.765  72.805  1.00  0.00    -0.298 OA 
ENDBRANCH   5  29
TORSDOF 9
ENDMDL
MODEL      147
REMARK 921   NORMALIZED FREE ENERGY PREDICTED BY IDOCK:   -4.60 KCAL/MOL
REMARK 922        TOTAL FREE ENERGY PREDICTED BY IDOCK:   -9.18 KCAL/MOL
REMARK 923 INTER-LIGAND FREE ENERGY PREDICTED BY IDOCK:   -7.75 KCAL/MOL
REMARK 924 INTRA-LIGAND FREE ENERGY PREDICTED BY IDOCK:   -1.44 KCAL/MOL
REMARK 927      BINDING AFFINITY PREDICTED BY RF-SCORE:    0.00 PKD
ROOT
HETATM    1  C   UNL     1      -9.786  12.215  65.663  1.00  0.00    -0.237 C  
HETATM    2  C   UNL     1      -9.781  11.379  64.386  1.00  0.00    -0.266 C  
HETATM    3  O   UNL     1      -8.198  12.797  67.414  1.00  0.00    -0.168 OA 
HETATM    4  C   UNL     1      -6.504   8.058  64.336  1.00  0.00    -0.061 A  
HETATM    5  N   UNL     1      -8.535  10.537  67.133  1.00  0.00    -0.126 N  
HETATM    6  C   UNL     1      -9.818   9.883  64.641  1.00  0.00    -0.185 C  
HETATM    7  C   UNL     1      -8.701  11.885  66.744  1.00  0.00    -0.193 C  
HETATM    8  C   UNL     1      -6.572   9.154  66.486  1.00  0.00    -0.067 A  
HETATM    9  C   UNL     1      -8.439   9.384  64.976  1.00  0.00    -0.171 A  
HETATM   10  C   UNL     1      -7.766   8.569  64.050  1.00  0.00    -0.137 A  
HETATM   11  C   UNL     1      -5.910   8.344  65.559  1.00  0.00    -0.044 A  
HETATM   12  C   UNL     1      -7.829   9.705  66.195  1.00  0.00    -0.101 A  
ENDROOT
BRANCH   1  13
HETATM   13  N   UNL     1      -9.651  13.651  65.315  1.00  0.00    -0.529 NA 
HETATM   14  H   UNL     1      -9.003  13.956  64.589  1.00  0.00     0.000 HD 
BRANCH  13  15
HETATM   15  C   UNL     1     -10.484  14.627  66.052  1.00  0.00    -0.305 C  
BRANCH  15  16
HETATM   16  C   UNL     1     -10.317  16.090  65.598  1.00  0.00    -0.414 C  
BRANCH  16  17
HETATM   17  C   UNL     1     -10.290  17.075  66.781  1.00  0.00    -0.302 C  
BRANCH  17  18
HETATM   18  C   UNL     1      -8.902  17.610  67.032  1.00  0.00    -0.256 A  
HETATM   19  C   UNL     1      -7.831  17.221  66.213  1.00  0.00    -0.344 A  
HETATM   20  C   UNL     1      -6.302  18.531  67.553  1.00  0.00    -0.194 A  
HETATM   21  C   UNL     1      -6.538  17.682  66.474  1.00  0.00    -0.262 A  
HETATM   22  C   UNL     1      -7.364  18.933  68.365  1.00  0.00    -0.318 A  
HETATM   23  C   UNL     1      -8.655  18.477  68.104  1.00  0.00    -0.324 A  
ENDBRANCH  17  18
ENDBRANCH  16  17
ENDBRANCH  15  16
BRANCH  15  24
HETATM   24  C   UNL     1     -11.963  14.228  65.840  1.00  0.00    -0.391 C  
HETATM   25  O   UNL     1     -12.598  14.448  64.817  1.00  0.00    -0.598 OA 
BRANCH  24  26
HETATM   26  O   UNL     1     -12.468  13.675  66.982  1.00  0.00    -0.291 OA 
BRANCH  26  27
HETATM   27  C   UNL     1     -11.856  14.117  68.205  1.00  0.00    -0.352 C  
HETATM   28  C   UNL     1     -11.439  12.914  69.031  1.00  0.00    -0.358 C  
ENDBRANCH  26  27
ENDBRANCH  24  26
ENDBRANCH  15  24
ENDBRANCH  13  15
ENDBRANCH   1  13
BRANCH   5  29
HETATM   29  C   UNL     1      -8.229  10.385  68.570  1.00  0.00    -0.119 C  
HETATM   30  C   UNL     1      -9.280   9.671  69.419  1.00  0.00    -0.189 C  
HETATM   31  O   UNL     1      -9.152   9.494  70.624  1.00  0.00    -0.245 OA 
HETATM   32  O   UNL     1     -10.394   9.276  68.765  1.00  0.00    -0.201 OA 
ENDBRANCH   5  29
TORSDOF 9
ENDMDL
MODEL      148
REMARK 921   NORMALIZED FREE ENERGY PREDICTED BY IDOCK:   -4.59 KCAL/MOL
REMARK 922        TOTAL FREE ENERGY PREDICTED BY IDOCK:   -9.17 KCAL/MOL
REMARK 923 INTER-LIGAND FREE ENERGY PREDICTED BY IDOCK:   -7.84 KCAL/MOL
REMARK 924 INTRA-LIGAND FREE ENERGY PREDICTED BY IDOCK:   -1.32 KCAL/MOL
REMARK 927      BINDING AFFINITY PREDICTED BY RF-SCORE:    0.00 PKD
ROOT
HETATM    1  C   UNL     1      -9.940  11.819  68.182  1.00  0.00    -0.194 C  
HETATM    2  C   UNL     1     -10.718  10.968  67.181  1.00  0.00    -0.313 C  
HETATM    3  O   UNL     1      -7.605  12.198  68.757  1.00  0.00    -0.114 OA 
HETATM    4  C   UNL     1      -8.378   7.212  65.699  1.00  0.00    -0.138 A  
HETATM    5  N   UNL     1      -8.289  10.005  68.907  1.00  0.00    -0.122 N  
HETATM    6  C   UNL     1     -10.777   9.498  67.552  1.00  0.00    -0.311 C  
HETATM    7  C   UNL     1      -8.488  11.356  68.545  1.00  0.00    -0.152 C  
HETATM    8  C   UNL     1      -7.153   8.344  67.445  1.00  0.00    -0.080 A  
HETATM    9  C   UNL     1      -9.501   8.812  67.146  1.00  0.00    -0.208 A  
HETATM   10  C   UNL     1      -9.529   7.893  66.083  1.00  0.00    -0.158 A  
HETATM   11  C   UNL     1      -7.191   7.432  66.387  1.00  0.00    -0.079 A  
HETATM   12  C   UNL     1      -8.298   9.064  67.818  1.00  0.00    -0.117 A  
ENDROOT
BRANCH   1  13
HETATM   13  N   UNL     1      -9.856  13.214  67.686  1.00  0.00    -0.214 NA 
HETATM   14  H   UNL     1      -9.629  13.411  66.711  1.00  0.00     0.000 HD 
BRANCH  13  15
HETATM   15  C   UNL     1     -10.110  14.311  68.646  1.00  0.00    -0.238 C  
BRANCH  15  16
HETATM   16  C   UNL     1      -9.068  15.446  68.619  1.00  0.00    -0.195 C  
BRANCH  16  17
HETATM   17  C   UNL     1      -8.923  16.080  67.224  1.00  0.00    -0.211 C  
BRANCH  17  18
HETATM   18  C   UNL     1      -9.190  17.565  67.252  1.00  0.00    -0.240 A  
HETATM   19  C   UNL     1      -8.464  18.400  68.115  1.00  0.00    -0.301 A  
HETATM   20  C   UNL     1      -9.746  20.312  67.376  1.00  0.00    -0.584 A  
HETATM   21  C   UNL     1      -8.743  19.768  68.174  1.00  0.00    -0.333 A  
HETATM   22  C   UNL     1     -10.463  19.491  66.505  1.00  0.00    -0.595 A  
HETATM   23  C   UNL     1     -10.185  18.126  66.443  1.00  0.00    -0.405 A  
ENDBRANCH  17  18
ENDBRANCH  16  17
ENDBRANCH  15  16
BRANCH  15  24
HETATM   24  C   UNL     1     -11.489  14.921  68.299  1.00  0.00    -0.324 C  
HETATM   25  O   UNL     1     -12.118  14.671  67.280  1.00  0.00    -0.358 OA 
BRANCH  24  26
HETATM   26  O   UNL     1     -11.853  15.828  69.252  1.00  0.00    -0.365 OA 
BRANCH  26  27
HETATM   27  C   UNL     1     -12.187  15.274  70.536  1.00  0.00    -0.371 C  
HETATM   28  C   UNL     1     -11.608  16.146  71.635  1.00  0.00    -0.503 C  
ENDBRANCH  26  27
ENDBRANCH  24  26
ENDBRANCH  15  24
ENDBRANCH  13  15
ENDBRANCH   1  13
BRANCH   5  29
HETATM   29  C   UNL     1      -7.274   9.836  69.968  1.00  0.00    -0.130 C  
HETATM   30  C   UNL     1      -7.731   9.122  71.240  1.00  0.00    -0.021 C  
HETATM   31  O   UNL     1      -6.991   8.931  72.196  1.00  0.00    -0.275 OA 
HETATM   32  O   UNL     1      -9.028   8.743  71.267  1.00  0.00    -0.191 OA 
ENDBRANCH   5  29
TORSDOF 9
ENDMDL
MODEL      149
REMARK 921   NORMALIZED FREE ENERGY PREDICTED BY IDOCK:   -4.58 KCAL/MOL
REMARK 922        TOTAL FREE ENERGY PREDICTED BY IDOCK:   -9.14 KCAL/MOL
REMARK 923 INTER-LIGAND FREE ENERGY PREDICTED BY IDOCK:   -7.98 KCAL/MOL
REMARK 924 INTRA-LIGAND FREE ENERGY PREDICTED BY IDOCK:   -1.16 KCAL/MOL
REMARK 927      BINDING AFFINITY PREDICTED BY RF-SCORE:    0.00 PKD
ROOT
HETATM    1  C   UNL     1      -9.726   8.054  67.946  1.00  0.00    -0.160 C  
HETATM    2  C   UNL     1     -10.060   6.602  68.276  1.00  0.00    -0.170 C  
HETATM    3  O   UNL     1      -8.924  10.012  69.151  1.00  0.00    -0.147 OA 
HETATM    4  C   UNL     1     -11.111   5.896  72.767  1.00  0.00    -0.321 A  
HETATM    5  N   UNL     1     -10.868   9.101  69.981  1.00  0.00    -0.232 N  
HETATM    6  C   UNL     1     -11.373   6.436  69.019  1.00  0.00    -0.332 C  
HETATM    7  C   UNL     1      -9.742   9.084  69.128  1.00  0.00    -0.167 C  
HETATM    8  C   UNL     1     -10.833   8.252  72.318  1.00  0.00    -0.408 A  
HETATM    9  C   UNL     1     -11.177   6.725  70.482  1.00  0.00    -0.370 A  
HETATM   10  C   UNL     1     -11.251   5.666  71.403  1.00  0.00    -0.167 A  
HETATM   11  C   UNL     1     -10.909   7.193  73.226  1.00  0.00    -0.378 A  
HETATM   12  C   UNL     1     -10.937   8.029  70.937  1.00  0.00    -0.243 A  
ENDROOT
BRANCH   1  13
HETATM   13  N   UNL     1      -8.387   8.122  67.311  1.00  0.00    -0.120 NA 
HETATM   14  H   UNL     1      -7.564   7.747  67.781  1.00  0.00     0.000 HD 
BRANCH  13  15
HETATM   15  C   UNL     1      -8.281   8.750  65.975  1.00  0.00    -0.118 C  
BRANCH  15  16
HETATM   16  C   UNL     1      -9.504   9.591  65.559  1.00  0.00    -0.334 C  
BRANCH  16  17
HETATM   17  C   UNL     1      -9.120  11.021  65.140  1.00  0.00    -0.199 C  
BRANCH  17  18
HETATM   18  C   UNL     1     -10.306  11.954  65.183  1.00  0.00    -0.318 A  
HETATM   19  C   UNL     1     -10.348  13.007  66.109  1.00  0.00    -0.285 A  
HETATM   20  C   UNL     1     -12.549  13.634  65.329  1.00  0.00    -0.512 A  
HETATM   21  C   UNL     1     -11.465  13.842  66.179  1.00  0.00    -0.351 A  
HETATM   22  C   UNL     1     -12.509  12.598  64.395  1.00  0.00    -0.509 A  
HETATM   23  C   UNL     1     -11.393  11.765  64.321  1.00  0.00    -0.400 A  
ENDBRANCH  17  18
ENDBRANCH  16  17
ENDBRANCH  15  16
BRANCH  15  24
HETATM   24  C   UNL     1      -7.047   9.683  65.998  1.00  0.00    -0.097 C  
HETATM   25  O   UNL     1      -6.307   9.872  65.042  1.00  0.00    -0.090 OA 
BRANCH  24  26
HETATM   26  O   UNL     1      -6.867  10.192  67.251  1.00  0.00    -0.076 OA 
BRANCH  26  27
HETATM   27  C   UNL     1      -6.075  11.389  67.323  1.00  0.00    -0.085 C  
HETATM   28  C   UNL     1      -6.981  12.588  67.542  1.00  0.00    -0.149 C  
ENDBRANCH  26  27
ENDBRANCH  24  26
ENDBRANCH  15  24
ENDBRANCH  13  15
ENDBRANCH   1  13
BRANCH   5  29
HETATM   29  C   UNL     1     -11.230  10.462  70.430  1.00  0.00    -0.321 C  
HETATM   30  C   UNL     1     -11.975  11.336  69.423  1.00  0.00    -0.341 C  
HETATM   31  O   UNL     1     -12.319  12.485  69.666  1.00  0.00    -0.132 OA 
HETATM   32  O   UNL     1     -12.203  10.776  68.214  1.00  0.00    -0.449 OA 
ENDBRANCH   5  29
TORSDOF 9
ENDMDL
MODEL      150
REMARK 921   NORMALIZED FREE ENERGY PREDICTED BY IDOCK:   -4.55 KCAL/MOL
REMARK 922        TOTAL FREE ENERGY PREDICTED BY IDOCK:   -9.10 KCAL/MOL
REMARK 923 INTER-LIGAND FREE ENERGY PREDICTED BY IDOCK:   -7.76 KCAL/MOL
REMARK 924 INTRA-LIGAND FREE ENERGY PREDICTED BY IDOCK:   -1.33 KCAL/MOL
REMARK 927      BINDING AFFINITY PREDICTED BY RF-SCORE:    0.00 PKD
ROOT
HETATM    1  C   UNL     1     -10.284   9.897  69.028  1.00  0.00    -0.200 C  
HETATM    2  C   UNL     1     -11.391  10.860  69.450  1.00  0.00    -0.347 C  
HETATM    3  O   UNL     1      -7.998  10.066  68.208  1.00  0.00    -0.095 OA 
HETATM    4  C   UNL     1     -10.979  15.118  67.587  1.00  0.00    -0.308 A  
HETATM    5  N   UNL     1      -9.564  11.162  66.925  1.00  0.00    -0.184 N  
HETATM    6  C   UNL     1     -12.071  11.550  68.282  1.00  0.00    -0.073 C  
HETATM    7  C   UNL     1      -9.166  10.455  68.082  1.00  0.00    -0.145 C  
HETATM    8  C   UNL     1      -9.320  13.624  66.669  1.00  0.00    -0.265 A  
HETATM    9  C   UNL     1     -11.238  12.711  67.813  1.00  0.00    -0.319 A  
HETATM   10  C   UNL     1     -11.703  14.018  68.036  1.00  0.00    -0.394 A  
HETATM   11  C   UNL     1      -9.791  14.920  66.895  1.00  0.00    -0.246 A  
HETATM   12  C   UNL     1     -10.021  12.507  67.148  1.00  0.00    -0.216 A  
ENDROOT
BRANCH   1  13
HETATM   13  N   UNL     1      -9.618   9.349  70.235  1.00  0.00    -0.232 NA 
HETATM   14  H   UNL     1      -8.773   9.781  70.610  1.00  0.00     0.000 HD 
BRANCH  13  15
HETATM   15  C   UNL     1     -10.214   8.158  70.879  1.00  0.00    -0.189 C  
BRANCH  15  16
HETATM   16  C   UNL     1      -9.490   6.831  70.577  1.00  0.00    -0.171 C  
BRANCH  16  17
HETATM   17  C   UNL     1     -10.448   5.626  70.571  1.00  0.00    -0.347 C  
BRANCH  17  18
HETATM   18  C   UNL     1     -10.154   4.671  71.702  1.00  0.00    -0.258 A  
HETATM   19  C   UNL     1      -9.131   3.719  71.580  1.00  0.00    -0.169 A  
HETATM   20  C   UNL     1      -9.666   2.834  73.765  1.00  0.00    -0.133 A  
HETATM   21  C   UNL     1      -8.890   2.806  72.609  1.00  0.00    -0.093 A  
HETATM   22  C   UNL     1     -10.676   3.786  73.900  1.00  0.00    -0.305 A  
HETATM   23  C   UNL     1     -10.917   4.701  72.875  1.00  0.00    -0.288 A  
ENDBRANCH  17  18
ENDBRANCH  16  17
ENDBRANCH  15  16
BRANCH  15  24
HETATM   24  C   UNL     1     -10.172   8.387  72.408  1.00  0.00    -0.329 C  
HETATM   25  O   UNL     1      -9.158   8.651  73.039  1.00  0.00    -0.293 OA 
BRANCH  24  26
HETATM   26  O   UNL     1     -11.408   8.173  72.949  1.00  0.00    -0.387 OA 
BRANCH  26  27
HETATM   27  C   UNL     1     -12.500   8.182  72.015  1.00  0.00    -0.336 C  
HETATM   28  C   UNL     1     -13.486   9.273  72.392  1.00  0.00    -0.526 C  
ENDBRANCH  26  27
ENDBRANCH  24  26
ENDBRANCH  15  24
ENDBRANCH  13  15
ENDBRANCH   1  13
BRANCH   5  29
HETATM   29  C   UNL     1      -8.686  10.907  65.764  1.00  0.00    -0.190 C  
HETATM   30  C   UNL     1      -9.379  10.709  64.416  1.00  0.00    -0.251 C  
HETATM   31  O   UNL     1      -8.767  10.478  63.382  1.00  0.00    -0.175 OA 
HETATM   32  O   UNL     1     -10.729  10.764  64.436  1.00  0.00    -0.301 OA 
ENDBRANCH   5  29
TORSDOF 9
ENDMDL
MODEL      151
REMARK 921   NORMALIZED FREE ENERGY PREDICTED BY IDOCK:   -4.54 KCAL/MOL
REMARK 922        TOTAL FREE ENERGY PREDICTED BY IDOCK:   -9.09 KCAL/MOL
REMARK 923 INTER-LIGAND FREE ENERGY PREDICTED BY IDOCK:   -7.51 KCAL/MOL
REMARK 924 INTRA-LIGAND FREE ENERGY PREDICTED BY IDOCK:   -1.58 KCAL/MOL
REMARK 927      BINDING AFFINITY PREDICTED BY RF-SCORE:    0.00 PKD
ROOT
HETATM    1  C   UNL     1      -9.713   7.184  70.053  1.00  0.00    -0.171 C  
HETATM    2  C   UNL     1     -10.626   7.191  68.830  1.00  0.00    -0.219 C  
HETATM    3  O   UNL     1      -7.362   6.748  70.516  1.00  0.00    -0.077 OA 
HETATM    4  C   UNL     1      -9.070   4.544  65.316  1.00  0.00    -0.149 A  
HETATM    5  N   UNL     1      -8.483   5.010  69.503  1.00  0.00    -0.088 N  
HETATM    6  C   UNL     1     -10.991   5.802  68.338  1.00  0.00    -0.159 C  
HETATM    7  C   UNL     1      -8.393   6.343  69.962  1.00  0.00    -0.130 C  
HETATM    8  C   UNL     1      -7.677   4.270  67.270  1.00  0.00    -0.081 A  
HETATM    9  C   UNL     1      -9.874   5.241  67.503  1.00  0.00    -0.183 A  
HETATM   10  C   UNL     1     -10.065   5.092  66.119  1.00  0.00    -0.262 A  
HETATM   11  C   UNL     1      -7.878   4.125  65.894  1.00  0.00    -0.094 A  
HETATM   12  C   UNL     1      -8.659   4.854  68.084  1.00  0.00    -0.102 A  
ENDROOT
BRANCH   1  13
HETATM   13  N   UNL     1      -9.335   8.576  70.398  1.00  0.00    -0.160 NA 
HETATM   14  H   UNL     1      -8.643   9.083  69.847  1.00  0.00     0.000 HD 
BRANCH  13  15
HETATM   15  C   UNL     1      -9.993   9.208  71.563  1.00  0.00    -0.287 C  
BRANCH  15  16
HETATM   16  C   UNL     1     -11.514   9.403  71.419  1.00  0.00    -0.449 C  
BRANCH  16  17
HETATM   17  C   UNL     1     -11.883  10.294  70.219  1.00  0.00    -0.372 C  
BRANCH  17  18
HETATM   18  C   UNL     1     -12.324  11.669  70.657  1.00  0.00    -0.437 A  
HETATM   19  C   UNL     1     -13.069  11.834  71.834  1.00  0.00    -0.482 A  
HETATM   20  C   UNL     1     -13.226  14.212  71.427  1.00  0.00    -0.418 A  
HETATM   21  C   UNL     1     -13.516  13.101  72.216  1.00  0.00    -0.665 A  
HETATM   22  C   UNL     1     -12.474  14.058  70.262  1.00  0.00    -0.403 A  
HETATM   23  C   UNL     1     -12.024  12.795  69.881  1.00  0.00    -0.368 A  
ENDBRANCH  17  18
ENDBRANCH  16  17
ENDBRANCH  15  16
BRANCH  15  24
HETATM   24  C   UNL     1      -9.743   8.296  72.787  1.00  0.00    -0.266 C  
HETATM   25  O   UNL     1      -8.664   8.176  73.351  1.00  0.00    -0.233 OA 
BRANCH  24  26
HETATM   26  O   UNL     1     -10.875   7.594  73.088  1.00  0.00    -0.382 OA 
BRANCH  26  27
HETATM   27  C   UNL     1     -10.661   6.292  73.657  1.00  0.00    -0.263 C  
HETATM   28  C   UNL     1     -11.420   5.252  72.852  1.00  0.00    -0.339 C  
ENDBRANCH  26  27
ENDBRANCH  24  26
ENDBRANCH  15  24
ENDBRANCH  13  15
ENDBRANCH   1  13
BRANCH   5  29
HETATM   29  C   UNL     1      -7.546   4.099  70.195  1.00  0.00    -0.045 C  
HETATM   30  C   UNL     1      -8.164   2.887  70.891  1.00  0.00    -0.053 C  
HETATM   31  O   UNL     1      -7.500   2.065  71.509  1.00  0.00    -0.035 OA 
HETATM   32  O   UNL     1      -9.511   2.792  70.820  1.00  0.00    -0.141 OA 
ENDBRANCH   5  29
TORSDOF 9
ENDMDL
MODEL      152
REMARK 921   NORMALIZED FREE ENERGY PREDICTED BY IDOCK:   -4.51 KCAL/MOL
REMARK 922        TOTAL FREE ENERGY PREDICTED BY IDOCK:   -9.05 KCAL/MOL
REMARK 923 INTER-LIGAND FREE ENERGY PREDICTED BY IDOCK:   -7.32 KCAL/MOL
REMARK 924 INTRA-LIGAND FREE ENERGY PREDICTED BY IDOCK:   -1.73 KCAL/MOL
REMARK 927      BINDING AFFINITY PREDICTED BY RF-SCORE:    0.00 PKD
ROOT
HETATM    1  C   UNL     1     -11.137   8.828  69.437  1.00  0.00     0.067 C  
HETATM    2  C   UNL     1      -9.667   9.110  69.137  1.00  0.00    -0.163 C  
HETATM    3  O   UNL     1     -12.595   8.879  71.386  1.00  0.00    -0.308 OA 
HETATM    4  C   UNL     1      -6.885   8.713  72.862  1.00  0.00    -0.005 A  
HETATM    5  N   UNL     1     -10.760   7.503  71.592  1.00  0.00    -0.213 N  
HETATM    6  C   UNL     1      -8.730   8.017  69.619  1.00  0.00    -0.133 C  
HETATM    7  C   UNL     1     -11.517   8.488  70.919  1.00  0.00    -0.267 C  
HETATM    8  C   UNL     1      -9.134   8.019  73.401  1.00  0.00    -0.340 A  
HETATM    9  C   UNL     1      -8.462   8.180  71.090  1.00  0.00    -0.146 A  
HETATM   10  C   UNL     1      -7.184   8.585  71.510  1.00  0.00    -0.104 A  
HETATM   11  C   UNL     1      -7.859   8.422  73.809  1.00  0.00    -0.176 A  
HETATM   12  C   UNL     1      -9.459   7.921  72.040  1.00  0.00    -0.174 A  
ENDROOT
BRANCH   1  13
HETATM   13  N   UNL     1     -11.959   9.990  69.018  1.00  0.00    -0.397 NA 
HETATM   14  H   UNL     1     -12.975   9.920  68.962  1.00  0.00     0.000 HD 
BRANCH  13  15
HETATM   15  C   UNL     1     -11.262  11.252  68.684  1.00  0.00    -0.250 C  
BRANCH  15  16
HETATM   16  C   UNL     1     -11.435  11.718  67.225  1.00  0.00    -0.373 C  
BRANCH  16  17
HETATM   17  C   UNL     1     -10.089  11.904  66.503  1.00  0.00    -0.229 C  
BRANCH  17  18
HETATM   18  C   UNL     1      -9.764  13.362  66.291  1.00  0.00    -0.280 A  
HETATM   19  C   UNL     1      -8.612  13.924  66.861  1.00  0.00    -0.138 A  
HETATM   20  C   UNL     1      -9.206  16.094  65.977  1.00  0.00    -0.363 A  
HETATM   21  C   UNL     1      -8.336  15.284  66.703  1.00  0.00    -0.216 A  
HETATM   22  C   UNL     1     -10.347  15.541  65.395  1.00  0.00    -0.422 A  
HETATM   23  C   UNL     1     -10.623  14.183  65.549  1.00  0.00    -0.335 A  
ENDBRANCH  17  18
ENDBRANCH  16  17
ENDBRANCH  15  16
BRANCH  15  24
HETATM   24  C   UNL     1     -11.831  12.354  69.607  1.00  0.00    -0.311 C  
HETATM   25  O   UNL     1     -12.381  12.142  70.679  1.00  0.00    -0.357 OA 
BRANCH  24  26
HETATM   26  O   UNL     1     -11.700  13.577  69.014  1.00  0.00    -0.282 OA 
BRANCH  26  27
HETATM   27  C   UNL     1     -11.528  14.684  69.914  1.00  0.00    -0.274 C  
HETATM   28  C   UNL     1     -11.447  15.978  69.122  1.00  0.00    -0.347 C  
ENDBRANCH  26  27
ENDBRANCH  24  26
ENDBRANCH  15  24
ENDBRANCH  13  15
ENDBRANCH   1  13
BRANCH   5  29
HETATM   29  C   UNL     1     -11.577   6.669  72.499  1.00  0.00    -0.205 C  
HETATM   30  C   UNL     1     -11.200   5.191  72.590  1.00  0.00    -0.209 C  
HETATM   31  O   UNL     1     -11.805   4.393  73.294  1.00  0.00    -0.175 OA 
HETATM   32  O   UNL     1     -10.170   4.798  71.808  1.00  0.00    -0.195 OA 
ENDBRANCH   5  29
TORSDOF 9
ENDMDL
MODEL      153
REMARK 921   NORMALIZED FREE ENERGY PREDICTED BY IDOCK:   -4.46 KCAL/MOL
REMARK 922        TOTAL FREE ENERGY PREDICTED BY IDOCK:   -8.96 KCAL/MOL
REMARK 923 INTER-LIGAND FREE ENERGY PREDICTED BY IDOCK:   -7.31 KCAL/MOL
REMARK 924 INTRA-LIGAND FREE ENERGY PREDICTED BY IDOCK:   -1.65 KCAL/MOL
REMARK 927      BINDING AFFINITY PREDICTED BY RF-SCORE:    0.00 PKD
ROOT
HETATM    1  C   UNL     1      -9.461   9.211  69.269  1.00  0.00    -0.158 C  
HETATM    2  C   UNL     1      -8.386   8.840  68.250  1.00  0.00    -0.126 C  
HETATM    3  O   UNL     1      -9.692   9.199  71.693  1.00  0.00    -0.292 OA 
HETATM    4  C   UNL     1      -5.278   5.748  69.847  1.00  0.00    -0.005 A  
HETATM    5  N   UNL     1      -9.186   7.154  70.764  1.00  0.00    -0.157 N  
HETATM    6  C   UNL     1      -8.222   7.344  68.060  1.00  0.00    -0.124 C  
HETATM    7  C   UNL     1      -9.364   8.554  70.689  1.00  0.00    -0.174 C  
HETATM    8  C   UNL     1      -7.052   6.077  71.451  1.00  0.00    -0.078 A  
HETATM    9  C   UNL     1      -7.374   6.774  69.164  1.00  0.00    -0.093 A  
HETATM   10  C   UNL     1      -6.081   6.314  68.862  1.00  0.00    -0.025 A  
HETATM   11  C   UNL     1      -5.768   5.622  71.141  1.00  0.00    -0.017 A  
HETATM   12  C   UNL     1      -7.858   6.682  70.475  1.00  0.00    -0.106 A  
ENDROOT
BRANCH   1  13
HETATM   13  N   UNL     1      -9.479  10.682  69.457  1.00  0.00    -0.423 NA 
HETATM   14  H   UNL     1      -8.762  11.149  70.011  1.00  0.00     0.000 HD 
BRANCH  13  15
HETATM   15  C   UNL     1     -10.568  11.452  68.816  1.00  0.00    -0.204 C  
BRANCH  15  16
HETATM   16  C   UNL     1     -11.142  10.816  67.535  1.00  0.00    -0.374 C  
BRANCH  16  17
HETATM   17  C   UNL     1     -10.420  11.298  66.264  1.00  0.00    -0.308 C  
BRANCH  17  18
HETATM   18  C   UNL     1     -10.886  12.670  65.843  1.00  0.00    -0.300 A  
HETATM   19  C   UNL     1     -12.256  12.968  65.779  1.00  0.00    -0.511 A  
HETATM   20  C   UNL     1     -11.758  15.191  64.971  1.00  0.00    -0.236 A  
HETATM   21  C   UNL     1     -12.687  14.223  65.346  1.00  0.00    -0.385 A  
HETATM   22  C   UNL     1     -10.394  14.908  65.043  1.00  0.00    -0.401 A  
HETATM   23  C   UNL     1      -9.961  13.656  65.479  1.00  0.00    -0.244 A  
ENDBRANCH  17  18
ENDBRANCH  16  17
ENDBRANCH  15  16
BRANCH  15  24
HETATM   24  C   UNL     1     -11.718  11.573  69.844  1.00  0.00    -0.343 C  
HETATM   25  O   UNL     1     -12.472  10.659  70.147  1.00  0.00    -0.322 OA 
BRANCH  24  26
HETATM   26  O   UNL     1     -11.811  12.858  70.295  1.00  0.00    -0.305 OA 
BRANCH  26  27
HETATM   27  C   UNL     1     -12.080  13.848  69.288  1.00  0.00    -0.339 C  
HETATM   28  C   UNL     1     -11.122  15.014  69.449  1.00  0.00    -0.290 C  
ENDBRANCH  26  27
ENDBRANCH  24  26
ENDBRANCH  15  24
ENDBRANCH  13  15
ENDBRANCH   1  13
BRANCH   5  29
HETATM   29  C   UNL     1      -9.914   6.541  71.895  1.00  0.00    -0.177 C  
HETATM   30  C   UNL     1     -11.350   6.096  71.619  1.00  0.00    -0.284 C  
HETATM   31  O   UNL     1     -12.064   5.587  72.474  1.00  0.00    -0.183 OA 
HETATM   32  O   UNL     1     -11.810   6.336  70.372  1.00  0.00    -0.329 OA 
ENDBRANCH   5  29
TORSDOF 9
ENDMDL
MODEL      154
REMARK 921   NORMALIZED FREE ENERGY PREDICTED BY IDOCK:   -4.45 KCAL/MOL
REMARK 922        TOTAL FREE ENERGY PREDICTED BY IDOCK:   -8.94 KCAL/MOL
REMARK 923 INTER-LIGAND FREE ENERGY PREDICTED BY IDOCK:   -7.41 KCAL/MOL
REMARK 924 INTRA-LIGAND FREE ENERGY PREDICTED BY IDOCK:   -1.53 KCAL/MOL
REMARK 927      BINDING AFFINITY PREDICTED BY RF-SCORE:    0.00 PKD
ROOT
HETATM    1  C   UNL     1      -9.349  10.490  67.633  1.00  0.00    -0.149 C  
HETATM    2  C   UNL     1      -8.636  11.315  66.564  1.00  0.00    -0.170 C  
HETATM    3  O   UNL     1     -11.646   9.910  68.194  1.00  0.00    -0.051 OA 
HETATM    4  C   UNL     1     -11.325  14.603  64.634  1.00  0.00    -0.372 A  
HETATM    5  N   UNL     1     -11.214  12.171  68.121  1.00  0.00    -0.246 N  
HETATM    6  C   UNL     1      -8.754  12.813  66.776  1.00  0.00    -0.125 C  
HETATM    7  C   UNL     1     -10.855  10.820  67.912  1.00  0.00    -0.264 C  
HETATM    8  C   UNL     1     -12.477  13.529  66.463  1.00  0.00    -0.309 A  
HETATM    9  C   UNL     1     -10.082  13.302  66.270  1.00  0.00    -0.294 A  
HETATM   10  C   UNL     1     -10.120  14.102  65.114  1.00  0.00    -0.348 A  
HETATM   11  C   UNL     1     -12.504  14.323  65.314  1.00  0.00    -0.428 A  
HETATM   12  C   UNL     1     -11.273  12.987  66.938  1.00  0.00    -0.295 A  
ENDROOT
BRANCH   1  13
HETATM   13  N   UNL     1      -9.261   9.050  67.289  1.00  0.00    -0.133 NA 
HETATM   14  H   UNL     1      -9.369   8.734  66.325  1.00  0.00     0.000 HD 
BRANCH  13  15
HETATM   15  C   UNL     1      -9.012   8.087  68.384  1.00  0.00    -0.133 C  
BRANCH  15  16
HETATM   16  C   UNL     1      -9.305   6.616  68.029  1.00  0.00    -0.113 C  
BRANCH  16  17
HETATM   17  C   UNL     1     -10.753   6.209  68.356  1.00  0.00    -0.361 C  
BRANCH  17  18
HETATM   18  C   UNL     1     -10.949   5.977  69.834  1.00  0.00    -0.458 A  
HETATM   19  C   UNL     1     -11.919   6.701  70.544  1.00  0.00    -0.377 A  
HETATM   20  C   UNL     1     -11.253   5.616  72.600  1.00  0.00    -0.350 A  
HETATM   21  C   UNL     1     -12.069   6.518  71.921  1.00  0.00    -0.388 A  
HETATM   22  C   UNL     1     -10.296   4.882  71.899  1.00  0.00    -0.259 A  
HETATM   23  C   UNL     1     -10.146   5.061  70.524  1.00  0.00    -0.323 A  
ENDBRANCH  17  18
ENDBRANCH  16  17
ENDBRANCH  15  16
BRANCH  15  24
HETATM   24  C   UNL     1      -7.517   8.195  68.766  1.00  0.00    -0.090 C  
HETATM   25  O   UNL     1      -6.614   8.415  67.970  1.00  0.00    -0.056 OA 
BRANCH  24  26
HETATM   26  O   UNL     1      -7.353   7.932  70.096  1.00  0.00    -0.067 OA 
BRANCH  26  27
HETATM   27  C   UNL     1      -7.688   9.010  70.985  1.00  0.00    -0.125 C  
HETATM   28  C   UNL     1      -9.018   8.722  71.658  1.00  0.00    -0.301 C  
ENDBRANCH  26  27
ENDBRANCH  24  26
ENDBRANCH  15  24
ENDBRANCH  13  15
ENDBRANCH   1  13
BRANCH   5  29
HETATM   29  C   UNL     1     -12.278  12.333  69.135  1.00  0.00    -0.023 C  
HETATM   30  C   UNL     1     -12.123  13.506  70.102  1.00  0.00    -0.354 C  
HETATM   31  O   UNL     1     -12.926  13.742  70.995  1.00  0.00    -0.306 OA 
HETATM   32  O   UNL     1     -11.010  14.257  69.942  1.00  0.00    -0.148 OA 
ENDBRANCH   5  29
TORSDOF 9
ENDMDL
MODEL      155
REMARK 921   NORMALIZED FREE ENERGY PREDICTED BY IDOCK:   -4.41 KCAL/MOL
REMARK 922        TOTAL FREE ENERGY PREDICTED BY IDOCK:   -8.88 KCAL/MOL
REMARK 923 INTER-LIGAND FREE ENERGY PREDICTED BY IDOCK:   -8.11 KCAL/MOL
REMARK 924 INTRA-LIGAND FREE ENERGY PREDICTED BY IDOCK:   -0.77 KCAL/MOL
REMARK 927      BINDING AFFINITY PREDICTED BY RF-SCORE:    0.00 PKD
ROOT
HETATM    1  C   UNL     1     -11.417  10.604  67.709  1.00  0.00    -0.137 C  
HETATM    2  C   UNL     1     -10.235  10.295  66.794  1.00  0.00    -0.286 C  
HETATM    3  O   UNL     1     -11.761  11.062  70.076  1.00  0.00    -0.293 OA 
HETATM    4  C   UNL     1      -6.561   8.481  69.027  1.00  0.00    -0.048 A  
HETATM    5  N   UNL     1     -10.734   9.052  69.624  1.00  0.00    -0.230 N  
HETATM    6  C   UNL     1      -9.708   8.880  66.942  1.00  0.00    -0.263 C  
HETATM    7  C   UNL     1     -11.238  10.314  69.239  1.00  0.00    -0.228 C  
HETATM    8  C   UNL     1      -8.441   8.705  70.525  1.00  0.00    -0.160 A  
HETATM    9  C   UNL     1      -8.805   8.789  68.141  1.00  0.00    -0.141 A  
HETATM   10  C   UNL     1      -7.425   8.606  67.944  1.00  0.00    -0.097 A  
HETATM   11  C   UNL     1      -7.071   8.523  70.318  1.00  0.00    -0.043 A  
HETATM   12  C   UNL     1      -9.319   8.868  69.442  1.00  0.00    -0.153 A  
ENDROOT
BRANCH   1  13
HETATM   13  N   UNL     1     -11.797  12.030  67.564  1.00  0.00    -0.574 NA 
HETATM   14  H   UNL     1     -12.707  12.295  67.187  1.00  0.00     0.000 HD 
BRANCH  13  15
HETATM   15  C   UNL     1     -10.817  13.058  67.982  1.00  0.00    -0.242 C  
BRANCH  15  16
HETATM   16  C   UNL     1      -9.883  13.552  66.860  1.00  0.00    -0.257 C  
BRANCH  16  17
HETATM   17  C   UNL     1      -8.492  13.949  67.385  1.00  0.00    -0.208 C  
BRANCH  17  18
HETATM   18  C   UNL     1      -8.315  15.447  67.425  1.00  0.00    -0.204 A  
HETATM   19  C   UNL     1      -8.426  16.208  66.252  1.00  0.00    -0.357 A  
HETATM   20  C   UNL     1      -7.895  18.221  67.480  1.00  0.00    -0.228 A  
HETATM   21  C   UNL     1      -8.217  17.588  66.282  1.00  0.00    -0.275 A  
HETATM   22  C   UNL     1      -7.796  17.474  68.655  1.00  0.00    -0.272 A  
HETATM   23  C   UNL     1      -8.007  16.096  68.627  1.00  0.00    -0.201 A  
ENDBRANCH  17  18
ENDBRANCH  16  17
ENDBRANCH  15  16
BRANCH  15  24
HETATM   24  C   UNL     1     -11.616  14.273  68.508  1.00  0.00    -0.320 C  
HETATM   25  O   UNL     1     -11.513  15.410  68.068  1.00  0.00    -0.338 OA 
BRANCH  24  26
HETATM   26  O   UNL     1     -12.382  13.904  69.576  1.00  0.00    -0.333 OA 
BRANCH  26  27
HETATM   27  C   UNL     1     -12.459  14.866  70.641  1.00  0.00    -0.352 C  
HETATM   28  C   UNL     1     -13.745  14.661  71.423  1.00  0.00    -0.474 C  
ENDBRANCH  26  27
ENDBRANCH  24  26
ENDBRANCH  15  24
ENDBRANCH  13  15
ENDBRANCH   1  13
BRANCH   5  29
HETATM   29  C   UNL     1     -11.350   8.540  70.866  1.00  0.00    -0.268 C  
HETATM   30  C   UNL     1     -11.773   7.072  70.861  1.00  0.00    -0.343 C  
HETATM   31  O   UNL     1     -12.306   6.530  71.821  1.00  0.00    -0.347 OA 
HETATM   32  O   UNL     1     -11.561   6.402  69.707  1.00  0.00    -0.431 OA 
ENDBRANCH   5  29
TORSDOF 9
ENDMDL
MODEL      156
REMARK 921   NORMALIZED FREE ENERGY PREDICTED BY IDOCK:   -4.39 KCAL/MOL
REMARK 922        TOTAL FREE ENERGY PREDICTED BY IDOCK:   -8.86 KCAL/MOL
REMARK 923 INTER-LIGAND FREE ENERGY PREDICTED BY IDOCK:   -8.12 KCAL/MOL
REMARK 924 INTRA-LIGAND FREE ENERGY PREDICTED BY IDOCK:   -0.74 KCAL/MOL
REMARK 927      BINDING AFFINITY PREDICTED BY RF-SCORE:    0.00 PKD
ROOT
HETATM    1  C   UNL     1      -9.367  11.216  66.353  1.00  0.00    -0.188 C  
HETATM    2  C   UNL     1      -8.846  10.696  65.016  1.00  0.00    -0.212 C  
HETATM    3  O   UNL     1      -8.693  11.100  68.690  1.00  0.00    -0.155 OA 
HETATM    4  C   UNL     1      -6.113   6.934  65.404  1.00  0.00    -0.036 A  
HETATM    5  N   UNL     1      -9.014   9.057  67.678  1.00  0.00    -0.124 N  
HETATM    6  C   UNL     1      -9.089   9.213  64.806  1.00  0.00    -0.157 C  
HETATM    7  C   UNL     1      -8.902  10.465  67.648  1.00  0.00    -0.124 C  
HETATM    8  C   UNL     1      -7.063   7.521  67.545  1.00  0.00    -0.085 A  
HETATM    9  C   UNL     1      -8.041   8.412  65.527  1.00  0.00    -0.129 A  
HETATM   10  C   UNL     1      -7.078   7.715  64.776  1.00  0.00    -0.064 A  
HETATM   11  C   UNL     1      -6.111   6.831  66.789  1.00  0.00    -0.036 A  
HETATM   12  C   UNL     1      -8.019   8.340  66.926  1.00  0.00    -0.099 A  
ENDROOT
BRANCH   1  13
HETATM   13  N   UNL     1      -8.998  12.645  66.507  1.00  0.00    -0.385 NA 
HETATM   14  H   UNL     1      -8.099  12.993  66.175  1.00  0.00     0.000 HD 
BRANCH  13  15
HETATM   15  C   UNL     1      -9.973  13.549  67.156  1.00  0.00    -0.246 C  
BRANCH  15  16
HETATM   16  C   UNL     1      -9.798  15.041  66.810  1.00  0.00    -0.252 C  
BRANCH  16  17
HETATM   17  C   UNL     1     -10.473  15.967  67.838  1.00  0.00    -0.288 C  
BRANCH  17  18
HETATM   18  C   UNL     1     -10.303  17.422  67.477  1.00  0.00    -0.351 A  
HETATM   19  C   UNL     1      -9.977  18.365  68.464  1.00  0.00    -0.415 A  
HETATM   20  C   UNL     1     -10.076  20.143  66.828  1.00  0.00    -0.591 A  
HETATM   21  C   UNL     1      -9.864  19.719  68.138  1.00  0.00    -0.536 A  
HETATM   22  C   UNL     1     -10.386  19.210  65.838  1.00  0.00    -0.463 A  
HETATM   23  C   UNL     1     -10.497  17.858  66.161  1.00  0.00    -0.321 A  
ENDBRANCH  17  18
ENDBRANCH  16  17
ENDBRANCH  15  16
BRANCH  15  24
HETATM   24  C   UNL     1     -11.385  13.116  66.697  1.00  0.00    -0.325 C  
HETATM   25  O   UNL     1     -12.020  12.195  67.192  1.00  0.00    -0.580 OA 
BRANCH  24  26
HETATM   26  O   UNL     1     -11.775  13.855  65.616  1.00  0.00    -0.332 OA 
BRANCH  26  27
HETATM   27  C   UNL     1     -12.715  13.215  64.738  1.00  0.00    -0.308 C  
HETATM   28  C   UNL     1     -12.110  13.080  63.352  1.00  0.00    -0.591 C  
ENDBRANCH  26  27
ENDBRANCH  24  26
ENDBRANCH  15  24
ENDBRANCH  13  15
ENDBRANCH   1  13
BRANCH   5  29
HETATM   29  C   UNL     1      -9.392   8.538  69.009  1.00  0.00    -0.146 C  
HETATM   30  C   UNL     1     -10.514   7.501  69.043  1.00  0.00    -0.208 C  
HETATM   31  O   UNL     1     -10.929   7.004  70.081  1.00  0.00    -0.252 OA 
HETATM   32  O   UNL     1     -11.061   7.188  67.847  1.00  0.00    -0.118 OA 
ENDBRANCH   5  29
TORSDOF 9
ENDMDL
MODEL      157
REMARK 921   NORMALIZED FREE ENERGY PREDICTED BY IDOCK:   -4.39 KCAL/MOL
REMARK 922        TOTAL FREE ENERGY PREDICTED BY IDOCK:   -8.86 KCAL/MOL
REMARK 923 INTER-LIGAND FREE ENERGY PREDICTED BY IDOCK:   -7.81 KCAL/MOL
REMARK 924 INTRA-LIGAND FREE ENERGY PREDICTED BY IDOCK:   -1.05 KCAL/MOL
REMARK 927      BINDING AFFINITY PREDICTED BY RF-SCORE:    0.00 PKD
ROOT
HETATM    1  C   UNL     1      -9.809  15.141  68.546  1.00  0.00    -0.220 C  
HETATM    2  C   UNL     1      -8.524  15.361  69.339  1.00  0.00    -0.253 C  
HETATM    3  O   UNL     1     -10.466  15.100  66.201  1.00  0.00    -0.288 OA 
HETATM    4  C   UNL     1      -5.295  17.816  67.033  1.00  0.00    -0.158 A  
HETATM    5  N   UNL     1      -9.479  17.063  66.891  1.00  0.00    -0.248 N  
HETATM    6  C   UNL     1      -8.090  16.814  69.398  1.00  0.00     0.159 C  
HETATM    7  C   UNL     1      -9.864  15.718  67.090  1.00  0.00    -0.226 C  
HETATM    8  C   UNL     1      -7.357  17.734  65.780  1.00  0.00    -0.126 A  
HETATM    9  C   UNL     1      -7.373  17.189  68.131  1.00  0.00    -0.202 A  
HETATM   10  C   UNL     1      -5.989  17.433  68.176  1.00  0.00    -0.154 A  
HETATM   11  C   UNL     1      -5.982  17.974  65.836  1.00  0.00    -0.256 A  
HETATM   12  C   UNL     1      -8.063  17.312  66.917  1.00  0.00    -0.228 A  
ENDROOT
BRANCH   1  13
HETATM   13  N   UNL     1     -10.098  13.688  68.464  1.00  0.00    -0.254 NA 
HETATM   14  H   UNL     1      -9.343  13.002  68.474  1.00  0.00     0.000 HD 
BRANCH  13  15
HETATM   15  C   UNL     1     -11.512  13.264  68.366  1.00  0.00    -0.314 C  
BRANCH  15  16
HETATM   16  C   UNL     1     -11.741  11.955  67.585  1.00  0.00    -0.346 C  
BRANCH  16  17
HETATM   17  C   UNL     1     -10.442  11.400  66.973  1.00  0.00    -0.271 C  
BRANCH  17  18
HETATM   18  C   UNL     1     -10.166   9.989  67.432  1.00  0.00    -0.269 A  
HETATM   19  C   UNL     1      -9.610   9.750  68.698  1.00  0.00    -0.155 A  
HETATM   20  C   UNL     1      -9.564   7.374  68.253  1.00  0.00    -0.153 A  
HETATM   21  C   UNL     1      -9.312   8.447  69.104  1.00  0.00    -0.151 A  
HETATM   22  C   UNL     1     -10.129   7.602  66.998  1.00  0.00    -0.338 A  
HETATM   23  C   UNL     1     -10.430   8.901  66.591  1.00  0.00    -0.231 A  
ENDBRANCH  17  18
ENDBRANCH  16  17
ENDBRANCH  15  16
BRANCH  15  24
HETATM   24  C   UNL     1     -12.035  13.057  69.807  1.00  0.00    -0.308 C  
HETATM   25  O   UNL     1     -12.538  13.936  70.493  1.00  0.00    -0.333 OA 
BRANCH  24  26
HETATM   26  O   UNL     1     -11.779  11.781  70.220  1.00  0.00    -0.309 OA 
BRANCH  26  27
HETATM   27  C   UNL     1     -12.830  11.153  70.973  1.00  0.00    -0.329 C  
HETATM   28  C   UNL     1     -12.307   9.882  71.619  1.00  0.00    -0.496 C  
ENDBRANCH  26  27
ENDBRANCH  24  26
ENDBRANCH  15  24
ENDBRANCH  13  15
ENDBRANCH   1  13
BRANCH   5  29
HETATM   29  C   UNL     1     -10.290  17.748  65.862  1.00  0.00    -0.254 C  
HETATM   30  C   UNL     1     -10.598  19.224  66.109  1.00  0.00    -0.459 C  
HETATM   31  O   UNL     1     -11.269  19.901  65.341  1.00  0.00    -0.271 OA 
HETATM   32  O   UNL     1     -10.114  19.741  67.260  1.00  0.00    -0.365 OA 
ENDBRANCH   5  29
TORSDOF 9
ENDMDL
MODEL      158
REMARK 921   NORMALIZED FREE ENERGY PREDICTED BY IDOCK:   -4.39 KCAL/MOL
REMARK 922        TOTAL FREE ENERGY PREDICTED BY IDOCK:   -8.86 KCAL/MOL
REMARK 923 INTER-LIGAND FREE ENERGY PREDICTED BY IDOCK:   -7.51 KCAL/MOL
REMARK 924 INTRA-LIGAND FREE ENERGY PREDICTED BY IDOCK:   -1.35 KCAL/MOL
REMARK 927      BINDING AFFINITY PREDICTED BY RF-SCORE:    0.00 PKD
ROOT
HETATM    1  C   UNL     1     -10.277   7.885  68.464  1.00  0.00    -0.205 C  
HETATM    2  C   UNL     1     -10.567   9.384  68.479  1.00  0.00    -0.234 C  
HETATM    3  O   UNL     1     -11.380   5.853  69.228  1.00  0.00    -0.325 OA 
HETATM    4  C   UNL     1     -13.525  10.686  71.845  1.00  0.00    -0.341 A  
HETATM    5  N   UNL     1     -10.987   7.413  70.875  1.00  0.00    -0.248 N  
HETATM    6  C   UNL     1     -10.370  10.025  69.840  1.00  0.00    -0.315 C  
HETATM    7  C   UNL     1     -11.015   6.998  69.525  1.00  0.00    -0.220 C  
HETATM    8  C   UNL     1     -12.960   8.349  72.066  1.00  0.00    -0.388 A  
HETATM    9  C   UNL     1     -11.576   9.782  70.704  1.00  0.00    -0.389 A  
HETATM   10  C   UNL     1     -12.418  10.862  71.021  1.00  0.00    -0.514 A  
HETATM   11  C   UNL     1     -13.790   9.429  72.375  1.00  0.00    -0.422 A  
HETATM   12  C   UNL     1     -11.862   8.505  71.206  1.00  0.00    -0.291 A  
ENDROOT
BRANCH   1  13
HETATM   13  N   UNL     1     -10.590   7.334  67.123  1.00  0.00    -0.321 NA 
HETATM   14  H   UNL     1     -11.556   7.218  66.815  1.00  0.00     0.000 HD 
BRANCH  13  15
HETATM   15  C   UNL     1      -9.460   6.955  66.245  1.00  0.00    -0.070 C  
BRANCH  15  16
HETATM   16  C   UNL     1      -8.073   7.390  66.755  1.00  0.00    -0.123 C  
BRANCH  16  17
HETATM   17  C   UNL     1      -7.753   8.857  66.418  1.00  0.00    -0.095 C  
BRANCH  17  18
HETATM   18  C   UNL     1      -8.350   9.270  65.094  1.00  0.00    -0.155 A  
HETATM   19  C   UNL     1      -7.879   8.710  63.898  1.00  0.00    -0.147 A  
HETATM   20  C   UNL     1      -9.392  10.102  62.626  1.00  0.00    -0.322 A  
HETATM   21  C   UNL     1      -8.400   9.126  62.670  1.00  0.00    -0.192 A  
HETATM   22  C   UNL     1      -9.876  10.654  63.813  1.00  0.00    -0.394 A  
HETATM   23  C   UNL     1      -9.359  10.239  65.039  1.00  0.00    -0.290 A  
ENDBRANCH  17  18
ENDBRANCH  16  17
ENDBRANCH  15  16
BRANCH  15  24
HETATM   24  C   UNL     1      -9.463   5.414  66.124  1.00  0.00    -0.157 C  
HETATM   25  O   UNL     1     -10.280   4.773  65.477  1.00  0.00    -0.189 OA 
BRANCH  24  26
HETATM   26  O   UNL     1      -8.477   4.880  66.904  1.00  0.00    -0.107 OA 
BRANCH  26  27
HETATM   27  C   UNL     1      -8.923   3.988  67.938  1.00  0.00    -0.125 C  
HETATM   28  C   UNL     1      -8.224   4.328  69.242  1.00  0.00    -0.077 C  
ENDBRANCH  26  27
ENDBRANCH  24  26
ENDBRANCH  15  24
ENDBRANCH  13  15
ENDBRANCH   1  13
BRANCH   5  29
HETATM   29  C   UNL     1     -10.892   6.282  71.822  1.00  0.00    -0.248 C  
HETATM   30  C   UNL     1     -10.091   6.529  73.100  1.00  0.00    -0.193 C  
HETATM   31  O   UNL     1      -9.926   5.671  73.958  1.00  0.00    -0.176 OA 
HETATM   32  O   UNL     1      -9.531   7.753  73.215  1.00  0.00    -0.233 OA 
ENDBRANCH   5  29
TORSDOF 9
ENDMDL
MODEL      159
REMARK 921   NORMALIZED FREE ENERGY PREDICTED BY IDOCK:   -4.37 KCAL/MOL
REMARK 922        TOTAL FREE ENERGY PREDICTED BY IDOCK:   -8.83 KCAL/MOL
REMARK 923 INTER-LIGAND FREE ENERGY PREDICTED BY IDOCK:   -9.03 KCAL/MOL
REMARK 924 INTRA-LIGAND FREE ENERGY PREDICTED BY IDOCK:    0.20 KCAL/MOL
REMARK 927      BINDING AFFINITY PREDICTED BY RF-SCORE:    0.00 PKD
ROOT
HETATM    1  C   UNL     1     -11.463  15.459  67.730  1.00  0.00    -0.278 C  
HETATM    2  C   UNL     1     -10.078  15.716  68.319  1.00  0.00    -0.218 C  
HETATM    3  O   UNL     1     -12.768  13.524  67.034  1.00  0.00    -0.007 OA 
HETATM    4  C   UNL     1      -7.009  12.311  67.448  1.00  0.00    -0.151 A  
HETATM    5  N   UNL     1     -10.734  13.745  65.977  1.00  0.00    -0.281 N  
HETATM    6  C   UNL     1      -8.953  15.568  67.311  1.00  0.00    -0.216 C  
HETATM    7  C   UNL     1     -11.679  14.110  66.961  1.00  0.00    -0.405 C  
HETATM    8  C   UNL     1      -9.080  11.911  66.273  1.00  0.00    -0.188 A  
HETATM    9  C   UNL     1      -8.609  14.115  67.133  1.00  0.00    -0.230 A  
HETATM   10  C   UNL     1      -7.381  13.640  67.623  1.00  0.00    -0.185 A  
HETATM   11  C   UNL     1      -7.857  11.448  66.765  1.00  0.00    -0.157 A  
HETATM   12  C   UNL     1      -9.483  13.239  66.476  1.00  0.00    -0.245 A  
ENDROOT
BRANCH   1  13
HETATM   13  N   UNL     1     -12.481  15.530  68.806  1.00  0.00    -0.421 NA 
HETATM   14  H   UNL     1     -13.257  16.190  68.750  1.00  0.00     0.000 HD 
BRANCH  13  15
HETATM   15  C   UNL     1     -12.338  14.618  69.962  1.00  0.00    -0.315 C  
BRANCH  15  16
HETATM   16  C   UNL     1     -11.428  13.399  69.713  1.00  0.00    -0.236 C  
BRANCH  16  17
HETATM   17  C   UNL     1     -12.064  12.081  70.191  1.00  0.00    -0.377 C  
BRANCH  17  18
HETATM   18  C   UNL     1     -11.408  10.880  69.556  1.00  0.00    -0.351 A  
HETATM   19  C   UNL     1     -10.572  10.044  70.312  1.00  0.00    -0.354 A  
HETATM   20  C   UNL     1     -10.113   8.699  68.357  1.00  0.00    -0.217 A  
HETATM   21  C   UNL     1      -9.929   8.959  69.713  1.00  0.00    -0.196 A  
HETATM   22  C   UNL     1     -10.953   9.517  67.601  1.00  0.00    -0.150 A  
HETATM   23  C   UNL     1     -11.598  10.599  68.198  1.00  0.00    -0.217 A  
ENDBRANCH  17  18
ENDBRANCH  16  17
ENDBRANCH  15  16
BRANCH  15  24
HETATM   24  C   UNL     1     -11.731  15.435  71.126  1.00  0.00    -0.368 C  
HETATM   25  O   UNL     1     -10.538  15.480  71.390  1.00  0.00    -0.004 OA 
BRANCH  24  26
HETATM   26  O   UNL     1     -12.725  16.026  71.852  1.00  0.00    -0.453 OA 
BRANCH  26  27
HETATM   27  C   UNL     1     -12.452  16.188  73.254  1.00  0.00    -0.536 C  
HETATM   28  C   UNL     1     -12.571  14.847  73.956  1.00  0.00    -0.440 C  
ENDBRANCH  26  27
ENDBRANCH  24  26
ENDBRANCH  15  24
ENDBRANCH  13  15
ENDBRANCH   1  13
BRANCH   5  29
HETATM   29  C   UNL     1     -11.346  13.068  64.814  1.00  0.00    -0.317 C  
HETATM   30  C   UNL     1     -12.143  13.951  63.854  1.00  0.00    -0.345 C  
HETATM   31  O   UNL     1     -12.709  13.512  62.862  1.00  0.00    -0.569 OA 
HETATM   32  O   UNL     1     -12.223  15.258  64.187  1.00  0.00    -0.606 OA 
ENDBRANCH   5  29
TORSDOF 9
ENDMDL
MODEL      160
REMARK 921   NORMALIZED FREE ENERGY PREDICTED BY IDOCK:   -4.37 KCAL/MOL
REMARK 922        TOTAL FREE ENERGY PREDICTED BY IDOCK:   -8.83 KCAL/MOL
REMARK 923 INTER-LIGAND FREE ENERGY PREDICTED BY IDOCK:   -9.41 KCAL/MOL
REMARK 924 INTRA-LIGAND FREE ENERGY PREDICTED BY IDOCK:    0.58 KCAL/MOL
REMARK 927      BINDING AFFINITY PREDICTED BY RF-SCORE:    0.00 PKD
ROOT
HETATM    1  C   UNL     1      -9.437  14.383  67.537  1.00  0.00    -0.207 C  
HETATM    2  C   UNL     1      -8.222  14.307  68.459  1.00  0.00    -0.145 C  
HETATM    3  O   UNL     1      -9.965  15.354  65.368  1.00  0.00    -0.344 OA 
HETATM    4  C   UNL     1      -5.133  17.735  67.772  1.00  0.00    -0.136 A  
HETATM    5  N   UNL     1      -9.211  16.859  66.938  1.00  0.00    -0.229 N  
HETATM    6  C   UNL     1      -7.935  15.604  69.191  1.00  0.00    -0.227 C  
HETATM    7  C   UNL     1      -9.473  15.546  66.487  1.00  0.00    -0.273 C  
HETATM    8  C   UNL     1      -7.110  18.091  66.433  1.00  0.00    -0.282 A  
HETATM    9  C   UNL     1      -7.193  16.552  68.289  1.00  0.00    -0.159 A  
HETATM   10  C   UNL     1      -5.844  16.837  68.561  1.00  0.00    -0.130 A  
HETATM   11  C   UNL     1      -5.769  18.368  66.712  1.00  0.00    -0.169 A  
HETATM   12  C   UNL     1      -7.829  17.160  67.199  1.00  0.00    -0.184 A  
ENDROOT
BRANCH   1  13
HETATM   13  N   UNL     1      -9.578  13.105  66.797  1.00  0.00    -0.243 NA 
HETATM   14  H   UNL     1      -9.182  12.994  65.864  1.00  0.00     0.000 HD 
BRANCH  13  15
HETATM   15  C   UNL     1     -10.310  11.998  67.451  1.00  0.00    -0.207 C  
BRANCH  15  16
HETATM   16  C   UNL     1     -11.690  12.384  68.019  1.00  0.00    -0.414 C  
BRANCH  16  17
HETATM   17  C   UNL     1     -11.696  13.787  68.652  1.00  0.00    -0.391 C  
BRANCH  17  18
HETATM   18  C   UNL     1     -12.303  13.775  70.034  1.00  0.00    -0.364 A  
HETATM   19  C   UNL     1     -12.522  12.562  70.703  1.00  0.00    -0.323 A  
HETATM   20  C   UNL     1     -13.516  13.744  72.564  1.00  0.00    -0.682 A  
HETATM   21  C   UNL     1     -13.125  12.549  71.963  1.00  0.00    -0.472 A  
HETATM   22  C   UNL     1     -13.289  14.955  71.910  1.00  0.00    -0.458 A  
HETATM   23  C   UNL     1     -12.684  14.971  70.654  1.00  0.00    -0.428 A  
ENDBRANCH  17  18
ENDBRANCH  16  17
ENDBRANCH  15  16
BRANCH  15  24
HETATM   24  C   UNL     1     -10.523  10.892  66.392  1.00  0.00    -0.250 C  
HETATM   25  O   UNL     1     -10.550   9.694  66.639  1.00  0.00    -0.189 OA 
BRANCH  24  26
HETATM   26  O   UNL     1     -10.593  11.444  65.145  1.00  0.00    -0.284 OA 
BRANCH  26  27
HETATM   27  C   UNL     1     -11.791  12.187  64.866  1.00  0.00    -0.302 C  
HETATM   28  C   UNL     1     -12.201  11.971  63.420  1.00  0.00    -0.627 C  
ENDBRANCH  26  27
ENDBRANCH  24  26
ENDBRANCH  15  24
ENDBRANCH  13  15
ENDBRANCH   1  13
BRANCH   5  29
HETATM   29  C   UNL     1     -10.030  17.878  66.249  1.00  0.00    -0.331 C  
HETATM   30  C   UNL     1     -10.398  19.119  67.062  1.00  0.00    -0.414 C  
HETATM   31  O   UNL     1     -11.082  20.029  66.612  1.00  0.00    -0.170 OA 
HETATM   32  O   UNL     1      -9.953  19.139  68.338  1.00  0.00    -0.370 OA 
ENDBRANCH   5  29
TORSDOF 9
ENDMDL
MODEL      161
REMARK 921   NORMALIZED FREE ENERGY PREDICTED BY IDOCK:   -4.37 KCAL/MOL
REMARK 922        TOTAL FREE ENERGY PREDICTED BY IDOCK:   -8.82 KCAL/MOL
REMARK 923 INTER-LIGAND FREE ENERGY PREDICTED BY IDOCK:   -6.14 KCAL/MOL
REMARK 924 INTRA-LIGAND FREE ENERGY PREDICTED BY IDOCK:   -2.68 KCAL/MOL
REMARK 927      BINDING AFFINITY PREDICTED BY RF-SCORE:    0.00 PKD
ROOT
HETATM    1  C   UNL     1      -8.162   8.121  67.959  1.00  0.00    -0.129 C  
HETATM    2  C   UNL     1      -9.305   9.115  68.154  1.00  0.00    -0.147 C  
HETATM    3  O   UNL     1      -6.261   7.869  66.459  1.00  0.00    -0.044 OA 
HETATM    4  C   UNL     1     -10.333  11.563  64.317  1.00  0.00    -0.376 A  
HETATM    5  N   UNL     1      -8.308   7.985  65.409  1.00  0.00    -0.150 N  
HETATM    6  C   UNL     1     -10.399   8.992  67.109  1.00  0.00    -0.342 C  
HETATM    7  C   UNL     1      -7.479   8.077  66.549  1.00  0.00    -0.088 C  
HETATM    8  C   UNL     1      -8.683   9.868  63.829  1.00  0.00    -0.226 A  
HETATM    9  C   UNL     1      -9.991   9.706  65.850  1.00  0.00    -0.351 A  
HETATM   10  C   UNL     1     -10.656  10.891  65.491  1.00  0.00    -0.240 A  
HETATM   11  C   UNL     1      -9.351  11.046  63.481  1.00  0.00    -0.276 A  
HETATM   12  C   UNL     1      -8.974   9.201  65.028  1.00  0.00    -0.171 A  
ENDROOT
BRANCH   1  13
HETATM   13  N   UNL     1      -7.103   8.381  68.964  1.00  0.00    -0.067 NA 
HETATM   14  H   UNL     1      -6.181   7.953  68.877  1.00  0.00     0.000 HD 
BRANCH  13  15
HETATM   15  C   UNL     1      -7.422   9.280  70.095  1.00  0.00    -0.098 C  
BRANCH  15  16
HETATM   16  C   UNL     1      -7.396   8.607  71.481  1.00  0.00    -0.118 C  
BRANCH  16  17
HETATM   17  C   UNL     1      -8.099   7.238  71.484  1.00  0.00    -0.101 C  
BRANCH  17  18
HETATM   18  C   UNL     1      -9.601   7.380  71.478  1.00  0.00    -0.163 A  
HETATM   19  C   UNL     1     -10.390   6.551  70.667  1.00  0.00    -0.239 A  
HETATM   20  C   UNL     1     -12.387   7.704  71.394  1.00  0.00    -0.358 A  
HETATM   21  C   UNL     1     -11.777   6.714  70.628  1.00  0.00    -0.452 A  
HETATM   22  C   UNL     1     -11.611   8.524  72.214  1.00  0.00    -0.444 A  
HETATM   23  C   UNL     1     -10.227   8.361  72.257  1.00  0.00    -0.396 A  
ENDBRANCH  17  18
ENDBRANCH  16  17
ENDBRANCH  15  16
BRANCH  15  24
HETATM   24  C   UNL     1      -6.371  10.415  70.097  1.00  0.00    -0.123 C  
HETATM   25  O   UNL     1      -6.024  11.034  71.093  1.00  0.00    -0.362 OA 
BRANCH  24  26
HETATM   26  O   UNL     1      -5.954  10.671  68.822  1.00  0.00    -0.041 OA 
BRANCH  26  27
HETATM   27  C   UNL     1      -6.360  11.940  68.283  1.00  0.00    -0.051 C  
HETATM   28  C   UNL     1      -7.079  11.728  66.963  1.00  0.00    -0.132 C  
ENDBRANCH  26  27
ENDBRANCH  24  26
ENDBRANCH  15  24
ENDBRANCH  13  15
ENDBRANCH   1  13
BRANCH   5  29
HETATM   29  C   UNL     1      -7.727   7.143  64.342  1.00  0.00    -0.117 C  
HETATM   30  C   UNL     1      -8.208   5.694  64.280  1.00  0.00    -0.117 C  
HETATM   31  O   UNL     1      -7.796   4.891  63.453  1.00  0.00    -0.068 OA 
HETATM   32  O   UNL     1      -9.099   5.330  65.229  1.00  0.00    -0.155 OA 
ENDBRANCH   5  29
TORSDOF 9
ENDMDL
MODEL      162
REMARK 921   NORMALIZED FREE ENERGY PREDICTED BY IDOCK:   -4.37 KCAL/MOL
REMARK 922        TOTAL FREE ENERGY PREDICTED BY IDOCK:   -8.82 KCAL/MOL
REMARK 923 INTER-LIGAND FREE ENERGY PREDICTED BY IDOCK:   -7.52 KCAL/MOL
REMARK 924 INTRA-LIGAND FREE ENERGY PREDICTED BY IDOCK:   -1.30 KCAL/MOL
REMARK 927      BINDING AFFINITY PREDICTED BY RF-SCORE:    0.00 PKD
ROOT
HETATM    1  C   UNL     1      -9.033  16.556  67.439  1.00  0.00    -0.199 C  
HETATM    2  C   UNL     1      -9.530  17.456  68.568  1.00  0.00    -0.297 C  
HETATM    3  O   UNL     1      -6.901  15.633  66.710  1.00  0.00    -0.203 OA 
HETATM    4  C   UNL     1      -6.227  20.226  70.351  1.00  0.00    -0.318 A  
HETATM    5  N   UNL     1      -6.959  17.931  66.845  1.00  0.00    -0.173 N  
HETATM    6  C   UNL     1      -9.190  18.921  68.370  1.00  0.00    -0.390 C  
HETATM    7  C   UNL     1      -7.515  16.650  67.060  1.00  0.00    -0.204 C  
HETATM    8  C   UNL     1      -5.387  19.029  68.429  1.00  0.00    -0.184 A  
HETATM    9  C   UNL     1      -7.769  19.181  68.788  1.00  0.00    -0.390 A  
HETATM   10  C   UNL     1      -7.526  19.934  69.949  1.00  0.00     0.275 A  
HETATM   11  C   UNL     1      -5.157  19.780  69.585  1.00  0.00    -0.206 A  
HETATM   12  C   UNL     1      -6.692  18.697  68.033  1.00  0.00    -0.221 A  
ENDROOT
BRANCH   1  13
HETATM   13  N   UNL     1      -9.326  15.140  67.768  1.00  0.00    -0.188 NA 
HETATM   14  H   UNL     1      -9.148  14.771  68.702  1.00  0.00     0.000 HD 
BRANCH  13  15
HETATM   15  C   UNL     1      -9.885  14.279  66.703  1.00  0.00    -0.281 C  
BRANCH  15  16
HETATM   16  C   UNL     1      -9.186  12.915  66.542  1.00  0.00    -0.186 C  
BRANCH  16  17
HETATM   17  C   UNL     1      -8.829  12.273  67.894  1.00  0.00    -0.178 C  
BRANCH  17  18
HETATM   18  C   UNL     1      -9.364  10.867  68.006  1.00  0.00    -0.160 A  
HETATM   19  C   UNL     1      -9.163   9.946  66.967  1.00  0.00    -0.164 A  
HETATM   20  C   UNL     1     -10.438   8.280  68.169  1.00  0.00    -0.226 A  
HETATM   21  C   UNL     1      -9.698   8.658  67.051  1.00  0.00    -0.262 A  
HETATM   22  C   UNL     1     -10.632   9.185  69.212  1.00  0.00    -0.229 A  
HETATM   23  C   UNL     1     -10.096  10.470  69.132  1.00  0.00    -0.240 A  
ENDBRANCH  17  18
ENDBRANCH  16  17
ENDBRANCH  15  16
BRANCH  15  24
HETATM   24  C   UNL     1     -11.369  14.016  67.049  1.00  0.00    -0.330 C  
HETATM   25  O   UNL     1     -11.955  14.512  68.002  1.00  0.00    -0.326 OA 
BRANCH  24  26
HETATM   26  O   UNL     1     -11.896  13.096  66.189  1.00  0.00    -0.362 OA 
BRANCH  26  27
HETATM   27  C   UNL     1     -12.692  13.635  65.120  1.00  0.00    -0.395 C  
HETATM   28  C   UNL     1     -12.030  13.332  63.788  1.00  0.00    -0.551 C  
ENDBRANCH  26  27
ENDBRANCH  24  26
ENDBRANCH  15  24
ENDBRANCH  13  15
ENDBRANCH   1  13
BRANCH   5  29
HETATM   29  C   UNL     1      -5.954  17.948  65.762  1.00  0.00    -0.188 C  
HETATM   30  C   UNL     1      -6.129  19.021  64.688  1.00  0.00    -0.218 C  
HETATM   31  O   UNL     1      -5.373  19.134  63.732  1.00  0.00    -0.239 OA 
HETATM   32  O   UNL     1      -7.204  19.827  64.831  1.00  0.00    -0.288 OA 
ENDBRANCH   5  29
TORSDOF 9
ENDMDL
MODEL      163
REMARK 921   NORMALIZED FREE ENERGY PREDICTED BY IDOCK:   -4.36 KCAL/MOL
REMARK 922        TOTAL FREE ENERGY PREDICTED BY IDOCK:   -8.82 KCAL/MOL
REMARK 923 INTER-LIGAND FREE ENERGY PREDICTED BY IDOCK:   -7.80 KCAL/MOL
REMARK 924 INTRA-LIGAND FREE ENERGY PREDICTED BY IDOCK:   -1.01 KCAL/MOL
REMARK 927      BINDING AFFINITY PREDICTED BY RF-SCORE:    0.00 PKD
ROOT
HETATM    1  C   UNL     1     -11.260  11.090  68.808  1.00  0.00    -0.266 C  
HETATM    2  C   UNL     1     -12.364  11.275  69.846  1.00  0.00    -0.301 C  
HETATM    3  O   UNL     1     -10.317   9.248  67.525  1.00  0.00    -0.228 OA 
HETATM    4  C   UNL     1     -13.401   7.378  72.194  1.00  0.00    -0.059 A  
HETATM    5  N   UNL     1     -10.255   8.961  69.809  1.00  0.00    -0.195 N  
HETATM    6  C   UNL     1     -11.990  10.766  71.226  1.00  0.00    -0.286 C  
HETATM    7  C   UNL     1     -10.660   9.651  68.644  1.00  0.00    -0.217 C  
HETATM    8  C   UNL     1     -11.493   7.024  70.758  1.00  0.00    -0.360 A  
HETATM    9  C   UNL     1     -12.175   9.275  71.293  1.00  0.00    -0.410 A  
HETATM   10  C   UNL     1     -13.218   8.752  72.077  1.00  0.00    -0.438 A  
HETATM   11  C   UNL     1     -12.532   6.513  71.540  1.00  0.00    -0.228 A  
HETATM   12  C   UNL     1     -11.319   8.407  70.602  1.00  0.00    -0.244 A  
ENDROOT
BRANCH   1  13
HETATM   13  N   UNL     1     -11.752  11.525  67.478  1.00  0.00    -0.604 NA 
HETATM   14  H   UNL     1     -11.943  10.845  66.742  1.00  0.00     0.000 HD 
BRANCH  13  15
HETATM   15  C   UNL     1     -11.959  12.972  67.252  1.00  0.00    -0.321 C  
BRANCH  15  16
HETATM   16  C   UNL     1     -10.968  13.889  67.995  1.00  0.00    -0.267 C  
BRANCH  16  17
HETATM   17  C   UNL     1      -9.524  13.360  67.945  1.00  0.00    -0.216 C  
BRANCH  17  18
HETATM   18  C   UNL     1      -8.514  14.473  68.081  1.00  0.00    -0.157 A  
HETATM   19  C   UNL     1      -7.533  14.667  67.096  1.00  0.00    -0.035 A  
HETATM   20  C   UNL     1      -6.579  16.484  68.374  1.00  0.00    -0.138 A  
HETATM   21  C   UNL     1      -6.572  15.669  67.244  1.00  0.00    -0.131 A  
HETATM   22  C   UNL     1      -7.559  16.307  69.351  1.00  0.00    -0.126 A  
HETATM   23  C   UNL     1      -8.522  15.309  69.204  1.00  0.00    -0.234 A  
ENDBRANCH  17  18
ENDBRANCH  16  17
ENDBRANCH  15  16
BRANCH  15  24
HETATM   24  C   UNL     1     -11.801  13.232  65.735  1.00  0.00    -0.387 C  
HETATM   25  O   UNL     1     -11.520  12.371  64.913  1.00  0.00    -0.313 OA 
BRANCH  24  26
HETATM   26  O   UNL     1     -11.943  14.563  65.470  1.00  0.00    -0.354 OA 
BRANCH  26  27
HETATM   27  C   UNL     1     -10.880  15.156  64.705  1.00  0.00    -0.357 C  
HETATM   28  C   UNL     1     -10.244  16.282  65.502  1.00  0.00    -0.326 C  
ENDBRANCH  26  27
ENDBRANCH  24  26
ENDBRANCH  15  24
ENDBRANCH  13  15
ENDBRANCH   1  13
BRANCH   5  29
HETATM   29  C   UNL     1      -9.041   8.144  69.600  1.00  0.00    -0.151 C  
HETATM   30  C   UNL     1      -7.914   8.329  70.615  1.00  0.00    -0.094 C  
HETATM   31  O   UNL     1      -6.853   7.722  70.548  1.00  0.00    -0.042 OA 
HETATM   32  O   UNL     1      -8.139   9.243  71.584  1.00  0.00    -0.317 OA 
ENDBRANCH   5  29
TORSDOF 9
ENDMDL
MODEL      164
REMARK 921   NORMALIZED FREE ENERGY PREDICTED BY IDOCK:   -4.35 KCAL/MOL
REMARK 922        TOTAL FREE ENERGY PREDICTED BY IDOCK:   -8.79 KCAL/MOL
REMARK 923 INTER-LIGAND FREE ENERGY PREDICTED BY IDOCK:   -9.16 KCAL/MOL
REMARK 924 INTRA-LIGAND FREE ENERGY PREDICTED BY IDOCK:    0.37 KCAL/MOL
REMARK 927      BINDING AFFINITY PREDICTED BY RF-SCORE:    0.00 PKD
ROOT
HETATM    1  C   UNL     1     -11.052  11.450  67.034  1.00  0.00    -0.303 C  
HETATM    2  C   UNL     1      -9.914  12.342  66.546  1.00  0.00    -0.242 C  
HETATM    3  O   UNL     1     -11.705  10.385  69.124  1.00  0.00    -0.213 OA 
HETATM    4  C   UNL     1      -6.028  11.989  69.104  1.00  0.00    -0.074 A  
HETATM    5  N   UNL     1      -9.607   9.813  68.366  1.00  0.00    -0.146 N  
HETATM    6  C   UNL     1      -8.605  11.600  66.345  1.00  0.00    -0.143 C  
HETATM    7  C   UNL     1     -10.790  10.584  68.314  1.00  0.00    -0.248 C  
HETATM    8  C   UNL     1      -7.668  10.370  69.821  1.00  0.00    -0.126 A  
HETATM    9  C   UNL     1      -7.905  11.425  67.664  1.00  0.00    -0.122 A  
HETATM   10  C   UNL     1      -6.725  12.148  67.911  1.00  0.00    -0.085 A  
HETATM   11  C   UNL     1      -6.496  11.093  70.056  1.00  0.00    -0.133 A  
HETATM   12  C   UNL     1      -8.400  10.548  68.637  1.00  0.00    -0.132 A  
ENDROOT
BRANCH   1  13
HETATM   13  N   UNL     1     -12.255  12.279  67.292  1.00  0.00    -0.396 NA 
HETATM   14  H   UNL     1     -13.185  11.861  67.312  1.00  0.00     0.000 HD 
BRANCH  13  15
HETATM   15  C   UNL     1     -12.066  13.729  67.518  1.00  0.00    -0.331 C  
BRANCH  15  16
HETATM   16  C   UNL     1     -10.862  14.092  68.408  1.00  0.00    -0.263 C  
BRANCH  16  17
HETATM   17  C   UNL     1     -11.089  15.389  69.206  1.00  0.00    -0.280 C  
BRANCH  17  18
HETATM   18  C   UNL     1     -11.822  15.130  70.499  1.00  0.00    -0.361 A  
HETATM   19  C   UNL     1     -11.800  16.079  71.531  1.00  0.00    -0.554 A  
HETATM   20  C   UNL     1     -13.107  14.612  72.939  1.00  0.00    -0.609 A  
HETATM   21  C   UNL     1     -12.441  15.820  72.745  1.00  0.00    -0.558 A  
HETATM   22  C   UNL     1     -13.146  13.668  71.912  1.00  0.00    -0.476 A  
HETATM   23  C   UNL     1     -12.509  13.926  70.699  1.00  0.00    -0.436 A  
ENDBRANCH  17  18
ENDBRANCH  16  17
ENDBRANCH  15  16
BRANCH  15  24
HETATM   24  C   UNL     1     -11.854  14.390  66.136  1.00  0.00    -0.382 C  
HETATM   25  O   UNL     1     -11.054  15.289  65.916  1.00  0.00    -0.334 OA 
BRANCH  24  26
HETATM   26  O   UNL     1     -12.739  13.880  65.230  1.00  0.00    -0.597 OA 
BRANCH  26  27
HETATM   27  C   UNL     1     -12.189  13.562  63.941  1.00  0.00    -0.399 C  
HETATM   28  C   UNL     1     -12.447  12.101  63.621  1.00  0.00    -0.658 C  
ENDBRANCH  26  27
ENDBRANCH  24  26
ENDBRANCH  15  24
ENDBRANCH  13  15
ENDBRANCH   1  13
BRANCH   5  29
HETATM   29  C   UNL     1      -9.798   8.511  69.038  1.00  0.00    -0.183 C  
HETATM   30  C   UNL     1      -9.163   7.296  68.362  1.00  0.00    -0.137 C  
HETATM   31  O   UNL     1      -9.259   6.161  68.809  1.00  0.00    -0.125 OA 
HETATM   32  O   UNL     1      -8.514   7.541  67.202  1.00  0.00    -0.119 OA 
ENDBRANCH   5  29
TORSDOF 9
ENDMDL
MODEL      165
REMARK 921   NORMALIZED FREE ENERGY PREDICTED BY IDOCK:   -4.35 KCAL/MOL
REMARK 922        TOTAL FREE ENERGY PREDICTED BY IDOCK:   -8.79 KCAL/MOL
REMARK 923 INTER-LIGAND FREE ENERGY PREDICTED BY IDOCK:   -7.14 KCAL/MOL
REMARK 924 INTRA-LIGAND FREE ENERGY PREDICTED BY IDOCK:   -1.64 KCAL/MOL
REMARK 927      BINDING AFFINITY PREDICTED BY RF-SCORE:    0.00 PKD
ROOT
HETATM    1  C   UNL     1      -8.071  11.861  67.054  1.00  0.00    -0.167 C  
HETATM    2  C   UNL     1      -7.861  11.924  68.564  1.00  0.00    -0.136 C  
HETATM    3  O   UNL     1      -9.756  10.987  65.528  1.00  0.00    -0.205 OA 
HETATM    4  C   UNL     1     -10.173   8.626  70.919  1.00  0.00    -0.261 A  
HETATM    5  N   UNL     1      -8.848   9.426  66.957  1.00  0.00    -0.127 N  
HETATM    6  C   UNL     1      -7.440  10.600  69.175  1.00  0.00    -0.123 C  
HETATM    7  C   UNL     1      -9.035  10.752  66.507  1.00  0.00    -0.156 C  
HETATM    8  C   UNL     1     -10.390   8.282  68.539  1.00  0.00    -0.230 A  
HETATM    9  C   UNL     1      -8.644   9.721  69.378  1.00  0.00    -0.168 A  
HETATM   10  C   UNL     1      -9.086   9.461  70.686  1.00  0.00    -0.292 A  
HETATM   11  C   UNL     1     -10.821   8.030  69.844  1.00  0.00    -0.217 A  
HETATM   12  C   UNL     1      -9.317   9.151  68.289  1.00  0.00    -0.135 A  
ENDROOT
BRANCH   1  13
HETATM   13  N   UNL     1      -8.571  13.169  66.567  1.00  0.00    -0.424 NA 
HETATM   14  H   UNL     1      -8.753  13.325  65.576  1.00  0.00     0.000 HD 
BRANCH  13  15
HETATM   15  C   UNL     1      -8.796  14.242  67.561  1.00  0.00    -0.199 C  
BRANCH  15  16
HETATM   16  C   UNL     1      -7.884  15.474  67.400  1.00  0.00    -0.213 C  
BRANCH  16  17
HETATM   17  C   UNL     1      -8.305  16.368  66.220  1.00  0.00    -0.362 C  
BRANCH  17  18
HETATM   18  C   UNL     1      -7.958  17.816  66.464  1.00  0.00    -0.299 A  
HETATM   19  C   UNL     1      -6.618  18.230  66.499  1.00  0.00    -0.236 A  
HETATM   20  C   UNL     1      -7.306  20.491  67.009  1.00  0.00    -0.372 A  
HETATM   21  C   UNL     1      -6.296  19.562  66.769  1.00  0.00    -0.190 A  
HETATM   22  C   UNL     1      -8.642  20.091  66.963  1.00  0.00    -0.399 A  
HETATM   23  C   UNL     1      -8.965  18.762  66.690  1.00  0.00    -0.315 A  
ENDBRANCH  17  18
ENDBRANCH  16  17
ENDBRANCH  15  16
BRANCH  15  24
HETATM   24  C   UNL     1     -10.262  14.712  67.413  1.00  0.00    -0.240 C  
HETATM   25  O   UNL     1     -10.765  15.620  68.060  1.00  0.00    -0.269 OA 
BRANCH  24  26
HETATM   26  O   UNL     1     -10.921  13.917  66.520  1.00  0.00    -0.296 OA 
BRANCH  26  27
HETATM   27  C   UNL     1     -12.167  13.370  66.983  1.00  0.00    -0.268 C  
HETATM   28  C   UNL     1     -11.897  12.270  67.995  1.00  0.00    -0.368 C  
ENDBRANCH  26  27
ENDBRANCH  24  26
ENDBRANCH  15  24
ENDBRANCH  13  15
ENDBRANCH   1  13
BRANCH   5  29
HETATM   29  C   UNL     1      -9.105   8.420  65.905  1.00  0.00    -0.171 C  
HETATM   30  C   UNL     1      -7.960   7.460  65.585  1.00  0.00    -0.118 C  
HETATM   31  O   UNL     1      -8.041   6.591  64.727  1.00  0.00    -0.128 OA 
HETATM   32  O   UNL     1      -6.820   7.653  66.285  1.00  0.00    -0.059 OA 
ENDBRANCH   5  29
TORSDOF 9
ENDMDL
MODEL      166
REMARK 921   NORMALIZED FREE ENERGY PREDICTED BY IDOCK:   -4.34 KCAL/MOL
REMARK 922        TOTAL FREE ENERGY PREDICTED BY IDOCK:   -8.78 KCAL/MOL
REMARK 923 INTER-LIGAND FREE ENERGY PREDICTED BY IDOCK:   -7.11 KCAL/MOL
REMARK 924 INTRA-LIGAND FREE ENERGY PREDICTED BY IDOCK:   -1.67 KCAL/MOL
REMARK 927      BINDING AFFINITY PREDICTED BY RF-SCORE:    0.00 PKD
ROOT
HETATM    1  C   UNL     1      -9.953  10.638  68.485  1.00  0.00    -0.167 C  
HETATM    2  C   UNL     1      -9.562  10.435  67.023  1.00  0.00    -0.197 C  
HETATM    3  O   UNL     1     -11.875  11.495  69.710  1.00  0.00    -0.302 OA 
HETATM    4  C   UNL     1     -11.865  13.214  64.066  1.00  0.00    -0.514 A  
HETATM    5  N   UNL     1     -10.947  12.978  68.213  1.00  0.00    -0.248 N  
HETATM    6  C   UNL     1      -9.192  11.722  66.310  1.00  0.00    -0.227 C  
HETATM    7  C   UNL     1     -11.068  11.696  68.792  1.00  0.00    -0.230 C  
HETATM    8  C   UNL     1     -12.387  13.786  66.353  1.00  0.00    -0.460 A  
HETATM    9  C   UNL     1     -10.436  12.448  65.879  1.00  0.00    -0.284 A  
HETATM   10  C   UNL     1     -10.742  12.522  64.509  1.00  0.00    -0.360 A  
HETATM   11  C   UNL     1     -12.683  13.853  64.989  1.00  0.00    -0.372 A  
HETATM   12  C   UNL     1     -11.279  13.061  66.816  1.00  0.00    -0.298 A  
ENDROOT
BRANCH   1  13
HETATM   13  N   UNL     1     -10.389   9.344  69.066  1.00  0.00    -0.205 NA 
HETATM   14  H   UNL     1     -11.348   9.016  68.954  1.00  0.00     0.000 HD 
BRANCH  13  15
HETATM   15  C   UNL     1      -9.393   8.545  69.812  1.00  0.00    -0.161 C  
BRANCH  15  16
HETATM   16  C   UNL     1      -8.305   9.372  70.525  1.00  0.00    -0.233 C  
BRANCH  16  17
HETATM   17  C   UNL     1      -7.010   9.477  69.701  1.00  0.00    -0.066 C  
BRANCH  17  18
HETATM   18  C   UNL     1      -6.413  10.861  69.770  1.00  0.00    -0.128 A  
HETATM   19  C   UNL     1      -5.702  11.273  70.907  1.00  0.00    -0.028 A  
HETATM   20  C   UNL     1      -5.382  13.465  69.941  1.00  0.00    -0.092 A  
HETATM   21  C   UNL     1      -5.189  12.569  70.990  1.00  0.00    -0.159 A  
HETATM   22  C   UNL     1      -6.075  13.060  68.800  1.00  0.00    -0.075 A  
HETATM   23  C   UNL     1      -6.586  11.765  68.715  1.00  0.00    -0.074 A  
ENDBRANCH  17  18
ENDBRANCH  16  17
ENDBRANCH  15  16
BRANCH  15  24
HETATM   24  C   UNL     1     -10.157   7.736  70.886  1.00  0.00    -0.187 C  
HETATM   25  O   UNL     1     -10.862   8.233  71.753  1.00  0.00    -0.235 OA 
BRANCH  24  26
HETATM   26  O   UNL     1      -9.864   6.407  70.769  1.00  0.00    -0.182 OA 
BRANCH  26  27
HETATM   27  C   UNL     1     -10.762   5.648  69.943  1.00  0.00    -0.329 C  
HETATM   28  C   UNL     1     -10.025   5.148  68.713  1.00  0.00    -0.237 C  
ENDBRANCH  26  27
ENDBRANCH  24  26
ENDBRANCH  15  24
ENDBRANCH  13  15
ENDBRANCH   1  13
BRANCH   5  29
HETATM   29  C   UNL     1     -11.413  14.060  69.106  1.00  0.00    -0.296 C  
HETATM   30  C   UNL     1     -10.415  15.179  69.399  1.00  0.00    -0.255 C  
HETATM   31  O   UNL     1     -10.673  16.124  70.133  1.00  0.00    -0.321 OA 
HETATM   32  O   UNL     1      -9.198  15.045  68.827  1.00  0.00    -0.186 OA 
ENDBRANCH   5  29
TORSDOF 9
ENDMDL
MODEL      167
REMARK 921   NORMALIZED FREE ENERGY PREDICTED BY IDOCK:   -4.33 KCAL/MOL
REMARK 922        TOTAL FREE ENERGY PREDICTED BY IDOCK:   -8.77 KCAL/MOL
REMARK 923 INTER-LIGAND FREE ENERGY PREDICTED BY IDOCK:   -7.69 KCAL/MOL
REMARK 924 INTRA-LIGAND FREE ENERGY PREDICTED BY IDOCK:   -1.08 KCAL/MOL
REMARK 927      BINDING AFFINITY PREDICTED BY RF-SCORE:    0.00 PKD
ROOT
HETATM    1  C   UNL     1     -10.532   8.822  68.200  1.00  0.00    -0.191 C  
HETATM    2  C   UNL     1     -10.636   8.111  66.853  1.00  0.00    -0.311 C  
HETATM    3  O   UNL     1      -8.971   8.873  70.068  1.00  0.00    -0.148 OA 
HETATM    4  C   UNL     1      -8.219   4.125  66.648  1.00  0.00    -0.101 A  
HETATM    5  N   UNL     1      -9.802   6.786  69.565  1.00  0.00    -0.157 N  
HETATM    6  C   UNL     1     -11.034   6.651  66.968  1.00  0.00    -0.463 C  
HETATM    7  C   UNL     1      -9.626   8.161  69.295  1.00  0.00    -0.164 C  
HETATM    8  C   UNL     1      -8.174   5.033  68.884  1.00  0.00    -0.084 A  
HETATM    9  C   UNL     1      -9.834   5.816  67.318  1.00  0.00    -0.158 A  
HETATM   10  C   UNL     1      -9.307   4.941  66.353  1.00  0.00    -0.145 A  
HETATM   11  C   UNL     1      -7.658   4.166  67.918  1.00  0.00    -0.068 A  
HETATM   12  C   UNL     1      -9.247   5.887  68.588  1.00  0.00    -0.118 A  
ENDROOT
BRANCH   1  13
HETATM   13  N   UNL     1     -10.046  10.208  67.992  1.00  0.00    -0.152 NA 
HETATM   14  H   UNL     1      -9.052  10.429  68.048  1.00  0.00     0.000 HD 
BRANCH  13  15
HETATM   15  C   UNL     1     -11.045  11.260  67.703  1.00  0.00    -0.277 C  
BRANCH  15  16
HETATM   16  C   UNL     1     -10.845  12.573  68.484  1.00  0.00    -0.271 C  
BRANCH  16  17
HETATM   17  C   UNL     1      -9.494  13.243  68.174  1.00  0.00    -0.222 C  
BRANCH  17  18
HETATM   18  C   UNL     1      -9.557  14.740  68.356  1.00  0.00    -0.213 A  
HETATM   19  C   UNL     1     -10.794  15.397  68.417  1.00  0.00    -0.268 A  
HETATM   20  C   UNL     1      -9.676  17.533  68.600  1.00  0.00    -0.319 A  
HETATM   21  C   UNL     1     -10.851  16.787  68.540  1.00  0.00    -0.345 A  
HETATM   22  C   UNL     1      -8.441  16.886  68.554  1.00  0.00    -0.258 A  
HETATM   23  C   UNL     1      -8.382  15.498  68.435  1.00  0.00    -0.154 A  
ENDBRANCH  17  18
ENDBRANCH  16  17
ENDBRANCH  15  16
BRANCH  15  24
HETATM   24  C   UNL     1     -10.953  11.585  66.193  1.00  0.00    -0.266 C  
HETATM   25  O   UNL     1      -9.973  11.359  65.497  1.00  0.00    -0.218 OA 
BRANCH  24  26
HETATM   26  O   UNL     1     -12.085  12.227  65.781  1.00  0.00    -0.587 OA 
BRANCH  26  27
HETATM   27  C   UNL     1     -11.875  13.354  64.914  1.00  0.00    -0.372 C  
HETATM   28  C   UNL     1     -12.135  12.947  63.475  1.00  0.00    -0.633 C  
ENDBRANCH  26  27
ENDBRANCH  24  26
ENDBRANCH  15  24
ENDBRANCH  13  15
ENDBRANCH   1  13
BRANCH   5  29
HETATM   29  C   UNL     1      -9.634   6.453  70.995  1.00  0.00    -0.175 C  
HETATM   30  C   UNL     1     -10.913   6.355  71.826  1.00  0.00    -0.255 C  
HETATM   31  O   UNL     1     -10.909   6.100  73.023  1.00  0.00    -0.238 OA 
HETATM   32  O   UNL     1     -12.064   6.609  71.165  1.00  0.00    -0.360 OA 
ENDBRANCH   5  29
TORSDOF 9
ENDMDL
MODEL      168
REMARK 921   NORMALIZED FREE ENERGY PREDICTED BY IDOCK:   -4.31 KCAL/MOL
REMARK 922        TOTAL FREE ENERGY PREDICTED BY IDOCK:   -8.73 KCAL/MOL
REMARK 923 INTER-LIGAND FREE ENERGY PREDICTED BY IDOCK:   -7.25 KCAL/MOL
REMARK 924 INTRA-LIGAND FREE ENERGY PREDICTED BY IDOCK:   -1.47 KCAL/MOL
REMARK 927      BINDING AFFINITY PREDICTED BY RF-SCORE:    0.00 PKD
ROOT
HETATM    1  C   UNL     1      -9.886   9.433  67.754  1.00  0.00    -0.170 C  
HETATM    2  C   UNL     1      -9.912  10.542  66.705  1.00  0.00    -0.252 C  
HETATM    3  O   UNL     1      -8.333   7.700  68.471  1.00  0.00    -0.127 OA 
HETATM    4  C   UNL     1      -7.047   9.781  63.102  1.00  0.00    -0.116 A  
HETATM    5  N   UNL     1      -8.917   7.609  66.245  1.00  0.00    -0.165 N  
HETATM    6  C   UNL     1     -10.137  10.035  65.293  1.00  0.00    -0.299 C  
HETATM    7  C   UNL     1      -8.904   8.236  67.511  1.00  0.00    -0.135 C  
HETATM    8  C   UNL     1      -7.098   7.864  64.568  1.00  0.00    -0.073 A  
HETATM    9  C   UNL     1      -8.845   9.521  64.719  1.00  0.00    -0.244 A  
HETATM   10  C   UNL     1      -8.224  10.241  63.684  1.00  0.00    -0.158 A  
HETATM   11  C   UNL     1      -6.488   8.587  63.540  1.00  0.00    -0.085 A  
HETATM   12  C   UNL     1      -8.265   8.335  65.188  1.00  0.00    -0.154 A  
ENDROOT
BRANCH   1  13
HETATM   13  N   UNL     1      -9.567  10.013  69.081  1.00  0.00    -0.197 NA 
HETATM   14  H   UNL     1      -8.601  10.190  69.358  1.00  0.00     0.000 HD 
BRANCH  13  15
HETATM   15  C   UNL     1     -10.689  10.329  69.992  1.00  0.00    -0.292 C  
BRANCH  15  16
HETATM   16  C   UNL     1     -11.888  11.028  69.320  1.00  0.00    -0.411 C  
BRANCH  16  17
HETATM   17  C   UNL     1     -11.796  12.562  69.402  1.00  0.00    -0.368 C  
BRANCH  17  18
HETATM   18  C   UNL     1     -11.335  13.166  68.099  1.00  0.00    -0.328 A  
HETATM   19  C   UNL     1     -10.085  13.797  68.010  1.00  0.00    -0.245 A  
HETATM   20  C   UNL     1     -10.515  14.372  65.701  1.00  0.00    -0.347 A  
HETATM   21  C   UNL     1      -9.679  14.395  66.815  1.00  0.00    -0.278 A  
HETATM   22  C   UNL     1     -11.754  13.735  65.777  1.00  0.00    -0.365 A  
HETATM   23  C   UNL     1     -12.160  13.135  66.968  1.00  0.00    -0.366 A  
ENDBRANCH  17  18
ENDBRANCH  16  17
ENDBRANCH  15  16
BRANCH  15  24
HETATM   24  C   UNL     1     -11.191   8.994  70.590  1.00  0.00    -0.270 C  
HETATM   25  O   UNL     1     -11.631   8.063  69.930  1.00  0.00     0.041 OA 
BRANCH  24  26
HETATM   26  O   UNL     1     -11.143   9.044  71.954  1.00  0.00    -0.355 OA 
BRANCH  26  27
HETATM   27  C   UNL     1     -10.437   7.964  72.587  1.00  0.00    -0.320 C  
HETATM   28  C   UNL     1      -8.975   8.338  72.756  1.00  0.00    -0.323 C  
ENDBRANCH  26  27
ENDBRANCH  24  26
ENDBRANCH  15  24
ENDBRANCH  13  15
ENDBRANCH   1  13
BRANCH   5  29
HETATM   29  C   UNL     1      -8.705   6.148  66.323  1.00  0.00    -0.143 C  
HETATM   30  C   UNL     1      -9.940   5.295  66.610  1.00  0.00    -0.202 C  
HETATM   31  O   UNL     1      -9.897   4.076  66.713  1.00  0.00    -0.217 OA 
HETATM   32  O   UNL     1     -11.095   5.974  66.788  1.00  0.00    -0.291 OA 
ENDBRANCH   5  29
TORSDOF 9
ENDMDL
MODEL      169
REMARK 921   NORMALIZED FREE ENERGY PREDICTED BY IDOCK:   -4.28 KCAL/MOL
REMARK 922        TOTAL FREE ENERGY PREDICTED BY IDOCK:   -8.68 KCAL/MOL
REMARK 923 INTER-LIGAND FREE ENERGY PREDICTED BY IDOCK:   -7.52 KCAL/MOL
REMARK 924 INTRA-LIGAND FREE ENERGY PREDICTED BY IDOCK:   -1.16 KCAL/MOL
REMARK 927      BINDING AFFINITY PREDICTED BY RF-SCORE:    0.00 PKD
ROOT
HETATM    1  C   UNL     1     -10.048  10.682  69.627  1.00  0.00    -0.080 C  
HETATM    2  C   UNL     1     -11.448  11.185  69.970  1.00  0.00    -0.376 C  
HETATM    3  O   UNL     1      -9.036   8.580  68.927  1.00  0.00    -0.144 OA 
HETATM    4  C   UNL     1     -14.374   7.810  71.318  1.00  0.00    -0.425 A  
HETATM    5  N   UNL     1     -10.192   8.477  70.916  1.00  0.00    -0.193 N  
HETATM    6  C   UNL     1     -11.942  10.724  71.329  1.00  0.00    -0.286 C  
HETATM    7  C   UNL     1      -9.791   9.139  69.734  1.00  0.00    -0.181 C  
HETATM    8  C   UNL     1     -12.142   6.936  71.032  1.00  0.00    -0.429 A  
HETATM    9  C   UNL     1     -12.468   9.318  71.236  1.00  0.00    -0.389 A  
HETATM   10  C   UNL     1     -13.851   9.098  71.363  1.00  0.00    -0.288 A  
HETATM   11  C   UNL     1     -13.517   6.728  71.160  1.00  0.00     0.050 A  
HETATM   12  C   UNL     1     -11.605   8.232  71.040  1.00  0.00    -0.275 A  
ENDROOT
BRANCH   1  13
HETATM   13  N   UNL     1      -9.694  11.101  68.249  1.00  0.00    -0.181 NA 
HETATM   14  H   UNL     1      -8.744  10.990  67.894  1.00  0.00     0.000 HD 
BRANCH  13  15
HETATM   15  C   UNL     1     -10.760  11.684  67.403  1.00  0.00    -0.234 C  
BRANCH  15  16
HETATM   16  C   UNL     1     -10.643  13.203  67.175  1.00  0.00    -0.259 C  
BRANCH  16  17
HETATM   17  C   UNL     1     -11.007  14.017  68.430  1.00  0.00    -0.269 C  
BRANCH  17  18
HETATM   18  C   UNL     1     -10.266  15.331  68.478  1.00  0.00    -0.224 A  
HETATM   19  C   UNL     1     -10.924  16.530  68.163  1.00  0.00    -0.336 A  
HETATM   20  C   UNL     1      -8.870  17.765  68.478  1.00  0.00    -0.284 A  
HETATM   21  C   UNL     1     -10.227  17.740  68.164  1.00  0.00    -0.383 A  
HETATM   22  C   UNL     1      -8.212  16.580  68.806  1.00  0.00    -0.248 A  
HETATM   23  C   UNL     1      -8.906  15.371  68.809  1.00  0.00    -0.196 A  
ENDBRANCH  17  18
ENDBRANCH  16  17
ENDBRANCH  15  16
BRANCH  15  24
HETATM   24  C   UNL     1     -10.691  10.988  66.024  1.00  0.00    -0.177 C  
HETATM   25  O   UNL     1     -10.770   9.778  65.856  1.00  0.00     0.053 OA 
BRANCH  24  26
HETATM   26  O   UNL     1     -10.450  11.909  65.045  1.00  0.00    -0.266 OA 
BRANCH  26  27
HETATM   27  C   UNL     1     -10.797  11.497  63.712  1.00  0.00    -0.416 C  
HETATM   28  C   UNL     1      -9.532  11.268  62.904  1.00  0.00    -0.385 C  
ENDBRANCH  26  27
ENDBRANCH  24  26
ENDBRANCH  15  24
ENDBRANCH  13  15
ENDBRANCH   1  13
BRANCH   5  29
HETATM   29  C   UNL     1      -9.260   7.404  71.319  1.00  0.00    -0.150 C  
HETATM   30  C   UNL     1      -8.315   7.722  72.477  1.00  0.00    -0.129 C  
HETATM   31  O   UNL     1      -7.487   6.925  72.898  1.00  0.00    -0.082 OA 
HETATM   32  O   UNL     1      -8.417   8.967  72.994  1.00  0.00    -0.334 OA 
ENDBRANCH   5  29
TORSDOF 9
ENDMDL
MODEL      170
REMARK 921   NORMALIZED FREE ENERGY PREDICTED BY IDOCK:   -4.27 KCAL/MOL
REMARK 922        TOTAL FREE ENERGY PREDICTED BY IDOCK:   -8.67 KCAL/MOL
REMARK 923 INTER-LIGAND FREE ENERGY PREDICTED BY IDOCK:   -6.23 KCAL/MOL
REMARK 924 INTRA-LIGAND FREE ENERGY PREDICTED BY IDOCK:   -2.44 KCAL/MOL
REMARK 927      BINDING AFFINITY PREDICTED BY RF-SCORE:    0.00 PKD
ROOT
HETATM    1  C   UNL     1     -11.118   6.619  67.282  1.00  0.00    -0.345 C  
HETATM    2  C   UNL     1     -10.962   6.031  68.682  1.00  0.00    -0.361 C  
HETATM    3  O   UNL     1      -9.858   8.115  65.831  1.00  0.00    -0.015 OA 
HETATM    4  C   UNL     1      -8.208   8.555  71.478  1.00  0.00    -0.199 A  
HETATM    5  N   UNL     1     -10.425   9.008  67.876  1.00  0.00    -0.240 N  
HETATM    6  C   UNL     1     -11.246   7.026  69.792  1.00  0.00    -0.257 C  
HETATM    7  C   UNL     1     -10.329   7.935  66.962  1.00  0.00    -0.341 C  
HETATM    8  C   UNL     1      -8.569   9.698  69.382  1.00  0.00    -0.160 A  
HETATM    9  C   UNL     1     -10.042   7.898  70.023  1.00  0.00    -0.199 A  
HETATM   10  C   UNL     1      -9.306   7.745  71.211  1.00  0.00    -0.171 A  
HETATM   11  C   UNL     1      -7.844   9.538  70.566  1.00  0.00    -0.182 A  
HETATM   12  C   UNL     1      -9.657   8.863  69.084  1.00  0.00    -0.162 A  
ENDROOT
BRANCH   1  13
HETATM   13  N   UNL     1     -10.728   5.605  66.272  1.00  0.00    -0.613 NA 
HETATM   14  H   UNL     1     -11.328   5.403  65.473  1.00  0.00     0.000 HD 
BRANCH  13  15
HETATM   15  C   UNL     1      -9.443   4.896  66.458  1.00  0.00    -0.152 C  
BRANCH  15  16
HETATM   16  C   UNL     1      -9.572   3.455  66.989  1.00  0.00    -0.117 C  
BRANCH  16  17
HETATM   17  C   UNL     1      -8.316   2.992  67.748  1.00  0.00    -0.093 C  
BRANCH  17  18
HETATM   18  C   UNL     1      -8.298   3.506  69.167  1.00  0.00    -0.083 A  
HETATM   19  C   UNL     1      -9.317   3.152  70.064  1.00  0.00    -0.226 A  
HETATM   20  C   UNL     1      -8.318   4.534  71.778  1.00  0.00    -0.108 A  
HETATM   21  C   UNL     1      -9.324   3.665  71.363  1.00  0.00    -0.211 A  
HETATM   22  C   UNL     1      -7.293   4.881  70.896  1.00  0.00    -0.064 A  
HETATM   23  C   UNL     1      -7.283   4.368  69.600  1.00  0.00    -0.050 A  
ENDBRANCH  17  18
ENDBRANCH  16  17
ENDBRANCH  15  16
BRANCH  15  24
HETATM   24  C   UNL     1      -8.742   4.836  65.081  1.00  0.00    -0.144 C  
HETATM   25  O   UNL     1      -7.826   5.571  64.739  1.00  0.00    -0.093 OA 
BRANCH  24  26
HETATM   26  O   UNL     1      -9.348   3.904  64.287  1.00  0.00    -0.136 OA 
BRANCH  26  27
HETATM   27  C   UNL     1      -8.507   3.305  63.287  1.00  0.00    -0.089 C  
HETATM   28  C   UNL     1      -7.833   2.070  63.860  1.00  0.00    -0.061 C  
ENDBRANCH  26  27
ENDBRANCH  24  26
ENDBRANCH  15  24
ENDBRANCH  13  15
ENDBRANCH   1  13
BRANCH   5  29
HETATM   29  C   UNL     1     -10.441  10.329  67.213  1.00  0.00    -0.253 C  
HETATM   30  C   UNL     1     -11.480  11.331  67.716  1.00  0.00    -0.275 C  
HETATM   31  O   UNL     1     -11.605  12.453  67.243  1.00  0.00    -0.330 OA 
HETATM   32  O   UNL     1     -12.293  10.889  68.700  1.00  0.00    -0.501 OA 
ENDBRANCH   5  29
TORSDOF 9
ENDMDL
MODEL      171
REMARK 921   NORMALIZED FREE ENERGY PREDICTED BY IDOCK:   -4.26 KCAL/MOL
REMARK 922        TOTAL FREE ENERGY PREDICTED BY IDOCK:   -8.66 KCAL/MOL
REMARK 923 INTER-LIGAND FREE ENERGY PREDICTED BY IDOCK:   -7.58 KCAL/MOL
REMARK 924 INTRA-LIGAND FREE ENERGY PREDICTED BY IDOCK:   -1.08 KCAL/MOL
REMARK 927      BINDING AFFINITY PREDICTED BY RF-SCORE:    0.00 PKD
ROOT
HETATM    1  C   UNL     1      -9.080  10.203  67.917  1.00  0.00    -0.131 C  
HETATM    2  C   UNL     1      -9.049   9.812  66.442  1.00  0.00    -0.187 C  
HETATM    3  O   UNL     1     -10.685  11.185  69.462  1.00  0.00    -0.222 OA 
HETATM    4  C   UNL     1     -12.136  12.133  63.823  1.00  0.00    -0.620 A  
HETATM    5  N   UNL     1     -10.224  12.470  67.608  1.00  0.00    -0.216 N  
HETATM    6  C   UNL     1      -8.927  10.999  65.503  1.00  0.00    -0.208 C  
HETATM    7  C   UNL     1     -10.137  11.274  68.356  1.00  0.00    -0.195 C  
HETATM    8  C   UNL     1     -12.112  12.998  66.077  1.00  0.00    -0.493 A  
HETATM    9  C   UNL     1     -10.272  11.641  65.306  1.00  0.00    -0.316 A  
HETATM   10  C   UNL     1     -10.907  11.525  64.057  1.00  0.00    -0.453 A  
HETATM   11  C   UNL     1     -12.735  12.877  64.832  1.00  0.00    -0.474 A  
HETATM   12  C   UNL     1     -10.890  12.359  66.338  1.00  0.00    -0.258 A  
ENDROOT
BRANCH   1  13
HETATM   13  N   UNL     1      -9.298   8.992  68.745  1.00  0.00    -0.140 NA 
HETATM   14  H   UNL     1      -8.552   8.615  69.330  1.00  0.00     0.000 HD 
BRANCH  13  15
HETATM   15  C   UNL     1     -10.629   8.347  68.699  1.00  0.00    -0.113 C  
BRANCH  15  16
HETATM   16  C   UNL     1     -10.702   7.080  67.825  1.00  0.00    -0.300 C  
BRANCH  16  17
HETATM   17  C   UNL     1      -9.312   6.492  67.522  1.00  0.00    -0.124 C  
BRANCH  17  18
HETATM   18  C   UNL     1      -9.310   5.689  66.245  1.00  0.00    -0.169 A  
HETATM   19  C   UNL     1      -8.281   5.852  65.305  1.00  0.00    -0.141 A  
HETATM   20  C   UNL     1      -9.351   4.266  63.827  1.00  0.00    -0.132 A  
HETATM   21  C   UNL     1      -8.303   5.142  64.102  1.00  0.00    -0.137 A  
HETATM   22  C   UNL     1     -10.371   4.088  64.762  1.00  0.00    -0.212 A  
HETATM   23  C   UNL     1     -10.349   4.793  65.964  1.00  0.00    -0.328 A  
ENDBRANCH  17  18
ENDBRANCH  16  17
ENDBRANCH  15  16
BRANCH  15  24
HETATM   24  C   UNL     1     -11.003   7.950  70.146  1.00  0.00    -0.233 C  
HETATM   25  O   UNL     1     -11.924   8.444  70.783  1.00  0.00    -0.236 OA 
BRANCH  24  26
HETATM   26  O   UNL     1     -10.111   7.034  70.627  1.00  0.00    -0.191 OA 
BRANCH  26  27
HETATM   27  C   UNL     1     -10.690   5.892  71.280  1.00  0.00    -0.264 C  
HETATM   28  C   UNL     1      -9.959   4.633  70.850  1.00  0.00    -0.273 C  
ENDBRANCH  26  27
ENDBRANCH  24  26
ENDBRANCH  15  24
ENDBRANCH  13  15
ENDBRANCH   1  13
BRANCH   5  29
HETATM   29  C   UNL     1     -10.510  13.653  68.446  1.00  0.00    -0.246 C  
HETATM   30  C   UNL     1      -9.399  14.696  68.555  1.00  0.00    -0.201 C  
HETATM   31  O   UNL     1      -9.505  15.713  69.227  1.00  0.00    -0.230 OA 
HETATM   32  O   UNL     1      -8.257  14.409  67.890  1.00  0.00    -0.136 OA 
ENDBRANCH   5  29
TORSDOF 9
ENDMDL
MODEL      172
REMARK 921   NORMALIZED FREE ENERGY PREDICTED BY IDOCK:   -4.24 KCAL/MOL
REMARK 922        TOTAL FREE ENERGY PREDICTED BY IDOCK:   -8.63 KCAL/MOL
REMARK 923 INTER-LIGAND FREE ENERGY PREDICTED BY IDOCK:   -7.52 KCAL/MOL
REMARK 924 INTRA-LIGAND FREE ENERGY PREDICTED BY IDOCK:   -1.11 KCAL/MOL
REMARK 927      BINDING AFFINITY PREDICTED BY RF-SCORE:    0.00 PKD
ROOT
HETATM    1  C   UNL     1      -9.464  10.733  66.122  1.00  0.00    -0.187 C  
HETATM    2  C   UNL     1      -8.907  10.548  64.713  1.00  0.00    -0.211 C  
HETATM    3  O   UNL     1      -8.774  10.186  68.392  1.00  0.00    -0.118 OA 
HETATM    4  C   UNL     1      -5.872   7.023  64.344  1.00  0.00    -0.036 A  
HETATM    5  N   UNL     1      -8.930   8.380  66.972  1.00  0.00    -0.138 N  
HETATM    6  C   UNL     1      -9.028   9.127  64.195  1.00  0.00    -0.054 C  
HETATM    7  C   UNL     1      -8.934   9.768  67.238  1.00  0.00    -0.135 C  
HETATM    8  C   UNL     1      -6.859   7.070  66.547  1.00  0.00    -0.061 A  
HETATM    9  C   UNL     1      -7.915   8.281  64.747  1.00  0.00    -0.146 A  
HETATM   10  C   UNL     1      -6.901   7.836  63.880  1.00  0.00    -0.062 A  
HETATM   11  C   UNL     1      -5.857   6.633  65.678  1.00  0.00    -0.030 A  
HETATM   12  C   UNL     1      -7.882   7.920  66.101  1.00  0.00    -0.094 A  
ENDROOT
BRANCH   1  13
HETATM   13  N   UNL     1      -9.214  12.123  66.575  1.00  0.00    -0.216 NA 
HETATM   14  H   UNL     1      -8.274  12.520  66.556  1.00  0.00     0.000 HD 
BRANCH  13  15
HETATM   15  C   UNL     1     -10.366  12.916  67.056  1.00  0.00    -0.242 C  
BRANCH  15  16
HETATM   16  C   UNL     1     -10.503  14.310  66.414  1.00  0.00    -0.282 C  
BRANCH  16  17
HETATM   17  C   UNL     1     -10.673  15.427  67.460  1.00  0.00    -0.295 C  
BRANCH  17  18
HETATM   18  C   UNL     1      -9.832  16.636  67.130  1.00  0.00    -0.257 A  
HETATM   19  C   UNL     1     -10.362  17.928  67.261  1.00  0.00    -0.374 A  
HETATM   20  C   UNL     1      -8.302  18.881  66.430  1.00  0.00    -0.306 A  
HETATM   21  C   UNL     1      -9.598  19.044  66.912  1.00  0.00    -0.364 A  
HETATM   22  C   UNL     1      -7.761  17.600  66.310  1.00  0.00    -0.324 A  
HETATM   23  C   UNL     1      -8.521  16.485  66.660  1.00  0.00    -0.299 A  
ENDBRANCH  17  18
ENDBRANCH  16  17
ENDBRANCH  15  16
BRANCH  15  24
HETATM   24  C   UNL     1     -11.649  12.115  66.733  1.00  0.00    -0.345 C  
HETATM   25  O   UNL     1     -12.287  12.221  65.695  1.00  0.00    -0.619 OA 
BRANCH  24  26
HETATM   26  O   UNL     1     -12.000  11.341  67.802  1.00  0.00    -0.637 OA 
BRANCH  26  27
HETATM   27  C   UNL     1     -11.953  11.996  69.080  1.00  0.00    -0.268 C  
HETATM   28  C   UNL     1     -11.917  10.956  70.186  1.00  0.00    -0.435 C  
ENDBRANCH  26  27
ENDBRANCH  24  26
ENDBRANCH  15  24
ENDBRANCH  13  15
ENDBRANCH   1  13
BRANCH   5  29
HETATM   29  C   UNL     1      -9.259   7.565  68.160  1.00  0.00    -0.137 C  
HETATM   30  C   UNL     1     -10.579   6.796  68.114  1.00  0.00    -0.230 C  
HETATM   31  O   UNL     1     -10.972   6.096  69.038  1.00  0.00    -0.312 OA 
HETATM   32  O   UNL     1     -11.319   6.965  66.996  1.00  0.00    -0.304 OA 
ENDBRANCH   5  29
TORSDOF 9
ENDMDL
MODEL      173
REMARK 921   NORMALIZED FREE ENERGY PREDICTED BY IDOCK:   -4.23 KCAL/MOL
REMARK 922        TOTAL FREE ENERGY PREDICTED BY IDOCK:   -8.61 KCAL/MOL
REMARK 923 INTER-LIGAND FREE ENERGY PREDICTED BY IDOCK:   -9.79 KCAL/MOL
REMARK 924 INTRA-LIGAND FREE ENERGY PREDICTED BY IDOCK:    1.19 KCAL/MOL
REMARK 927      BINDING AFFINITY PREDICTED BY RF-SCORE:    0.00 PKD
ROOT
HETATM    1  C   UNL     1     -10.412  14.492  68.959  1.00  0.00    -0.237 C  
HETATM    2  C   UNL     1     -10.413  13.042  68.483  1.00  0.00    -0.261 C  
HETATM    3  O   UNL     1     -10.736  15.672  71.065  1.00  0.00    -0.234 OA 
HETATM    4  C   UNL     1     -12.857  10.169  71.230  1.00  0.00    -0.508 A  
HETATM    5  N   UNL     1     -12.498  14.331  70.431  1.00  0.00    -0.348 N  
HETATM    6  C   UNL     1     -11.802  12.440  68.377  1.00  0.00    -0.361 C  
HETATM    7  C   UNL     1     -11.177  14.813  70.289  1.00  0.00    -0.195 C  
HETATM    8  C   UNL     1     -13.120  12.459  71.946  1.00  0.00    -0.471 A  
HETATM    9  C   UNL     1     -12.276  11.996  69.734  1.00  0.00    -0.226 A  
HETATM   10  C   UNL     1     -12.389  10.620  70.000  1.00  0.00    -0.341 A  
HETATM   11  C   UNL     1     -13.230  11.090  72.200  1.00  0.00    -0.316 A  
HETATM   12  C   UNL     1     -12.616  12.928  70.723  1.00  0.00    -0.232 A  
ENDROOT
BRANCH   1  13
HETATM   13  N   UNL     1      -9.013  14.958  69.123  1.00  0.00    -0.330 NA 
HETATM   14  H   UNL     1      -8.724  15.466  69.959  1.00  0.00     0.000 HD 
BRANCH  13  15
HETATM   15  C   UNL     1      -8.050  14.665  68.039  1.00  0.00    -0.135 C  
BRANCH  15  16
HETATM   16  C   UNL     1      -7.957  15.749  66.947  1.00  0.00    -0.285 C  
BRANCH  16  17
HETATM   17  C   UNL     1      -9.336  16.312  66.558  1.00  0.00    -0.298 C  
BRANCH  17  18
HETATM   18  C   UNL     1      -9.483  17.759  66.958  1.00  0.00    -0.271 A  
HETATM   19  C   UNL     1     -10.124  18.671  66.106  1.00  0.00    -0.399 A  
HETATM   20  C   UNL     1      -9.676  20.470  67.657  1.00  0.00    -0.501 A  
HETATM   21  C   UNL     1     -10.220  20.019  66.457  1.00  0.00    -0.598 A  
HETATM   22  C   UNL     1      -9.049  19.568  68.517  1.00  0.00    -0.406 A  
HETATM   23  C   UNL     1      -8.955  18.220  68.170  1.00  0.00    -0.314 A  
ENDBRANCH  17  18
ENDBRANCH  16  17
ENDBRANCH  15  16
BRANCH  15  24
HETATM   24  C   UNL     1      -6.653  14.519  68.686  1.00  0.00    -0.087 C  
HETATM   25  O   UNL     1      -5.800  13.723  68.318  1.00  0.00    -0.089 OA 
BRANCH  24  26
HETATM   26  O   UNL     1      -6.548  15.348  69.766  1.00  0.00    -0.161 OA 
BRANCH  26  27
HETATM   27  C   UNL     1      -5.368  16.168  69.802  1.00  0.00    -0.133 C  
HETATM   28  C   UNL     1      -5.710  17.575  69.347  1.00  0.00    -0.212 C  
ENDBRANCH  26  27
ENDBRANCH  24  26
ENDBRANCH  15  24
ENDBRANCH  13  15
ENDBRANCH   1  13
BRANCH   5  29
HETATM   29  C   UNL     1     -13.380  15.272  71.153  1.00  0.00    -0.498 C  
HETATM   30  C   UNL     1     -13.043  15.530  72.621  1.00  0.00    -0.459 C  
HETATM   31  O   UNL     1     -13.702  16.277  73.333  1.00  0.00    -0.597 OA 
HETATM   32  O   UNL     1     -11.984  14.847  73.110  1.00  0.00    -0.290 OA 
ENDBRANCH   5  29
TORSDOF 9
ENDMDL
MODEL      174
REMARK 921   NORMALIZED FREE ENERGY PREDICTED BY IDOCK:   -4.22 KCAL/MOL
REMARK 922        TOTAL FREE ENERGY PREDICTED BY IDOCK:   -8.60 KCAL/MOL
REMARK 923 INTER-LIGAND FREE ENERGY PREDICTED BY IDOCK:   -7.74 KCAL/MOL
REMARK 924 INTRA-LIGAND FREE ENERGY PREDICTED BY IDOCK:   -0.86 KCAL/MOL
REMARK 927      BINDING AFFINITY PREDICTED BY RF-SCORE:    0.00 PKD
ROOT
HETATM    1  C   UNL     1      -9.835  10.034  67.516  1.00  0.00    -0.175 C  
HETATM    2  C   UNL     1     -10.428   9.000  66.563  1.00  0.00    -0.192 C  
HETATM    3  O   UNL     1      -7.668  10.472  68.538  1.00  0.00    -0.094 OA 
HETATM    4  C   UNL     1      -8.114   4.949  66.513  1.00  0.00    -0.107 A  
HETATM    5  N   UNL     1      -8.538   8.387  68.982  1.00  0.00    -0.130 N  
HETATM    6  C   UNL     1     -10.685   7.653  67.212  1.00  0.00    -0.344 C  
HETATM    7  C   UNL     1      -8.543   9.627  68.305  1.00  0.00    -0.119 C  
HETATM    8  C   UNL     1      -7.233   6.411  68.220  1.00  0.00    -0.085 A  
HETATM    9  C   UNL     1      -9.408   6.861  67.277  1.00  0.00    -0.152 A  
HETATM   10  C   UNL     1      -9.265   5.728  66.458  1.00  0.00    -0.150 A  
HETATM   11  C   UNL     1      -7.101   5.287  67.401  1.00  0.00    -0.067 A  
HETATM   12  C   UNL     1      -8.372   7.226  68.148  1.00  0.00    -0.124 A  
ENDROOT
BRANCH   1  13
HETATM   13  N   UNL     1      -9.531  11.279  66.770  1.00  0.00    -0.176 NA 
HETATM   14  H   UNL     1      -8.660  11.379  66.249  1.00  0.00     0.000 HD 
BRANCH  13  15
HETATM   15  C   UNL     1     -10.528  12.372  66.804  1.00  0.00    -0.221 C  
BRANCH  15  16
HETATM   16  C   UNL     1     -11.739  12.112  67.721  1.00  0.00    -0.390 C  
BRANCH  16  17
HETATM   17  C   UNL     1     -11.324  11.806  69.172  1.00  0.00    -0.340 C  
BRANCH  17  18
HETATM   18  C   UNL     1     -12.133  12.603  70.165  1.00  0.00    -0.368 A  
HETATM   19  C   UNL     1     -12.799  11.959  71.218  1.00  0.00    -0.391 A  
HETATM   20  C   UNL     1     -13.713  14.071  71.961  1.00  0.00    -0.569 A  
HETATM   21  C   UNL     1     -13.585  12.692  72.111  1.00  0.00    -0.510 A  
HETATM   22  C   UNL     1     -13.042  14.721  70.924  1.00  0.00    -0.418 A  
HETATM   23  C   UNL     1     -12.256  13.991  70.033  1.00  0.00    -0.414 A  
ENDBRANCH  17  18
ENDBRANCH  16  17
ENDBRANCH  15  16
BRANCH  15  24
HETATM   24  C   UNL     1      -9.808  13.642  67.313  1.00  0.00    -0.241 C  
HETATM   25  O   UNL     1      -8.789  13.633  67.990  1.00  0.00    -0.171 OA 
BRANCH  24  26
HETATM   26  O   UNL     1     -10.518  14.755  66.966  1.00  0.00    -0.264 OA 
BRANCH  26  27
HETATM   27  C   UNL     1     -10.322  15.217  65.620  1.00  0.00    -0.366 C  
HETATM   28  C   UNL     1     -10.777  16.661  65.504  1.00  0.00    -0.234 C  
ENDBRANCH  26  27
ENDBRANCH  24  26
ENDBRANCH  15  24
ENDBRANCH  13  15
ENDBRANCH   1  13
BRANCH   5  29
HETATM   29  C   UNL     1      -7.806   8.434  70.265  1.00  0.00    -0.096 C  
HETATM   30  C   UNL     1      -8.630   8.775  71.506  1.00  0.00    -0.186 C  
HETATM   31  O   UNL     1      -8.142   8.859  72.626  1.00  0.00    -0.383 OA 
HETATM   32  O   UNL     1      -9.941   9.023  71.292  1.00  0.00    -0.260 OA 
ENDBRANCH   5  29
TORSDOF 9
ENDMDL
MODEL      175
REMARK 921   NORMALIZED FREE ENERGY PREDICTED BY IDOCK:   -4.20 KCAL/MOL
REMARK 922        TOTAL FREE ENERGY PREDICTED BY IDOCK:   -8.57 KCAL/MOL
REMARK 923 INTER-LIGAND FREE ENERGY PREDICTED BY IDOCK:   -7.40 KCAL/MOL
REMARK 924 INTRA-LIGAND FREE ENERGY PREDICTED BY IDOCK:   -1.16 KCAL/MOL
REMARK 927      BINDING AFFINITY PREDICTED BY RF-SCORE:    0.00 PKD
ROOT
HETATM    1  C   UNL     1     -10.228  11.149  68.713  1.00  0.00    -0.206 C  
HETATM    2  C   UNL     1     -11.549  10.664  69.304  1.00  0.00    -0.346 C  
HETATM    3  O   UNL     1      -8.313  10.154  67.585  1.00  0.00    -0.114 OA 
HETATM    4  C   UNL     1     -11.521   6.155  70.505  1.00  0.00    -0.330 A  
HETATM    5  N   UNL     1      -8.762   9.283  69.669  1.00  0.00    -0.141 N  
HETATM    6  C   UNL     1     -11.391   9.947  70.632  1.00  0.00    -0.413 C  
HETATM    7  C   UNL     1      -9.079  10.094  68.556  1.00  0.00    -0.134 C  
HETATM    8  C   UNL     1      -9.321   6.864  69.808  1.00  0.00    -0.146 A  
HETATM    9  C   UNL     1     -10.970   8.522  70.401  1.00  0.00    -0.254 A  
HETATM   10  C   UNL     1     -11.883   7.488  70.672  1.00  0.00    -0.205 A  
HETATM   11  C   UNL     1     -10.236   5.843  70.080  1.00  0.00    -0.286 A  
HETATM   12  C   UNL     1      -9.685   8.212  69.937  1.00  0.00    -0.176 A  
ENDROOT
BRANCH   1  13
HETATM   13  N   UNL     1     -10.473  11.747  67.378  1.00  0.00    -0.206 NA 
HETATM   14  H   UNL     1     -10.610  11.158  66.556  1.00  0.00     0.000 HD 
BRANCH  13  15
HETATM   15  C   UNL     1     -10.511  13.223  67.272  1.00  0.00    -0.247 C  
BRANCH  15  16
HETATM   16  C   UNL     1      -9.799  13.800  66.033  1.00  0.00    -0.298 C  
BRANCH  16  17
HETATM   17  C   UNL     1     -10.088  15.299  65.833  1.00  0.00    -0.359 C  
BRANCH  17  18
HETATM   18  C   UNL     1      -9.123  16.163  66.607  1.00  0.00    -0.282 A  
HETATM   19  C   UNL     1      -7.789  15.761  66.778  1.00  0.00    -0.248 A  
HETATM   20  C   UNL     1      -7.349  17.721  68.123  1.00  0.00    -0.238 A  
HETATM   21  C   UNL     1      -6.908  16.539  67.532  1.00  0.00    -0.174 A  
HETATM   22  C   UNL     1      -8.670  18.135  67.947  1.00  0.00    -0.266 A  
HETATM   23  C   UNL     1      -9.550  17.361  67.192  1.00  0.00    -0.265 A  
ENDBRANCH  17  18
ENDBRANCH  16  17
ENDBRANCH  15  16
BRANCH  15  24
HETATM   24  C   UNL     1     -11.998  13.645  67.208  1.00  0.00    -0.381 C  
HETATM   25  O   UNL     1     -12.759  13.355  66.296  1.00  0.00    -0.267 OA 
BRANCH  24  26
HETATM   26  O   UNL     1     -12.304  14.446  68.270  1.00  0.00    -0.201 OA 
BRANCH  26  27
HETATM   27  C   UNL     1     -11.377  14.398  69.368  1.00  0.00    -0.281 C  
HETATM   28  C   UNL     1     -12.112  14.011  70.639  1.00  0.00    -0.424 C  
ENDBRANCH  26  27
ENDBRANCH  24  26
ENDBRANCH  15  24
ENDBRANCH  13  15
ENDBRANCH   1  13
BRANCH   5  29
HETATM   29  C   UNL     1      -7.316   9.005  69.785  1.00  0.00    -0.058 C  
HETATM   30  C   UNL     1      -6.768   8.828  71.201  1.00  0.00    -0.075 C  
HETATM   31  O   UNL     1      -5.587   8.606  71.434  1.00  0.00    -0.034 OA 
HETATM   32  O   UNL     1      -7.666   8.971  72.201  1.00  0.00    -0.351 OA 
ENDBRANCH   5  29
TORSDOF 9
ENDMDL
MODEL      176
REMARK 921   NORMALIZED FREE ENERGY PREDICTED BY IDOCK:   -4.20 KCAL/MOL
REMARK 922        TOTAL FREE ENERGY PREDICTED BY IDOCK:   -8.57 KCAL/MOL
REMARK 923 INTER-LIGAND FREE ENERGY PREDICTED BY IDOCK:   -5.70 KCAL/MOL
REMARK 924 INTRA-LIGAND FREE ENERGY PREDICTED BY IDOCK:   -2.86 KCAL/MOL
REMARK 927      BINDING AFFINITY PREDICTED BY RF-SCORE:    0.00 PKD
ROOT
HETATM    1  C   UNL     1     -10.374   7.535  67.189  1.00  0.00    -0.313 C  
HETATM    2  C   UNL     1     -10.723   6.300  68.014  1.00  0.00    -0.369 C  
HETATM    3  O   UNL     1      -8.806   9.392  67.342  1.00  0.00    -0.127 OA 
HETATM    4  C   UNL     1      -9.571   6.671  72.520  1.00  0.00    -0.162 A  
HETATM    5  N   UNL     1     -10.222   9.176  69.145  1.00  0.00    -0.201 N  
HETATM    6  C   UNL     1     -11.522   6.612  69.265  1.00  0.00    -0.253 C  
HETATM    7  C   UNL     1      -9.664   8.719  67.930  1.00  0.00    -0.157 C  
HETATM    8  C   UNL     1      -9.193   8.760  71.371  1.00  0.00    -0.325 A  
HETATM    9  C   UNL     1     -10.605   7.085  70.359  1.00  0.00    -0.244 A  
HETATM   10  C   UNL     1     -10.385   6.256  71.472  1.00  0.00    -0.243 A  
HETATM   11  C   UNL     1      -8.981   7.928  72.473  1.00  0.00    -0.231 A  
HETATM   12  C   UNL     1      -9.982   8.339  70.290  1.00  0.00    -0.186 A  
ENDROOT
BRANCH   1  13
HETATM   13  N   UNL     1      -9.515   7.141  66.046  1.00  0.00    -0.397 NA 
HETATM   14  H   UNL     1      -9.576   7.628  65.151  1.00  0.00     0.000 HD 
BRANCH  13  15
HETATM   15  C   UNL     1      -8.566   6.023  66.241  1.00  0.00    -0.137 C  
BRANCH  15  16
HETATM   16  C   UNL     1      -8.701   4.876  65.220  1.00  0.00    -0.146 C  
BRANCH  16  17
HETATM   17  C   UNL     1      -9.484   3.676  65.783  1.00  0.00    -0.161 C  
BRANCH  17  18
HETATM   18  C   UNL     1      -8.796   3.072  66.983  1.00  0.00    -0.158 A  
HETATM   19  C   UNL     1      -7.540   2.462  66.850  1.00  0.00    -0.070 A  
HETATM   20  C   UNL     1      -7.556   1.867  69.193  1.00  0.00    -0.043 A  
HETATM   21  C   UNL     1      -6.925   1.863  67.952  1.00  0.00    -0.036 A  
HETATM   22  C   UNL     1      -8.799   2.484  69.337  1.00  0.00    -0.150 A  
HETATM   23  C   UNL     1      -9.414   3.085  68.239  1.00  0.00    -0.216 A  
ENDBRANCH  17  18
ENDBRANCH  16  17
ENDBRANCH  15  16
BRANCH  15  24
HETATM   24  C   UNL     1      -7.136   6.601  66.121  1.00  0.00    -0.063 C  
HETATM   25  O   UNL     1      -6.533   6.738  65.066  1.00  0.00    -0.041 OA 
BRANCH  24  26
HETATM   26  O   UNL     1      -6.628   6.855  67.363  1.00  0.00    -0.047 OA 
BRANCH  26  27
HETATM   27  C   UNL     1      -6.590   5.730  68.256  1.00  0.00    -0.052 C  
HETATM   28  C   UNL     1      -7.190   6.121  69.595  1.00  0.00    -0.074 C  
ENDBRANCH  26  27
ENDBRANCH  24  26
ENDBRANCH  15  24
ENDBRANCH  13  15
ENDBRANCH   1  13
BRANCH   5  29
HETATM   29  C   UNL     1     -10.112  10.640  69.315  1.00  0.00    -0.206 C  
HETATM   30  C   UNL     1     -11.247  11.480  68.733  1.00  0.00    -0.249 C  
HETATM   31  O   UNL     1     -11.269  12.703  68.795  1.00  0.00    -0.247 OA 
HETATM   32  O   UNL     1     -12.223  10.792  68.099  1.00  0.00    -0.399 OA 
ENDBRANCH   5  29
TORSDOF 9
ENDMDL
MODEL      177
REMARK 921   NORMALIZED FREE ENERGY PREDICTED BY IDOCK:   -4.19 KCAL/MOL
REMARK 922        TOTAL FREE ENERGY PREDICTED BY IDOCK:   -8.55 KCAL/MOL
REMARK 923 INTER-LIGAND FREE ENERGY PREDICTED BY IDOCK:   -7.36 KCAL/MOL
REMARK 924 INTRA-LIGAND FREE ENERGY PREDICTED BY IDOCK:   -1.19 KCAL/MOL
REMARK 927      BINDING AFFINITY PREDICTED BY RF-SCORE:    0.00 PKD
ROOT
HETATM    1  C   UNL     1      -9.230  14.737  67.673  1.00  0.00    -0.191 C  
HETATM    2  C   UNL     1      -9.913  15.285  66.423  1.00  0.00    -0.291 C  
HETATM    3  O   UNL     1      -9.055  15.357  70.021  1.00  0.00    -0.090 OA 
HETATM    4  C   UNL     1     -10.824  19.856  66.639  1.00  0.00    -0.341 A  
HETATM    5  N   UNL     1      -8.343  16.972  68.542  1.00  0.00    -0.251 N  
HETATM    6  C   UNL     1      -9.225  16.507  65.843  1.00  0.00    -0.209 C  
HETATM    7  C   UNL     1      -8.963  15.740  68.847  1.00  0.00    -0.226 C  
HETATM    8  C   UNL     1      -9.539  19.153  68.559  1.00  0.00    -0.454 A  
HETATM    9  C   UNL     1      -9.630  17.738  66.607  1.00  0.00    -0.311 A  
HETATM   10  C   UNL     1     -10.455  18.688  65.980  1.00  0.00    -0.456 A  
HETATM   11  C   UNL     1     -10.359  20.092  67.927  1.00  0.00    -0.459 A  
HETATM   12  C   UNL     1      -9.189  17.954  67.919  1.00  0.00    -0.263 A  
ENDROOT
BRANCH   1  13
HETATM   13  N   UNL     1     -10.026  13.610  68.218  1.00  0.00    -0.233 NA 
HETATM   14  H   UNL     1     -10.771  13.773  68.895  1.00  0.00     0.000 HD 
BRANCH  13  15
HETATM   15  C   UNL     1      -9.707  12.242  67.752  1.00  0.00    -0.199 C  
BRANCH  15  16
HETATM   16  C   UNL     1      -9.495  11.210  68.876  1.00  0.00    -0.136 C  
BRANCH  16  17
HETATM   17  C   UNL     1      -8.352  10.227  68.566  1.00  0.00    -0.116 C  
BRANCH  17  18
HETATM   18  C   UNL     1      -8.835   9.040  67.769  1.00  0.00    -0.125 A  
HETATM   19  C   UNL     1     -10.050   8.416  68.089  1.00  0.00    -0.239 A  
HETATM   20  C   UNL     1      -9.690   6.777  66.349  1.00  0.00    -0.125 A  
HETATM   21  C   UNL     1     -10.474   7.290  67.380  1.00  0.00    -0.359 A  
HETATM   22  C   UNL     1      -8.487   7.399  66.016  1.00  0.00    -0.152 A  
HETATM   23  C   UNL     1      -8.063   8.525  66.720  1.00  0.00    -0.098 A  
ENDBRANCH  17  18
ENDBRANCH  16  17
ENDBRANCH  15  16
BRANCH  15  24
HETATM   24  C   UNL     1     -10.891  11.762  66.880  1.00  0.00    -0.271 C  
HETATM   25  O   UNL     1     -12.062  11.779  67.235  1.00  0.00    -0.595 OA 
BRANCH  24  26
HETATM   26  O   UNL     1     -10.428  11.247  65.703  1.00  0.00    -0.253 OA 
BRANCH  26  27
HETATM   27  C   UNL     1     -10.455  12.148  64.583  1.00  0.00    -0.299 C  
HETATM   28  C   UNL     1     -11.767  11.992  63.834  1.00  0.00    -0.537 C  
ENDBRANCH  26  27
ENDBRANCH  24  26
ENDBRANCH  15  24
ENDBRANCH  13  15
ENDBRANCH   1  13
BRANCH   5  29
HETATM   29  C   UNL     1      -7.409  17.423  69.596  1.00  0.00     0.417 C  
HETATM   30  C   UNL     1      -5.998  16.840  69.550  1.00  0.00    -0.210 C  
HETATM   31  O   UNL     1      -5.135  17.122  70.371  1.00  0.00    -0.196 OA 
HETATM   32  O   UNL     1      -5.761  15.950  68.560  1.00  0.00    -0.096 OA 
ENDBRANCH   5  29
TORSDOF 9
ENDMDL
MODEL      178
REMARK 921   NORMALIZED FREE ENERGY PREDICTED BY IDOCK:   -4.18 KCAL/MOL
REMARK 922        TOTAL FREE ENERGY PREDICTED BY IDOCK:   -8.53 KCAL/MOL
REMARK 923 INTER-LIGAND FREE ENERGY PREDICTED BY IDOCK:   -7.80 KCAL/MOL
REMARK 924 INTRA-LIGAND FREE ENERGY PREDICTED BY IDOCK:   -0.73 KCAL/MOL
REMARK 927      BINDING AFFINITY PREDICTED BY RF-SCORE:    0.00 PKD
ROOT
HETATM    1  C   UNL     1      -9.719  14.488  68.735  1.00  0.00    -0.210 C  
HETATM    2  C   UNL     1      -8.259  14.280  69.128  1.00  0.00     0.097 C  
HETATM    3  O   UNL     1     -10.937  15.350  66.810  1.00  0.00    -0.314 OA 
HETATM    4  C   UNL     1      -5.286  17.045  66.828  1.00  0.00    -0.174 A  
HETATM    5  N   UNL     1      -9.435  16.827  67.739  1.00  0.00    -0.227 N  
HETATM    6  C   UNL     1      -7.541  15.564  69.499  1.00  0.00    -0.200 C  
HETATM    7  C   UNL     1     -10.020  15.547  67.619  1.00  0.00    -0.233 C  
HETATM    8  C   UNL     1      -7.569  17.626  66.302  1.00  0.00    -0.334 A  
HETATM    9  C   UNL     1      -7.104  16.288  68.255  1.00  0.00    -0.138 A  
HETATM   10  C   UNL     1      -5.734  16.355  67.950  1.00  0.00    -0.140 A  
HETATM   11  C   UNL     1      -6.204  17.687  66.008  1.00  0.00    -0.247 A  
HETATM   12  C   UNL     1      -8.037  16.903  67.410  1.00  0.00    -0.174 A  
ENDROOT
BRANCH   1  13
HETATM   13  N   UNL     1     -10.304  13.197  68.298  1.00  0.00    -0.247 NA 
HETATM   14  H   UNL     1      -9.730  12.488  67.843  1.00  0.00     0.000 HD 
BRANCH  13  15
HETATM   15  C   UNL     1     -11.745  12.968  68.543  1.00  0.00    -0.342 C  
BRANCH  15  16
HETATM   16  C   UNL     1     -12.149  11.488  68.684  1.00  0.00    -0.197 C  
BRANCH  16  17
HETATM   17  C   UNL     1     -10.930  10.552  68.778  1.00  0.00    -0.296 C  
BRANCH  17  18
HETATM   18  C   UNL     1     -10.876   9.836  70.106  1.00  0.00    -0.340 A  
HETATM   19  C   UNL     1     -12.055   9.558  70.812  1.00  0.00    -0.305 A  
HETATM   20  C   UNL     1     -10.772   8.588  72.617  1.00  0.00    -0.205 A  
HETATM   21  C   UNL     1     -12.001   8.936  72.062  1.00  0.00    -0.439 A  
HETATM   22  C   UNL     1      -9.594   8.849  71.915  1.00  0.00    -0.326 A  
HETATM   23  C   UNL     1      -9.647   9.467  70.666  1.00  0.00    -0.331 A  
ENDBRANCH  17  18
ENDBRANCH  16  17
ENDBRANCH  15  16
BRANCH  15  24
HETATM   24  C   UNL     1     -12.113  13.690  69.860  1.00  0.00    -0.341 C  
HETATM   25  O   UNL     1     -12.183  13.143  70.952  1.00  0.00    -0.358 OA 
BRANCH  24  26
HETATM   26  O   UNL     1     -12.422  14.997  69.609  1.00  0.00    -0.234 OA 
BRANCH  26  27
HETATM   27  C   UNL     1     -12.775  15.779  70.761  1.00  0.00    -0.338 C  
HETATM   28  C   UNL     1     -11.527  16.412  71.352  1.00  0.00    -0.264 C  
ENDBRANCH  26  27
ENDBRANCH  24  26
ENDBRANCH  15  24
ENDBRANCH  13  15
ENDBRANCH   1  13
BRANCH   5  29
HETATM   29  C   UNL     1     -10.323  17.912  67.271  1.00  0.00    -0.369 C  
HETATM   30  C   UNL     1     -10.422  19.146  68.167  1.00  0.00    -0.338 C  
HETATM   31  O   UNL     1     -11.132  20.107  67.899  1.00  0.00     0.085 OA 
HETATM   32  O   UNL     1      -9.703  19.101  69.311  1.00  0.00    -0.321 OA 
ENDBRANCH   5  29
TORSDOF 9
ENDMDL
MODEL      179
REMARK 921   NORMALIZED FREE ENERGY PREDICTED BY IDOCK:   -4.16 KCAL/MOL
REMARK 922        TOTAL FREE ENERGY PREDICTED BY IDOCK:   -8.50 KCAL/MOL
REMARK 923 INTER-LIGAND FREE ENERGY PREDICTED BY IDOCK:   -7.37 KCAL/MOL
REMARK 924 INTRA-LIGAND FREE ENERGY PREDICTED BY IDOCK:   -1.13 KCAL/MOL
REMARK 927      BINDING AFFINITY PREDICTED BY RF-SCORE:    0.00 PKD
ROOT
HETATM    1  C   UNL     1      -9.921  11.692  67.918  1.00  0.00    -0.182 C  
HETATM    2  C   UNL     1     -10.640  10.833  66.880  1.00  0.00    -0.312 C  
HETATM    3  O   UNL     1      -7.701  11.793  68.913  1.00  0.00    -0.116 OA 
HETATM    4  C   UNL     1      -8.767   6.594  66.337  1.00  0.00    -0.144 A  
HETATM    5  N   UNL     1      -8.777   9.773  69.163  1.00  0.00    -0.144 N  
HETATM    6  C   UNL     1     -11.024   9.457  67.393  1.00  0.00    -0.061 C  
HETATM    7  C   UNL     1      -8.664  11.072  68.620  1.00  0.00    -0.161 C  
HETATM    8  C   UNL     1      -7.703   7.767  68.159  1.00  0.00    -0.119 A  
HETATM    9  C   UNL     1      -9.837   8.536  67.336  1.00  0.00    -0.244 A  
HETATM   10  C   UNL     1      -9.830   7.489  66.399  1.00  0.00    -0.152 A  
HETATM   11  C   UNL     1      -7.707   6.729  67.224  1.00  0.00    -0.109 A  
HETATM   12  C   UNL     1      -8.752   8.698  68.208  1.00  0.00    -0.142 A  
ENDROOT
BRANCH   1  13
HETATM   13  N   UNL     1      -9.503  12.972  67.297  1.00  0.00    -0.217 NA 
HETATM   14  H   UNL     1      -8.681  13.019  66.695  1.00  0.00     0.000 HD 
BRANCH  13  15
HETATM   15  C   UNL     1     -10.312  14.179  67.577  1.00  0.00    -0.248 C  
BRANCH  15  16
HETATM   16  C   UNL     1      -9.536  15.338  68.232  1.00  0.00    -0.206 C  
BRANCH  16  17
HETATM   17  C   UNL     1      -8.106  15.477  67.680  1.00  0.00    -0.162 C  
BRANCH  17  18
HETATM   18  C   UNL     1      -7.725  16.922  67.468  1.00  0.00    -0.187 A  
HETATM   19  C   UNL     1      -7.889  17.858  68.500  1.00  0.00    -0.301 A  
HETATM   20  C   UNL     1      -7.105  19.626  67.050  1.00  0.00    -0.230 A  
HETATM   21  C   UNL     1      -7.579  19.203  68.289  1.00  0.00    -0.339 A  
HETATM   22  C   UNL     1      -6.927  18.699  66.022  1.00  0.00    -0.305 A  
HETATM   23  C   UNL     1      -7.233  17.355  66.231  1.00  0.00    -0.346 A  
ENDBRANCH  17  18
ENDBRANCH  16  17
ENDBRANCH  15  16
BRANCH  15  24
HETATM   24  C   UNL     1     -10.874  14.684  66.228  1.00  0.00    -0.321 C  
HETATM   25  O   UNL     1     -10.703  15.813  65.787  1.00  0.00    -0.324 OA 
BRANCH  24  26
HETATM   26  O   UNL     1     -11.647  13.718  65.650  1.00  0.00    -0.317 OA 
BRANCH  26  27
HETATM   27  C   UNL     1     -11.818  13.834  64.228  1.00  0.00    -0.417 C  
HETATM   28  C   UNL     1     -12.160  12.475  63.642  1.00  0.00    -0.642 C  
ENDBRANCH  26  27
ENDBRANCH  24  26
ENDBRANCH  15  24
ENDBRANCH  13  15
ENDBRANCH   1  13
BRANCH   5  29
HETATM   29  C   UNL     1      -8.020   9.607  70.421  1.00  0.00    -0.165 C  
HETATM   30  C   UNL     1      -8.751   8.914  71.570  1.00  0.00    -0.162 C  
HETATM   31  O   UNL     1      -8.240   8.727  72.667  1.00  0.00    -0.403 OA 
HETATM   32  O   UNL     1     -10.027   8.547  71.318  1.00  0.00    -0.190 OA 
ENDBRANCH   5  29
TORSDOF 9
ENDMDL
MODEL      180
REMARK 921   NORMALIZED FREE ENERGY PREDICTED BY IDOCK:   -4.13 KCAL/MOL
REMARK 922        TOTAL FREE ENERGY PREDICTED BY IDOCK:   -8.46 KCAL/MOL
REMARK 923 INTER-LIGAND FREE ENERGY PREDICTED BY IDOCK:   -7.36 KCAL/MOL
REMARK 924 INTRA-LIGAND FREE ENERGY PREDICTED BY IDOCK:   -1.10 KCAL/MOL
REMARK 927      BINDING AFFINITY PREDICTED BY RF-SCORE:    0.00 PKD
ROOT
HETATM    1  C   UNL     1      -9.649   9.429  68.783  1.00  0.00    -0.154 C  
HETATM    2  C   UNL     1     -10.593   9.996  67.726  1.00  0.00    -0.311 C  
HETATM    3  O   UNL     1      -7.243   9.332  69.150  1.00  0.00    -0.064 OA 
HETATM    4  C   UNL     1      -8.607  10.543  63.539  1.00  0.00    -0.165 A  
HETATM    5  N   UNL     1      -7.952   8.412  67.162  1.00  0.00    -0.104 N  
HETATM    6  C   UNL     1     -10.631   9.180  66.447  1.00  0.00    -0.002 C  
HETATM    7  C   UNL     1      -8.169   9.146  68.349  1.00  0.00    -0.115 C  
HETATM    8  C   UNL     1      -7.098   9.426  65.057  1.00  0.00    -0.101 A  
HETATM    9  C   UNL     1      -9.451   9.525  65.580  1.00  0.00    -0.326 A  
HETATM   10  C   UNL     1      -9.667  10.234  64.386  1.00  0.00    -0.381 A  
HETATM   11  C   UNL     1      -7.323  10.131  63.872  1.00  0.00    -0.111 A  
HETATM   12  C   UNL     1      -8.152   9.140  65.938  1.00  0.00    -0.111 A  
ENDROOT
BRANCH   1  13
HETATM   13  N   UNL     1      -9.607  10.342  69.951  1.00  0.00    -0.411 NA 
HETATM   14  H   UNL     1      -8.989  11.154  69.960  1.00  0.00     0.000 HD 
BRANCH  13  15
HETATM   15  C   UNL     1     -10.486  10.042  71.102  1.00  0.00     0.319 C  
BRANCH  15  16
HETATM   16  C   UNL     1     -11.922  10.588  70.977  1.00  0.00    -0.466 C  
BRANCH  16  17
HETATM   17  C   UNL     1     -12.016  11.782  70.010  1.00  0.00    -0.421 C  
BRANCH  17  18
HETATM   18  C   UNL     1     -12.596  13.002  70.682  1.00  0.00    -0.270 A  
HETATM   19  C   UNL     1     -12.228  14.288  70.260  1.00  0.00    -0.407 A  
HETATM   20  C   UNL     1     -13.599  15.273  71.990  1.00  0.00    -0.571 A  
HETATM   21  C   UNL     1     -12.729  15.417  70.912  1.00  0.00    -0.520 A  
HETATM   22  C   UNL     1     -13.981  13.998  72.408  1.00  0.00    -0.622 A  
HETATM   23  C   UNL     1     -13.484  12.870  71.756  1.00  0.00    -0.369 A  
ENDBRANCH  17  18
ENDBRANCH  16  17
ENDBRANCH  15  16
BRANCH  15  24
HETATM   24  C   UNL     1     -10.571   8.503  71.231  1.00  0.00    -0.234 C  
HETATM   25  O   UNL     1      -9.744   7.811  71.810  1.00  0.00    -0.158 OA 
BRANCH  24  26
HETATM   26  O   UNL     1     -11.652   8.033  70.542  1.00  0.00    -0.241 OA 
BRANCH  26  27
HETATM   27  C   UNL     1     -11.730   6.604  70.416  1.00  0.00    -0.386 C  
HETATM   28  C   UNL     1     -11.249   6.185  69.038  1.00  0.00    -0.375 C  
ENDBRANCH  26  27
ENDBRANCH  24  26
ENDBRANCH  15  24
ENDBRANCH  13  15
ENDBRANCH   1  13
BRANCH   5  29
HETATM   29  C   UNL     1      -6.789   7.504  67.251  1.00  0.00    -0.071 C  
HETATM   30  C   UNL     1      -7.092   6.006  67.232  1.00  0.00    -0.070 C  
HETATM   31  O   UNL     1      -6.220   5.150  67.313  1.00  0.00    -0.032 OA 
HETATM   32  O   UNL     1      -8.400   5.672  67.161  1.00  0.00    -0.105 OA 
ENDBRANCH   5  29
TORSDOF 9
ENDMDL
MODEL      181
REMARK 921   NORMALIZED FREE ENERGY PREDICTED BY IDOCK:   -4.10 KCAL/MOL
REMARK 922        TOTAL FREE ENERGY PREDICTED BY IDOCK:   -8.42 KCAL/MOL
REMARK 923 INTER-LIGAND FREE ENERGY PREDICTED BY IDOCK:   -6.87 KCAL/MOL
REMARK 924 INTRA-LIGAND FREE ENERGY PREDICTED BY IDOCK:   -1.55 KCAL/MOL
REMARK 927      BINDING AFFINITY PREDICTED BY RF-SCORE:    0.00 PKD
ROOT
HETATM    1  C   UNL     1      -8.899   8.992  68.250  1.00  0.00    -0.134 C  
HETATM    2  C   UNL     1     -10.292   9.578  68.462  1.00  0.00    -0.234 C  
HETATM    3  O   UNL     1      -7.806   6.841  68.574  1.00  0.00    -0.113 OA 
HETATM    4  C   UNL     1     -12.818   7.295  71.653  1.00  0.00    -0.415 A  
HETATM    5  N   UNL     1      -8.755   7.734  70.472  1.00  0.00    -0.139 N  
HETATM    6  C   UNL     1     -10.618   9.856  69.918  1.00  0.00    -0.312 C  
HETATM    7  C   UNL     1      -8.520   7.717  69.079  1.00  0.00    -0.132 C  
HETATM    8  C   UNL     1     -10.565   6.432  71.575  1.00  0.00    -0.273 A  
HETATM    9  C   UNL     1     -11.046   8.586  70.602  1.00  0.00    -0.280 A  
HETATM   10  C   UNL     1     -12.389   8.439  70.987  1.00  0.00    -0.143 A  
HETATM   11  C   UNL     1     -11.902   6.294  71.954  1.00  0.00    -0.359 A  
HETATM   12  C   UNL     1     -10.127   7.563  70.870  1.00  0.00    -0.191 A  
ENDROOT
BRANCH   1  13
HETATM   13  N   UNL     1      -8.712   8.666  66.815  1.00  0.00    -0.122 NA 
HETATM   14  H   UNL     1      -9.152   7.844  66.402  1.00  0.00     0.000 HD 
BRANCH  13  15
HETATM   15  C   UNL     1      -7.867   9.567  66.001  1.00  0.00    -0.100 C  
BRANCH  15  16
HETATM   16  C   UNL     1      -8.623  10.733  65.334  1.00  0.00    -0.162 C  
BRANCH  16  17
HETATM   17  C   UNL     1     -10.025  10.324  64.847  1.00  0.00    -0.393 C  
BRANCH  17  18
HETATM   18  C   UNL     1     -10.953  11.510  64.753  1.00  0.00    -0.338 A  
HETATM   19  C   UNL     1     -11.124  12.184  63.536  1.00  0.00    -0.525 A  
HETATM   20  C   UNL     1     -12.607  13.771  64.597  1.00  0.00    -0.288 A  
HETATM   21  C   UNL     1     -11.949  13.309  63.460  1.00  0.00    -0.537 A  
HETATM   22  C   UNL     1     -12.453  13.098  65.810  1.00  0.00    -0.441 A  
HETATM   23  C   UNL     1     -11.633  11.973  65.886  1.00  0.00    -0.364 A  
ENDBRANCH  17  18
ENDBRANCH  16  17
ENDBRANCH  15  16
BRANCH  15  24
HETATM   24  C   UNL     1      -6.793  10.169  66.937  1.00  0.00    -0.084 C  
HETATM   25  O   UNL     1      -6.768  11.338  67.298  1.00  0.00    -0.086 OA 
BRANCH  24  26
HETATM   26  O   UNL     1      -5.847   9.230  67.230  1.00  0.00    -0.045 OA 
BRANCH  26  27
HETATM   27  C   UNL     1      -5.180   8.651  66.096  1.00  0.00    -0.030 C  
HETATM   28  C   UNL     1      -5.134   7.141  66.247  1.00  0.00    -0.023 C  
ENDBRANCH  26  27
ENDBRANCH  24  26
ENDBRANCH  15  24
ENDBRANCH  13  15
ENDBRANCH   1  13
BRANCH   5  29
HETATM   29  C   UNL     1      -7.711   7.025  71.241  1.00  0.00    -0.091 C  
HETATM   30  C   UNL     1      -7.193   7.728  72.495  1.00  0.00    -0.084 C  
HETATM   31  O   UNL     1      -6.320   7.253  73.211  1.00  0.00    -0.063 OA 
HETATM   32  O   UNL     1      -7.729   8.941  72.753  1.00  0.00    -0.366 OA 
ENDBRANCH   5  29
TORSDOF 9
ENDMDL
MODEL      182
REMARK 921   NORMALIZED FREE ENERGY PREDICTED BY IDOCK:   -4.08 KCAL/MOL
REMARK 922        TOTAL FREE ENERGY PREDICTED BY IDOCK:   -8.39 KCAL/MOL
REMARK 923 INTER-LIGAND FREE ENERGY PREDICTED BY IDOCK:   -6.22 KCAL/MOL
REMARK 924 INTRA-LIGAND FREE ENERGY PREDICTED BY IDOCK:   -2.17 KCAL/MOL
REMARK 927      BINDING AFFINITY PREDICTED BY RF-SCORE:    0.00 PKD
ROOT
HETATM    1  C   UNL     1     -10.769   6.812  68.237  1.00  0.00    -0.235 C  
HETATM    2  C   UNL     1     -11.368   5.969  69.359  1.00  0.00    -0.282 C  
HETATM    3  O   UNL     1      -8.790   8.193  67.913  1.00  0.00    -0.130 OA 
HETATM    4  C   UNL     1      -9.948   7.237  73.619  1.00  0.00    -0.377 A  
HETATM    5  N   UNL     1     -10.128   8.826  69.677  1.00  0.00    -0.198 N  
HETATM    6  C   UNL     1     -12.007   6.793  70.461  1.00  0.00    -0.385 C  
HETATM    7  C   UNL     1      -9.757   7.937  68.644  1.00  0.00    -0.158 C  
HETATM    8  C   UNL     1      -9.127   8.781  71.953  1.00  0.00    -0.291 A  
HETATM    9  C   UNL     1     -10.951   7.300  71.404  1.00  0.00    -0.256 A  
HETATM   10  C   UNL     1     -10.887   6.771  72.705  1.00  0.00    -0.294 A  
HETATM   11  C   UNL     1      -9.072   8.249  73.244  1.00  0.00    -0.278 A  
HETATM   12  C   UNL     1     -10.045   8.294  71.011  1.00  0.00    -0.191 A  
ENDROOT
BRANCH   1  13
HETATM   13  N   UNL     1     -10.087   5.926  67.262  1.00  0.00    -0.154 NA 
HETATM   14  H   UNL     1     -10.478   5.770  66.333  1.00  0.00     0.000 HD 
BRANCH  13  15
HETATM   15  C   UNL     1      -8.824   5.276  67.677  1.00  0.00    -0.105 C  
BRANCH  15  16
HETATM   16  C   UNL     1      -8.955   4.321  68.879  1.00  0.00    -0.156 C  
BRANCH  16  17
HETATM   17  C   UNL     1      -7.985   4.675  70.021  1.00  0.00    -0.064 C  
BRANCH  17  18
HETATM   18  C   UNL     1      -8.513   4.231  71.363  1.00  0.00    -0.110 A  
HETATM   19  C   UNL     1      -7.788   4.495  72.534  1.00  0.00    -0.087 A  
HETATM   20  C   UNL     1      -9.446   3.327  73.849  1.00  0.00    -0.119 A  
HETATM   21  C   UNL     1      -8.255   4.044  73.771  1.00  0.00    -0.088 A  
HETATM   22  C   UNL     1     -10.181   3.072  72.691  1.00  0.00    -0.231 A  
HETATM   23  C   UNL     1      -9.717   3.524  71.455  1.00  0.00    -0.237 A  
ENDBRANCH  17  18
ENDBRANCH  16  17
ENDBRANCH  15  16
BRANCH  15  24
HETATM   24  C   UNL     1      -8.307   4.456  66.471  1.00  0.00    -0.105 C  
HETATM   25  O   UNL     1      -7.171   4.529  66.024  1.00  0.00    -0.073 OA 
BRANCH  24  26
HETATM   26  O   UNL     1      -9.320   3.710  65.941  1.00  0.00    -0.155 OA 
BRANCH  26  27
HETATM   27  C   UNL     1      -9.185   3.387  64.548  1.00  0.00    -0.137 C  
HETATM   28  C   UNL     1     -10.457   3.764  63.810  1.00  0.00    -0.258 C  
ENDBRANCH  26  27
ENDBRANCH  24  26
ENDBRANCH  15  24
ENDBRANCH  13  15
ENDBRANCH   1  13
BRANCH   5  29
HETATM   29  C   UNL     1      -9.657  10.207  69.446  1.00  0.00    -0.232 C  
HETATM   30  C   UNL     1     -10.658  11.172  68.813  1.00  0.00    -0.202 C  
HETATM   31  O   UNL     1     -10.388  12.339  68.558  1.00  0.00    -0.226 OA 
HETATM   32  O   UNL     1     -11.866  10.649  68.508  1.00  0.00    -0.406 OA 
ENDBRANCH   5  29
TORSDOF 9
ENDMDL
MODEL      183
REMARK 921   NORMALIZED FREE ENERGY PREDICTED BY IDOCK:   -4.04 KCAL/MOL
REMARK 922        TOTAL FREE ENERGY PREDICTED BY IDOCK:   -8.32 KCAL/MOL
REMARK 923 INTER-LIGAND FREE ENERGY PREDICTED BY IDOCK:   -6.99 KCAL/MOL
REMARK 924 INTRA-LIGAND FREE ENERGY PREDICTED BY IDOCK:   -1.34 KCAL/MOL
REMARK 927      BINDING AFFINITY PREDICTED BY RF-SCORE:    0.00 PKD
ROOT
HETATM    1  C   UNL     1     -10.935   8.762  70.810  1.00  0.00    -0.247 C  
HETATM    2  C   UNL     1     -12.039   9.043  71.826  1.00  0.00    -0.438 C  
HETATM    3  O   UNL     1      -9.122  10.005  69.763  1.00  0.00    -0.215 OA 
HETATM    4  C   UNL     1     -13.197  13.553  72.133  1.00  0.00    -0.551 A  
HETATM    5  N   UNL     1     -11.216  10.911  69.452  1.00  0.00    -0.250 N  
HETATM    6  C   UNL     1     -13.188   9.858  71.263  1.00  0.00    -0.465 C  
HETATM    7  C   UNL     1     -10.327   9.990  70.049  1.00  0.00    -0.272 C  
HETATM    8  C   UNL     1     -11.622  13.199  70.338  1.00  0.00     0.018 A  
HETATM    9  C   UNL     1     -12.827  11.318  71.249  1.00  0.00    -0.491 A  
HETATM   10  C   UNL     1     -13.477  12.190  72.138  1.00  0.00    -0.383 A  
HETATM   11  C   UNL     1     -12.274  14.058  71.226  1.00  0.00    -0.392 A  
HETATM   12  C   UNL     1     -11.868  11.818  70.357  1.00  0.00    -0.271 A  
ENDROOT
BRANCH   1  13
HETATM   13  N   UNL     1      -9.818   8.048  71.476  1.00  0.00    -0.165 NA 
HETATM   14  H   UNL     1      -8.910   8.495  71.599  1.00  0.00     0.000 HD 
BRANCH  13  15
HETATM   15  C   UNL     1     -10.061   6.670  71.957  1.00  0.00    -0.183 C  
BRANCH  15  16
HETATM   16  C   UNL     1      -9.537   5.560  71.025  1.00  0.00    -0.217 C  
BRANCH  16  17
HETATM   17  C   UNL     1      -8.567   6.097  69.956  1.00  0.00    -0.136 C  
BRANCH  17  18
HETATM   18  C   UNL     1      -8.994   5.700  68.564  1.00  0.00    -0.115 A  
HETATM   19  C   UNL     1     -10.351   5.691  68.212  1.00  0.00    -0.253 A  
HETATM   20  C   UNL     1      -9.796   4.875  66.005  1.00  0.00    -0.219 A  
HETATM   21  C   UNL     1     -10.749   5.281  66.938  1.00  0.00    -0.208 A  
HETATM   22  C   UNL     1      -8.443   4.894  66.343  1.00  0.00    -0.111 A  
HETATM   23  C   UNL     1      -8.044   5.306  67.613  1.00  0.00    -0.100 A  
ENDBRANCH  17  18
ENDBRANCH  16  17
ENDBRANCH  15  16
BRANCH  15  24
HETATM   24  C   UNL     1      -9.348   6.523  73.321  1.00  0.00    -0.131 C  
HETATM   25  O   UNL     1      -9.822   5.944  74.289  1.00  0.00    -0.179 OA 
BRANCH  24  26
HETATM   26  O   UNL     1      -8.161   7.197  73.306  1.00  0.00    -0.105 OA 
BRANCH  26  27
HETATM   27  C   UNL     1      -7.093   6.584  74.048  1.00  0.00    -0.084 C  
HETATM   28  C   UNL     1      -6.396   5.551  73.180  1.00  0.00    -0.061 C  
ENDBRANCH  26  27
ENDBRANCH  24  26
ENDBRANCH  15  24
ENDBRANCH  13  15
ENDBRANCH   1  13
BRANCH   5  29
HETATM   29  C   UNL     1     -10.715  11.445  68.168  1.00  0.00    -0.202 C  
HETATM   30  C   UNL     1     -10.705  10.479  66.985  1.00  0.00    -0.250 C  
HETATM   31  O   UNL     1     -10.303  10.793  65.873  1.00  0.00    -0.254 OA 
HETATM   32  O   UNL     1     -11.135   9.224  67.247  1.00  0.00    -0.054 OA 
ENDBRANCH   5  29
TORSDOF 9
ENDMDL
MODEL      184
REMARK 921   NORMALIZED FREE ENERGY PREDICTED BY IDOCK:   -4.02 KCAL/MOL
REMARK 922        TOTAL FREE ENERGY PREDICTED BY IDOCK:   -8.29 KCAL/MOL
REMARK 923 INTER-LIGAND FREE ENERGY PREDICTED BY IDOCK:   -9.02 KCAL/MOL
REMARK 924 INTRA-LIGAND FREE ENERGY PREDICTED BY IDOCK:    0.72 KCAL/MOL
REMARK 927      BINDING AFFINITY PREDICTED BY RF-SCORE:    0.00 PKD
ROOT
HETATM    1  C   UNL     1     -11.438  12.652  69.086  1.00  0.00    -0.304 C  
HETATM    2  C   UNL     1     -10.331  12.131  68.174  1.00  0.00    -0.214 C  
HETATM    3  O   UNL     1     -12.299  12.144  71.307  1.00  0.00    -0.250 OA 
HETATM    4  C   UNL     1      -9.048   7.742  69.104  1.00  0.00    -0.145 A  
HETATM    5  N   UNL     1     -12.311  10.369  69.841  1.00  0.00    -0.173 N  
HETATM    6  C   UNL     1     -10.656  10.797  67.527  1.00  0.00    -0.280 C  
HETATM    7  C   UNL     1     -11.962  11.688  70.207  1.00  0.00    -0.358 C  
HETATM    8  C   UNL     1     -10.955   8.373  70.443  1.00  0.00    -0.249 A  
HETATM    9  C   UNL     1     -10.389   9.677  68.494  1.00  0.00    -0.231 A  
HETATM   10  C   UNL     1      -9.308   8.812  68.253  1.00  0.00    -0.143 A  
HETATM   11  C   UNL     1      -9.878   7.518  70.195  1.00  0.00    -0.180 A  
HETATM   12  C   UNL     1     -11.206   9.476  69.614  1.00  0.00    -0.108 A  
ENDROOT
BRANCH   1  13
HETATM   13  N   UNL     1     -10.991  13.903  69.744  1.00  0.00    -0.462 NA 
HETATM   14  H   UNL     1     -10.961  13.980  70.761  1.00  0.00     0.000 HD 
BRANCH  13  15
HETATM   15  C   UNL     1     -10.589  15.037  68.883  1.00  0.00    -0.242 C  
BRANCH  15  16
HETATM   16  C   UNL     1     -11.555  15.340  67.722  1.00  0.00    -0.277 C  
BRANCH  16  17
HETATM   17  C   UNL     1     -10.840  15.398  66.360  1.00  0.00    -0.303 C  
BRANCH  17  18
HETATM   18  C   UNL     1     -11.160  14.194  65.508  1.00  0.00    -0.310 A  
HETATM   19  C   UNL     1     -10.171  13.612  64.701  1.00  0.00    -0.338 A  
HETATM   20  C   UNL     1     -11.775  12.013  63.853  1.00  0.00    -0.537 A  
HETATM   21  C   UNL     1     -10.480  12.526  63.878  1.00  0.00    -0.464 A  
HETATM   22  C   UNL     1     -12.760  12.577  64.663  1.00  0.00    -0.434 A  
HETATM   23  C   UNL     1     -12.454  13.660  65.487  1.00  0.00    -0.544 A  
ENDBRANCH  17  18
ENDBRANCH  16  17
ENDBRANCH  15  16
BRANCH  15  24
HETATM   24  C   UNL     1     -10.511  16.296  69.779  1.00  0.00    -0.260 C  
HETATM   25  O   UNL     1     -11.221  16.493  70.756  1.00  0.00    -0.304 OA 
BRANCH  24  26
HETATM   26  O   UNL     1      -9.598  17.176  69.274  1.00  0.00    -0.156 OA 
BRANCH  26  27
HETATM   27  C   UNL     1     -10.140  18.417  68.790  1.00  0.00    -0.363 C  
HETATM   28  C   UNL     1      -9.190  19.027  67.775  1.00  0.00    -0.339 C  
ENDBRANCH  26  27
ENDBRANCH  24  26
ENDBRANCH  15  24
ENDBRANCH  13  15
ENDBRANCH   1  13
BRANCH   5  29
HETATM   29  C   UNL     1     -13.482   9.857  70.584  1.00  0.00     0.070 C  
HETATM   30  C   UNL     1     -13.221   9.355  72.004  1.00  0.00    -0.449 C  
HETATM   31  O   UNL     1     -14.102   8.895  72.718  1.00  0.00    -0.500 OA 
HETATM   32  O   UNL     1     -11.936   9.410  72.420  1.00  0.00    -0.171 OA 
ENDBRANCH   5  29
TORSDOF 9
ENDMDL
MODEL      185
REMARK 921   NORMALIZED FREE ENERGY PREDICTED BY IDOCK:   -3.98 KCAL/MOL
REMARK 922        TOTAL FREE ENERGY PREDICTED BY IDOCK:   -8.23 KCAL/MOL
REMARK 923 INTER-LIGAND FREE ENERGY PREDICTED BY IDOCK:   -7.27 KCAL/MOL
REMARK 924 INTRA-LIGAND FREE ENERGY PREDICTED BY IDOCK:   -0.96 KCAL/MOL
REMARK 927      BINDING AFFINITY PREDICTED BY RF-SCORE:    0.00 PKD
ROOT
HETATM    1  C   UNL     1     -10.076  16.338  65.771  1.00  0.00    -0.347 C  
HETATM    2  C   UNL     1     -11.137  17.185  66.467  1.00  0.00     0.392 C  
HETATM    3  O   UNL     1      -7.818  15.565  66.255  1.00  0.00     0.105 OA 
HETATM    4  C   UNL     1      -9.397  20.134  69.638  1.00  0.00     0.578 A  
HETATM    5  N   UNL     1      -8.083  17.852  66.297  1.00  0.00    -0.253 N  
HETATM    6  C   UNL     1     -10.837  18.673  66.443  1.00  0.00    -0.121 C  
HETATM    7  C   UNL     1      -8.587  16.535  66.221  1.00  0.00    -0.332 C  
HETATM    8  C   UNL     1      -7.618  19.024  68.441  1.00  0.00    -0.343 A  
HETATM    9  C   UNL     1      -9.850  19.016  67.526  1.00  0.00    -0.386 A  
HETATM   10  C   UNL     1     -10.286  19.765  68.632  1.00  0.00    -0.515 A  
HETATM   11  C   UNL     1      -8.061  19.769  69.537  1.00  0.00     0.262 A  
HETATM   12  C   UNL     1      -8.511  18.615  67.439  1.00  0.00    -0.265 A  
ENDROOT
BRANCH   1  13
HETATM   13  N   UNL     1     -10.406  14.901  65.930  1.00  0.00    -0.295 NA 
HETATM   14  H   UNL     1     -10.624  14.320  65.120  1.00  0.00     0.000 HD 
BRANCH  13  15
HETATM   15  C   UNL     1     -10.412  14.335  67.297  1.00  0.00    -0.269 C  
BRANCH  15  16
HETATM   16  C   UNL     1     -11.807  13.964  67.836  1.00  0.00    -0.413 C  
BRANCH  16  17
HETATM   17  C   UNL     1     -12.008  14.401  69.298  1.00  0.00    -0.362 C  
BRANCH  17  18
HETATM   18  C   UNL     1     -12.288  13.224  70.201  1.00  0.00    -0.306 A  
HETATM   19  C   UNL     1     -11.833  11.942  69.858  1.00  0.00    -0.418 A  
HETATM   20  C   UNL     1     -12.885  11.018  71.829  1.00  0.00    -0.496 A  
HETATM   21  C   UNL     1     -12.131  10.846  70.671  1.00  0.00    -0.468 A  
HETATM   22  C   UNL     1     -13.330  12.292  72.184  1.00  0.00    -0.473 A  
HETATM   23  C   UNL     1     -13.031  13.388  71.376  1.00  0.00    -0.412 A  
ENDBRANCH  17  18
ENDBRANCH  16  17
ENDBRANCH  15  16
BRANCH  15  24
HETATM   24  C   UNL     1      -9.554  13.048  67.270  1.00  0.00    -0.225 C  
HETATM   25  O   UNL     1      -8.844  12.672  68.193  1.00  0.00    -0.186 OA 
BRANCH  24  26
HETATM   26  O   UNL     1      -9.645  12.449  66.047  1.00  0.00    -0.242 OA 
BRANCH  26  27
HETATM   27  C   UNL     1      -8.820  11.286  65.866  1.00  0.00    -0.169 C  
HETATM   28  C   UNL     1      -9.697  10.068  65.637  1.00  0.00    -0.336 C  
ENDBRANCH  26  27
ENDBRANCH  24  26
ENDBRANCH  15  24
ENDBRANCH  13  15
ENDBRANCH   1  13
BRANCH   5  29
HETATM   29  C   UNL     1      -6.668  17.951  65.882  1.00  0.00    -0.277 C  
HETATM   30  C   UNL     1      -6.266  19.220  65.130  1.00  0.00    -0.277 C  
HETATM   31  O   UNL     1      -5.129  19.418  64.721  1.00  0.00    -0.149 OA 
HETATM   32  O   UNL     1      -7.259  20.108  64.903  1.00  0.00    -0.272 OA 
ENDBRANCH   5  29
TORSDOF 9
ENDMDL
MODEL      186
REMARK 921   NORMALIZED FREE ENERGY PREDICTED BY IDOCK:   -3.98 KCAL/MOL
REMARK 922        TOTAL FREE ENERGY PREDICTED BY IDOCK:   -8.23 KCAL/MOL
REMARK 923 INTER-LIGAND FREE ENERGY PREDICTED BY IDOCK:   -7.00 KCAL/MOL
REMARK 924 INTRA-LIGAND FREE ENERGY PREDICTED BY IDOCK:   -1.23 KCAL/MOL
REMARK 927      BINDING AFFINITY PREDICTED BY RF-SCORE:    0.00 PKD
ROOT
HETATM    1  C   UNL     1      -9.090   9.182  66.575  1.00  0.00    -0.156 C  
HETATM    2  C   UNL     1      -8.499  10.346  65.785  1.00  0.00    -0.170 C  
HETATM    3  O   UNL     1     -11.279   8.543  67.430  1.00  0.00     0.230 OA 
HETATM    4  C   UNL     1     -10.973  14.288  66.122  1.00  0.00    -0.313 A  
HETATM    5  N   UNL     1     -10.516  10.586  68.167  1.00  0.00    -0.174 N  
HETATM    6  C   UNL     1      -8.327  11.610  66.606  1.00  0.00    -0.154 C  
HETATM    7  C   UNL     1     -10.431   9.441  67.345  1.00  0.00    -0.278 C  
HETATM    8  C   UNL     1     -11.867  12.594  67.592  1.00  0.00    -0.390 A  
HETATM    9  C   UNL     1      -9.636  12.342  66.707  1.00  0.00    -0.224 A  
HETATM   10  C   UNL     1      -9.790  13.563  66.027  1.00  0.00    -0.277 A  
HETATM   11  C   UNL     1     -12.010  13.806  66.912  1.00  0.00    -0.460 A  
HETATM   12  C   UNL     1     -10.693  11.835  67.475  1.00  0.00    -0.221 A  
ENDROOT
BRANCH   1  13
HETATM   13  N   UNL     1      -9.310   8.029  65.668  1.00  0.00    -0.413 NA 
HETATM   14  H   UNL     1      -9.879   8.124  64.827  1.00  0.00     0.000 HD 
BRANCH  13  15
HETATM   15  C   UNL     1      -8.680   6.737  66.019  1.00  0.00    -0.146 C  
BRANCH  15  16
HETATM   16  C   UNL     1      -9.637   5.698  66.636  1.00  0.00    -0.166 C  
BRANCH  16  17
HETATM   17  C   UNL     1      -9.014   4.961  67.834  1.00  0.00    -0.120 C  
BRANCH  17  18
HETATM   18  C   UNL     1      -9.757   5.248  69.116  1.00  0.00    -0.231 A  
HETATM   19  C   UNL     1     -10.904   6.055  69.107  1.00  0.00    -0.422 A  
HETATM   20  C   UNL     1     -11.086   5.861  71.510  1.00  0.00    -0.314 A  
HETATM   21  C   UNL     1     -11.564   6.358  70.300  1.00  0.00    -0.451 A  
HETATM   22  C   UNL     1      -9.953   5.047  71.526  1.00  0.00    -0.254 A  
HETATM   23  C   UNL     1      -9.294   4.741  70.336  1.00  0.00    -0.216 A  
ENDBRANCH  17  18
ENDBRANCH  16  17
ENDBRANCH  15  16
BRANCH  15  24
HETATM   24  C   UNL     1      -8.098   6.135  64.719  1.00  0.00    -0.132 C  
HETATM   25  O   UNL     1      -7.196   6.643  64.066  1.00  0.00    -0.057 OA 
BRANCH  24  26
HETATM   26  O   UNL     1      -8.789   5.010  64.372  1.00  0.00    -0.147 OA 
BRANCH  26  27
HETATM   27  C   UNL     1      -8.848   4.732  62.963  1.00  0.00    -0.115 C  
HETATM   28  C   UNL     1      -8.300   3.342  62.693  1.00  0.00    -0.074 C  
ENDBRANCH  26  27
ENDBRANCH  24  26
ENDBRANCH  15  24
ENDBRANCH  13  15
ENDBRANCH   1  13
BRANCH   5  29
HETATM   29  C   UNL     1     -11.299  10.354  69.399  1.00  0.00    -0.250 C  
HETATM   30  C   UNL     1     -10.534   9.797  70.598  1.00  0.00    -0.289 C  
HETATM   31  O   UNL     1     -11.068   9.548  71.671  1.00  0.00    -0.371 OA 
HETATM   32  O   UNL     1      -9.220   9.552  70.395  1.00  0.00    -0.242 OA 
ENDBRANCH   5  29
TORSDOF 9
ENDMDL
MODEL      187
REMARK 921   NORMALIZED FREE ENERGY PREDICTED BY IDOCK:   -3.97 KCAL/MOL
REMARK 922        TOTAL FREE ENERGY PREDICTED BY IDOCK:   -8.22 KCAL/MOL
REMARK 923 INTER-LIGAND FREE ENERGY PREDICTED BY IDOCK:   -7.10 KCAL/MOL
REMARK 924 INTRA-LIGAND FREE ENERGY PREDICTED BY IDOCK:   -1.12 KCAL/MOL
REMARK 927      BINDING AFFINITY PREDICTED BY RF-SCORE:    0.00 PKD
ROOT
HETATM    1  C   UNL     1      -9.774   7.965  68.379  1.00  0.00    -0.160 C  
HETATM    2  C   UNL     1     -10.537   6.658  68.184  1.00  0.00    -0.294 C  
HETATM    3  O   UNL     1      -7.519   8.631  69.012  1.00  0.00    -0.085 OA 
HETATM    4  C   UNL     1      -8.723   3.061  70.539  1.00  0.00    -0.129 A  
HETATM    5  N   UNL     1      -8.603   7.313  70.558  1.00  0.00    -0.142 N  
HETATM    6  C   UNL     1     -10.915   5.976  69.486  1.00  0.00    -0.467 C  
HETATM    7  C   UNL     1      -8.498   7.926  69.289  1.00  0.00    -0.137 C  
HETATM    8  C   UNL     1      -7.584   5.112  71.108  1.00  0.00    -0.095 A  
HETATM    9  C   UNL     1      -9.738   5.210  70.027  1.00  0.00    -0.275 A  
HETATM   10  C   UNL     1      -9.775   3.805  70.016  1.00  0.00    -0.211 A  
HETATM   11  C   UNL     1      -7.630   3.716  71.092  1.00  0.00    -0.044 A  
HETATM   12  C   UNL     1      -8.621   5.874  70.551  1.00  0.00    -0.136 A  
ENDROOT
BRANCH   1  13
HETATM   13  N   UNL     1      -9.367   8.503  67.058  1.00  0.00    -0.153 NA 
HETATM   14  H   UNL     1      -8.558   8.126  66.565  1.00  0.00     0.000 HD 
BRANCH  13  15
HETATM   15  C   UNL     1     -10.168   9.604  66.478  1.00  0.00    -0.224 C  
BRANCH  15  16
HETATM   16  C   UNL     1     -10.921  10.467  67.509  1.00  0.00    -0.365 C  
BRANCH  16  17
HETATM   17  C   UNL     1      -9.986  11.421  68.274  1.00  0.00    -0.203 C  
BRANCH  17  18
HETATM   18  C   UNL     1     -10.356  12.867  68.050  1.00  0.00    -0.230 A  
HETATM   19  C   UNL     1      -9.474  13.892  68.420  1.00  0.00    -0.211 A  
HETATM   20  C   UNL     1     -11.080  15.558  67.721  1.00  0.00    -0.315 A  
HETATM   21  C   UNL     1      -9.836  15.231  68.254  1.00  0.00    -0.218 A  
HETATM   22  C   UNL     1     -11.959  14.544  67.337  1.00  0.00    -0.367 A  
HETATM   23  C   UNL     1     -11.598  13.207  67.499  1.00  0.00    -0.398 A  
ENDBRANCH  17  18
ENDBRANCH  16  17
ENDBRANCH  15  16
BRANCH  15  24
HETATM   24  C   UNL     1      -9.197  10.526  65.703  1.00  0.00    -0.186 C  
HETATM   25  O   UNL     1      -7.978  10.424  65.731  1.00  0.00    -0.142 OA 
BRANCH  24  26
HETATM   26  O   UNL     1      -9.895  11.506  65.058  1.00  0.00    -0.245 OA 
BRANCH  26  27
HETATM   27  C   UNL     1     -10.434  11.138  63.777  1.00  0.00    -0.381 C  
HETATM   28  C   UNL     1      -9.356  11.263  62.714  1.00  0.00    -0.362 C  
ENDBRANCH  26  27
ENDBRANCH  24  26
ENDBRANCH  15  24
ENDBRANCH  13  15
ENDBRANCH   1  13
BRANCH   5  29
HETATM   29  C   UNL     1      -7.803   7.996  71.595  1.00  0.00    -0.103 C  
HETATM   30  C   UNL     1      -8.496   8.252  72.932  1.00  0.00    -0.194 C  
HETATM   31  O   UNL     1      -7.948   8.820  73.868  1.00  0.00    -0.394 OA 
HETATM   32  O   UNL     1      -9.783   7.846  73.014  1.00  0.00    -0.237 OA 
ENDBRANCH   5  29
TORSDOF 9
ENDMDL
MODEL      188
REMARK 921   NORMALIZED FREE ENERGY PREDICTED BY IDOCK:   -3.97 KCAL/MOL
REMARK 922        TOTAL FREE ENERGY PREDICTED BY IDOCK:   -8.21 KCAL/MOL
REMARK 923 INTER-LIGAND FREE ENERGY PREDICTED BY IDOCK:   -7.35 KCAL/MOL
REMARK 924 INTRA-LIGAND FREE ENERGY PREDICTED BY IDOCK:   -0.86 KCAL/MOL
REMARK 927      BINDING AFFINITY PREDICTED BY RF-SCORE:    0.00 PKD
ROOT
HETATM    1  C   UNL     1      -7.586  11.462  67.244  1.00  0.00    -0.138 C  
HETATM    2  C   UNL     1      -7.475  11.568  68.762  1.00  0.00    -0.119 C  
HETATM    3  O   UNL     1      -9.258  10.735  65.630  1.00  0.00    -0.184 OA 
HETATM    4  C   UNL     1     -10.343   8.690  71.056  1.00  0.00    -0.275 A  
HETATM    5  N   UNL     1      -8.656   9.140  67.178  1.00  0.00    -0.120 N  
HETATM    6  C   UNL     1      -7.269  10.231  69.450  1.00  0.00    -0.104 C  
HETATM    7  C   UNL     1      -8.642  10.457  66.668  1.00  0.00    -0.125 C  
HETATM    8  C   UNL     1     -10.436   8.268  68.681  1.00  0.00    -0.199 A  
HETATM    9  C   UNL     1      -8.585   9.518  69.595  1.00  0.00    -0.189 A  
HETATM   10  C   UNL     1      -9.145   9.374  70.875  1.00  0.00    -0.220 A  
HETATM   11  C   UNL     1     -10.985   8.130  69.958  1.00  0.00    -0.199 A  
HETATM   12  C   UNL     1      -9.247   8.986  68.480  1.00  0.00    -0.136 A  
ENDROOT
BRANCH   1  13
HETATM   13  N   UNL     1      -7.881  12.799  66.674  1.00  0.00    -0.353 NA 
HETATM   14  H   UNL     1      -7.166  13.325  66.173  1.00  0.00     0.000 HD 
BRANCH  13  15
HETATM   15  C   UNL     1      -9.244  13.347  66.854  1.00  0.00    -0.248 C  
BRANCH  15  16
HETATM   16  C   UNL     1      -9.960  12.887  68.139  1.00  0.00    -0.234 C  
BRANCH  16  17
HETATM   17  C   UNL     1     -11.327  13.570  68.328  1.00  0.00    -0.328 C  
BRANCH  17  18
HETATM   18  C   UNL     1     -11.999  13.133  69.606  1.00  0.00    -0.370 A  
HETATM   19  C   UNL     1     -12.547  14.082  70.481  1.00  0.00    -0.399 A  
HETATM   20  C   UNL     1     -13.167  12.331  72.028  1.00  0.00    -0.508 A  
HETATM   21  C   UNL     1     -13.129  13.681  71.686  1.00  0.00    -0.455 A  
HETATM   22  C   UNL     1     -12.635  11.379  71.158  1.00  0.00    -0.490 A  
HETATM   23  C   UNL     1     -12.057  11.778  69.953  1.00  0.00    -0.359 A  
ENDBRANCH  17  18
ENDBRANCH  16  17
ENDBRANCH  15  16
BRANCH  15  24
HETATM   24  C   UNL     1      -9.122  14.888  66.901  1.00  0.00    -0.250 C  
HETATM   25  O   UNL     1      -9.703  15.651  66.141  1.00  0.00    -0.269 OA 
BRANCH  24  26
HETATM   26  O   UNL     1      -8.218  15.258  67.855  1.00  0.00    -0.137 OA 
BRANCH  26  27
HETATM   27  C   UNL     1      -8.634  16.329  68.718  1.00  0.00    -0.240 C  
HETATM   28  C   UNL     1      -7.737  17.535  68.504  1.00  0.00    -0.272 C  
ENDBRANCH  26  27
ENDBRANCH  24  26
ENDBRANCH  15  24
ENDBRANCH  13  15
ENDBRANCH   1  13
BRANCH   5  29
HETATM   29  C   UNL     1      -8.965   8.127  66.147  1.00  0.00    -0.178 C  
HETATM   30  C   UNL     1      -7.777   7.359  65.569  1.00  0.00    -0.107 C  
HETATM   31  O   UNL     1      -7.897   6.504  64.701  1.00  0.00    -0.102 OA 
HETATM   32  O   UNL     1      -6.562   7.709  66.047  1.00  0.00    -0.045 OA 
ENDBRANCH   5  29
TORSDOF 9
ENDMDL
MODEL      189
REMARK 921   NORMALIZED FREE ENERGY PREDICTED BY IDOCK:   -3.96 KCAL/MOL
REMARK 922        TOTAL FREE ENERGY PREDICTED BY IDOCK:   -8.19 KCAL/MOL
REMARK 923 INTER-LIGAND FREE ENERGY PREDICTED BY IDOCK:   -6.63 KCAL/MOL
REMARK 924 INTRA-LIGAND FREE ENERGY PREDICTED BY IDOCK:   -1.56 KCAL/MOL
REMARK 927      BINDING AFFINITY PREDICTED BY RF-SCORE:    0.00 PKD
ROOT
HETATM    1  C   UNL     1      -9.044   9.960  67.417  1.00  0.00    -0.134 C  
HETATM    2  C   UNL     1      -9.196   8.753  66.495  1.00  0.00    -0.228 C  
HETATM    3  O   UNL     1      -8.639  10.349  69.786  1.00  0.00    -0.118 OA 
HETATM    4  C   UNL     1     -10.529   4.866  68.706  1.00  0.00     0.050 A  
HETATM    5  N   UNL     1     -10.500   9.074  69.324  1.00  0.00    -0.226 N  
HETATM    6  C   UNL     1     -10.533   8.048  66.636  1.00  0.00    -0.199 C  
HETATM    7  C   UNL     1      -9.311   9.738  68.945  1.00  0.00    -0.158 C  
HETATM    8  C   UNL     1     -10.551   6.752  70.213  1.00  0.00    -0.251 A  
HETATM    9  C   UNL     1     -10.510   7.135  67.831  1.00  0.00    -0.268 A  
HETATM   10  C   UNL     1     -10.514   5.744  67.627  1.00  0.00    -0.299 A  
HETATM   11  C   UNL     1     -10.556   5.371  70.000  1.00  0.00    -0.354 A  
HETATM   12  C   UNL     1     -10.500   7.648  69.135  1.00  0.00    -0.214 A  
ENDROOT
BRANCH   1  13
HETATM   13  N   UNL     1      -7.678  10.521  67.277  1.00  0.00    -0.105 NA 
HETATM   14  H   UNL     1      -6.857   9.973  67.535  1.00  0.00     0.000 HD 
BRANCH  13  15
HETATM   15  C   UNL     1      -7.540  11.898  66.754  1.00  0.00    -0.034 C  
BRANCH  15  16
HETATM   16  C   UNL     1      -8.764  12.804  66.993  1.00  0.00    -0.197 C  
BRANCH  16  17
HETATM   17  C   UNL     1      -8.752  13.454  68.388  1.00  0.00    -0.134 C  
BRANCH  17  18
HETATM   18  C   UNL     1      -9.314  14.854  68.358  1.00  0.00    -0.197 A  
HETATM   19  C   UNL     1      -8.835  15.792  67.431  1.00  0.00    -0.199 A  
HETATM   20  C   UNL     1     -10.289  17.485  68.361  1.00  0.00    -0.378 A  
HETATM   21  C   UNL     1      -9.323  17.101  67.434  1.00  0.00    -0.234 A  
HETATM   22  C   UNL     1     -10.780  16.555  69.278  1.00  0.00    -0.331 A  
HETATM   23  C   UNL     1     -10.296  15.248  69.275  1.00  0.00    -0.259 A  
ENDBRANCH  17  18
ENDBRANCH  16  17
ENDBRANCH  15  16
BRANCH  15  24
HETATM   24  C   UNL     1      -6.324  12.543  67.459  1.00  0.00    -0.154 C  
HETATM   25  O   UNL     1      -5.806  13.597  67.117  1.00  0.00    -0.256 OA 
BRANCH  24  26
HETATM   26  O   UNL     1      -5.874  11.728  68.458  1.00  0.00    -0.049 OA 
BRANCH  26  27
HETATM   27  C   UNL     1      -5.184  12.390  69.531  1.00  0.00    -0.072 C  
HETATM   28  C   UNL     1      -5.363  11.601  70.816  1.00  0.00    -0.141 C  
ENDBRANCH  26  27
ENDBRANCH  24  26
ENDBRANCH  15  24
ENDBRANCH  13  15
ENDBRANCH   1  13
BRANCH   5  29
HETATM   29  C   UNL     1     -11.089   9.614  70.567  1.00  0.00    -0.308 C  
HETATM   30  C   UNL     1     -12.170  10.681  70.402  1.00  0.00    -0.345 C  
HETATM   31  O   UNL     1     -12.727  11.217  71.351  1.00  0.00    -0.405 OA 
HETATM   32  O   UNL     1     -12.454  11.037  69.129  1.00  0.00    -0.432 OA 
ENDBRANCH   5  29
TORSDOF 9
ENDMDL
MODEL      190
REMARK 921   NORMALIZED FREE ENERGY PREDICTED BY IDOCK:   -3.88 KCAL/MOL
REMARK 922        TOTAL FREE ENERGY PREDICTED BY IDOCK:   -8.08 KCAL/MOL
REMARK 923 INTER-LIGAND FREE ENERGY PREDICTED BY IDOCK:   -6.38 KCAL/MOL
REMARK 924 INTRA-LIGAND FREE ENERGY PREDICTED BY IDOCK:   -1.70 KCAL/MOL
REMARK 927      BINDING AFFINITY PREDICTED BY RF-SCORE:    0.00 PKD
ROOT
HETATM    1  C   UNL     1      -9.386   7.172  68.115  1.00  0.00    -0.129 C  
HETATM    2  C   UNL     1      -8.854   8.452  67.476  1.00  0.00    -0.139 C  
HETATM    3  O   UNL     1     -11.468   6.426  69.133  1.00  0.00    -0.364 OA 
HETATM    4  C   UNL     1     -11.089  12.307  68.860  1.00  0.00    -0.291 A  
HETATM    5  N   UNL     1     -10.527   8.282  70.117  1.00  0.00    -0.220 N  
HETATM    6  C   UNL     1      -8.520   9.538  68.481  1.00  0.00    -0.119 C  
HETATM    7  C   UNL     1     -10.601   7.309  69.096  1.00  0.00    -0.208 C  
HETATM    8  C   UNL     1     -11.853  10.386  70.107  1.00  0.00    -0.379 A  
HETATM    9  C   UNL     1      -9.772  10.263  68.892  1.00  0.00    -0.193 A  
HETATM   10  C   UNL     1      -9.961  11.591  68.473  1.00  0.00    -0.207 A  
HETATM   11  C   UNL     1     -12.032  11.706  69.685  1.00  0.00    -0.390 A  
HETATM   12  C   UNL     1     -10.739   9.641  69.694  1.00  0.00    -0.240 A  
ENDROOT
BRANCH   1  13
HETATM   13  N   UNL     1      -9.773   6.212  67.053  1.00  0.00    -0.135 NA 
HETATM   14  H   UNL     1     -10.550   6.412  66.422  1.00  0.00     0.000 HD 
BRANCH  13  15
HETATM   15  C   UNL     1      -9.001   4.955  66.935  1.00  0.00    -0.109 C  
BRANCH  15  16
HETATM   16  C   UNL     1      -9.648   3.733  67.615  1.00  0.00    -0.199 C  
BRANCH  16  17
HETATM   17  C   UNL     1      -8.688   3.021  68.584  1.00  0.00    -0.143 C  
BRANCH  17  18
HETATM   18  C   UNL     1      -9.200   3.050  70.003  1.00  0.00    -0.216 A  
HETATM   19  C   UNL     1      -9.448   1.855  70.694  1.00  0.00    -0.179 A  
HETATM   20  C   UNL     1     -10.241   3.100  72.609  1.00  0.00    -0.229 A  
HETATM   21  C   UNL     1      -9.966   1.882  71.991  1.00  0.00    -0.220 A  
HETATM   22  C   UNL     1      -9.985   4.294  71.934  1.00  0.00    -0.255 A  
HETATM   23  C   UNL     1      -9.465   4.269  70.640  1.00  0.00    -0.241 A  
ENDBRANCH  17  18
ENDBRANCH  16  17
ENDBRANCH  15  16
BRANCH  15  24
HETATM   24  C   UNL     1      -8.855   4.640  65.428  1.00  0.00    -0.141 C  
HETATM   25  O   UNL     1      -8.876   3.513  64.952  1.00  0.00    -0.115 OA 
BRANCH  24  26
HETATM   26  O   UNL     1      -8.620   5.789  64.729  1.00  0.00    -0.130 OA 
BRANCH  26  27
HETATM   27  C   UNL     1      -7.364   5.842  64.032  1.00  0.00    -0.061 C  
HETATM   28  C   UNL     1      -6.309   6.467  64.928  1.00  0.00    -0.041 C  
ENDBRANCH  26  27
ENDBRANCH  24  26
ENDBRANCH  15  24
ENDBRANCH  13  15
ENDBRANCH   1  13
BRANCH   5  29
HETATM   29  C   UNL     1     -11.150   7.839  71.382  1.00  0.00    -0.238 C  
HETATM   30  C   UNL     1     -10.326   8.036  72.653  1.00  0.00    -0.329 C  
HETATM   31  O   UNL     1     -10.722   7.700  73.761  1.00  0.00    -0.275 OA 
HETATM   32  O   UNL     1      -9.098   8.574  72.480  1.00  0.00    -0.244 OA 
ENDBRANCH   5  29
TORSDOF 9
ENDMDL
MODEL      191
REMARK 921   NORMALIZED FREE ENERGY PREDICTED BY IDOCK:   -3.85 KCAL/MOL
REMARK 922        TOTAL FREE ENERGY PREDICTED BY IDOCK:   -8.03 KCAL/MOL
REMARK 923 INTER-LIGAND FREE ENERGY PREDICTED BY IDOCK:   -6.75 KCAL/MOL
REMARK 924 INTRA-LIGAND FREE ENERGY PREDICTED BY IDOCK:   -1.28 KCAL/MOL
REMARK 927      BINDING AFFINITY PREDICTED BY RF-SCORE:    0.00 PKD
ROOT
HETATM    1  C   UNL     1      -9.883   7.619  68.737  1.00  0.00    -0.164 C  
HETATM    2  C   UNL     1     -10.096   9.130  68.692  1.00  0.00    -0.212 C  
HETATM    3  O   UNL     1     -11.174   5.661  69.390  1.00  0.00    -0.228 OA 
HETATM    4  C   UNL     1     -13.379  10.649  71.640  1.00  0.00    -0.407 A  
HETATM    5  N   UNL     1     -10.910   7.236  71.048  1.00  0.00    -0.236 N  
HETATM    6  C   UNL     1     -10.037   9.792  70.056  1.00  0.00    -0.301 C  
HETATM    7  C   UNL     1     -10.791   6.793  69.712  1.00  0.00    -0.272 C  
HETATM    8  C   UNL     1     -12.965   8.293  71.968  1.00  0.00    -0.355 A  
HETATM    9  C   UNL     1     -11.352   9.626  70.767  1.00  0.00    -0.409 A  
HETATM   10  C   UNL     1     -12.171  10.753  70.958  1.00  0.00    -0.485 A  
HETATM   11  C   UNL     1     -13.772   9.419  72.153  1.00  0.00    -0.490 A  
HETATM   12  C   UNL     1     -11.763   8.377  71.250  1.00  0.00    -0.285 A  
ENDROOT
BRANCH   1  13
HETATM   13  N   UNL     1     -10.055   7.054  67.377  1.00  0.00    -0.177 NA 
HETATM   14  H   UNL     1     -10.978   6.993  66.947  1.00  0.00     0.000 HD 
BRANCH  13  15
HETATM   15  C   UNL     1      -8.849   6.580  66.663  1.00  0.00    -0.132 C  
BRANCH  15  16
HETATM   16  C   UNL     1      -9.125   5.590  65.514  1.00  0.00    -0.101 C  
BRANCH  16  17
HETATM   17  C   UNL     1      -9.929   4.361  65.977  1.00  0.00    -0.256 C  
BRANCH  17  18
HETATM   18  C   UNL     1      -9.084   3.416  66.795  1.00  0.00    -0.183 A  
HETATM   19  C   UNL     1      -9.475   3.056  68.093  1.00  0.00    -0.219 A  
HETATM   20  C   UNL     1      -7.468   1.732  68.354  1.00  0.00    -0.046 A  
HETATM   21  C   UNL     1      -8.669   2.217  68.867  1.00  0.00    -0.126 A  
HETATM   22  C   UNL     1      -7.078   2.075  67.059  1.00  0.00    -0.047 A  
HETATM   23  C   UNL     1      -7.883   2.910  66.284  1.00  0.00    -0.081 A  
ENDBRANCH  17  18
ENDBRANCH  16  17
ENDBRANCH  15  16
BRANCH  15  24
HETATM   24  C   UNL     1      -8.147   7.821  66.063  1.00  0.00    -0.117 C  
HETATM   25  O   UNL     1      -8.560   8.449  65.097  1.00  0.00    -0.175 OA 
BRANCH  24  26
HETATM   26  O   UNL     1      -6.972   8.058  66.717  1.00  0.00    -0.070 OA 
BRANCH  26  27
HETATM   27  C   UNL     1      -6.468   6.961  67.497  1.00  0.00    -0.050 C  
HETATM   28  C   UNL     1      -6.125   7.443  68.895  1.00  0.00    -0.030 C  
ENDBRANCH  26  27
ENDBRANCH  24  26
ENDBRANCH  15  24
ENDBRANCH  13  15
ENDBRANCH   1  13
BRANCH   5  29
HETATM   29  C   UNL     1     -10.991   6.124  72.018  1.00  0.00    -0.258 C  
HETATM   30  C   UNL     1     -10.431   6.394  73.414  1.00  0.00    -0.263 C  
HETATM   31  O   UNL     1     -10.426   5.553  74.303  1.00  0.00    -0.276 OA 
HETATM   32  O   UNL     1      -9.895   7.621  73.604  1.00  0.00    -0.301 OA 
ENDBRANCH   5  29
TORSDOF 9
ENDMDL
MODEL      192
REMARK 921   NORMALIZED FREE ENERGY PREDICTED BY IDOCK:   -3.85 KCAL/MOL
REMARK 922        TOTAL FREE ENERGY PREDICTED BY IDOCK:   -8.03 KCAL/MOL
REMARK 923 INTER-LIGAND FREE ENERGY PREDICTED BY IDOCK:   -6.93 KCAL/MOL
REMARK 924 INTRA-LIGAND FREE ENERGY PREDICTED BY IDOCK:   -1.10 KCAL/MOL
REMARK 927      BINDING AFFINITY PREDICTED BY RF-SCORE:    0.00 PKD
ROOT
HETATM    1  C   UNL     1      -9.319  11.142  68.861  1.00  0.00    -0.106 C  
HETATM    2  C   UNL     1     -10.729  10.786  69.324  1.00  0.00    -0.268 C  
HETATM    3  O   UNL     1      -7.506  10.034  67.672  1.00  0.00    -0.089 OA 
HETATM    4  C   UNL     1     -11.431   6.203  69.845  1.00  0.00    -0.371 A  
HETATM    5  N   UNL     1      -8.201   8.958  69.585  1.00  0.00    -0.109 N  
HETATM    6  C   UNL     1     -10.758   9.874  70.536  1.00  0.00    -0.382 C  
HETATM    7  C   UNL     1      -8.329   9.957  68.594  1.00  0.00    -0.110 C  
HETATM    8  C   UNL     1      -9.114   6.657  69.343  1.00  0.00    -0.143 A  
HETATM    9  C   UNL     1     -10.536   8.448  70.113  1.00  0.00    -0.230 A  
HETATM   10  C   UNL     1     -11.604   7.538  70.193  1.00  0.00    -0.046 A  
HETATM   11  C   UNL     1     -10.182   5.761  69.427  1.00  0.00    -0.301 A  
HETATM   12  C   UNL     1      -9.284   8.014  69.657  1.00  0.00    -0.152 A  
ENDROOT
BRANCH   1  13
HETATM   13  N   UNL     1      -9.394  11.952  67.621  1.00  0.00    -0.178 NA 
HETATM   14  H   UNL     1      -8.571  12.092  67.035  1.00  0.00     0.000 HD 
BRANCH  13  15
HETATM   15  C   UNL     1     -10.697  12.552  67.259  1.00  0.00    -0.233 C  
BRANCH  15  16
HETATM   16  C   UNL     1     -10.613  13.978  66.679  1.00  0.00    -0.274 C  
BRANCH  16  17
HETATM   17  C   UNL     1      -9.164  14.486  66.574  1.00  0.00    -0.282 C  
BRANCH  17  18
HETATM   18  C   UNL     1      -9.097  15.993  66.579  1.00  0.00    -0.319 A  
HETATM   19  C   UNL     1     -10.274  16.756  66.622  1.00  0.00    -0.310 A  
HETATM   20  C   UNL     1      -8.981  18.795  66.496  1.00  0.00    -0.320 A  
HETATM   21  C   UNL     1     -10.213  18.151  66.582  1.00  0.00    -0.388 A  
HETATM   22  C   UNL     1      -7.806  18.044  66.467  1.00  0.00    -0.292 A  
HETATM   23  C   UNL     1      -7.864  16.652  66.510  1.00  0.00    -0.342 A  
ENDBRANCH  17  18
ENDBRANCH  16  17
ENDBRANCH  15  16
BRANCH  15  24
HETATM   24  C   UNL     1     -11.347  11.641  66.191  1.00  0.00    -0.209 C  
HETATM   25  O   UNL     1     -10.978  10.502  65.937  1.00  0.00     0.019 OA 
BRANCH  24  26
HETATM   26  O   UNL     1     -12.328  12.321  65.528  1.00  0.00    -0.602 OA 
BRANCH  26  27
HETATM   27  C   UNL     1     -12.609  11.856  64.197  1.00  0.00    -0.223 C  
HETATM   28  C   UNL     1     -11.903  12.742  63.186  1.00  0.00    -0.314 C  
ENDBRANCH  26  27
ENDBRANCH  24  26
ENDBRANCH  15  24
ENDBRANCH  13  15
ENDBRANCH   1  13
BRANCH   5  29
HETATM   29  C   UNL     1      -6.820   8.448  69.714  1.00  0.00    -0.043 C  
HETATM   30  C   UNL     1      -6.266   8.332  71.133  1.00  0.00    -0.036 C  
HETATM   31  O   UNL     1      -5.133   7.936  71.374  1.00  0.00    -0.030 OA 
HETATM   32  O   UNL     1      -7.094   8.735  72.122  1.00  0.00    -0.244 OA 
ENDBRANCH   5  29
TORSDOF 9
ENDMDL
MODEL      193
REMARK 921   NORMALIZED FREE ENERGY PREDICTED BY IDOCK:   -3.83 KCAL/MOL
REMARK 922        TOTAL FREE ENERGY PREDICTED BY IDOCK:   -8.01 KCAL/MOL
REMARK 923 INTER-LIGAND FREE ENERGY PREDICTED BY IDOCK:   -6.99 KCAL/MOL
REMARK 924 INTRA-LIGAND FREE ENERGY PREDICTED BY IDOCK:   -1.01 KCAL/MOL
REMARK 927      BINDING AFFINITY PREDICTED BY RF-SCORE:    0.00 PKD
ROOT
HETATM    1  C   UNL     1      -8.717  14.250  68.194  1.00  0.00    -0.174 C  
HETATM    2  C   UNL     1      -7.512  15.186  68.155  1.00  0.00    -0.118 C  
HETATM    3  O   UNL     1     -11.041  14.312  67.468  1.00  0.00    -0.282 OA 
HETATM    4  C   UNL     1      -8.653  19.697  67.803  1.00  0.00    -0.366 A  
HETATM    5  N   UNL     1     -10.439  16.000  68.914  1.00  0.00    -0.230 N  
HETATM    6  C   UNL     1      -7.590  16.317  69.164  1.00  0.00    -0.227 C  
HETATM    7  C   UNL     1     -10.139  14.902  68.078  1.00  0.00    -0.221 C  
HETATM    8  C   UNL     1     -10.629  18.340  68.093  1.00  0.00    -0.304 A  
HETATM    9  C   UNL     1      -8.465  17.420  68.636  1.00  0.00    -0.257 A  
HETATM   10  C   UNL     1      -7.875  18.640  68.263  1.00  0.00    -0.331 A  
HETATM   11  C   UNL     1     -10.032  19.549  67.726  1.00  0.00    -0.494 A  
HETATM   12  C   UNL     1      -9.852  17.254  68.525  1.00  0.00    -0.307 A  
ENDROOT
BRANCH   1  13
HETATM   13  N   UNL     1      -8.597  13.242  67.113  1.00  0.00    -0.255 NA 
HETATM   14  H   UNL     1      -8.599  13.521  66.132  1.00  0.00     0.000 HD 
BRANCH  13  15
HETATM   15  C   UNL     1      -8.473  11.819  67.499  1.00  0.00    -0.154 C  
BRANCH  15  16
HETATM   16  C   UNL     1      -9.432  10.864  66.762  1.00  0.00    -0.200 C  
BRANCH  16  17
HETATM   17  C   UNL     1      -9.523  11.168  65.256  1.00  0.00    -0.257 C  
BRANCH  17  18
HETATM   18  C   UNL     1     -10.576  12.207  64.957  1.00  0.00    -0.330 A  
HETATM   19  C   UNL     1     -11.922  11.964  65.267  1.00  0.00    -0.084 A  
HETATM   20  C   UNL     1     -12.548  14.097  64.318  1.00  0.00    -0.162 A  
HETATM   21  C   UNL     1     -12.902  12.907  64.949  1.00  0.00    -0.370 A  
HETATM   22  C   UNL     1     -11.210  14.353  64.018  1.00  0.00     0.242 A  
HETATM   23  C   UNL     1     -10.230  13.414  64.338  1.00  0.00    -0.262 A  
ENDBRANCH  17  18
ENDBRANCH  16  17
ENDBRANCH  15  16
BRANCH  15  24
HETATM   24  C   UNL     1      -7.025  11.377  67.184  1.00  0.00    -0.128 C  
HETATM   25  O   UNL     1      -6.053  12.120  67.214  1.00  0.00    -0.128 OA 
BRANCH  24  26
HETATM   26  O   UNL     1      -7.008  10.068  66.794  1.00  0.00    -0.086 OA 
BRANCH  26  27
HETATM   27  C   UNL     1      -5.768   9.375  67.013  1.00  0.00    -0.048 C  
HETATM   28  C   UNL     1      -5.745   8.799  68.417  1.00  0.00    -0.038 C  
ENDBRANCH  26  27
ENDBRANCH  24  26
ENDBRANCH  15  24
ENDBRANCH  13  15
ENDBRANCH   1  13
BRANCH   5  29
HETATM   29  C   UNL     1     -11.840  16.000  69.383  1.00  0.00    -0.241 C  
HETATM   30  C   UNL     1     -12.070  15.626  70.847  1.00  0.00    -0.407 C  
HETATM   31  O   UNL     1     -13.183  15.576  71.354  1.00  0.00    -0.467 OA 
HETATM   32  O   UNL     1     -10.962  15.308  71.552  1.00  0.00    -0.305 OA 
ENDBRANCH   5  29
TORSDOF 9
ENDMDL
MODEL      194
REMARK 921   NORMALIZED FREE ENERGY PREDICTED BY IDOCK:   -3.81 KCAL/MOL
REMARK 922        TOTAL FREE ENERGY PREDICTED BY IDOCK:   -7.98 KCAL/MOL
REMARK 923 INTER-LIGAND FREE ENERGY PREDICTED BY IDOCK:   -8.64 KCAL/MOL
REMARK 924 INTRA-LIGAND FREE ENERGY PREDICTED BY IDOCK:    0.66 KCAL/MOL
REMARK 927      BINDING AFFINITY PREDICTED BY RF-SCORE:    0.00 PKD
ROOT
HETATM    1  C   UNL     1     -11.597  15.327  68.470  1.00  0.00    -0.352 C  
HETATM    2  C   UNL     1     -10.555  15.093  69.561  1.00  0.00    -0.277 C  
HETATM    3  O   UNL     1     -11.627  15.470  66.040  1.00  0.00    -0.019 OA 
HETATM    4  C   UNL     1      -6.207  16.180  68.261  1.00  0.00    -0.121 A  
HETATM    5  N   UNL     1     -10.216  16.966  67.075  1.00  0.00    -0.292 N  
HETATM    6  C   UNL     1      -9.667  16.296  69.819  1.00  0.00     0.082 C  
HETATM    7  C   UNL     1     -11.085  15.852  67.085  1.00  0.00    -0.148 C  
HETATM    8  C   UNL     1      -7.790  16.811  66.550  1.00  0.00    -0.338 A  
HETATM    9  C   UNL     1      -8.575  16.361  68.787  1.00  0.00    -0.250 A  
HETATM   10  C   UNL     1      -7.251  16.096  69.177  1.00  0.00    -0.212 A  
HETATM   11  C   UNL     1      -6.477  16.545  66.948  1.00  0.00    -0.190 A  
HETATM   12  C   UNL     1      -8.856  16.694  67.455  1.00  0.00    -0.196 A  
ENDROOT
BRANCH   1  13
HETATM   13  N   UNL     1     -12.348  14.072  68.224  1.00  0.00    -0.508 NA 
HETATM   14  H   UNL     1     -13.341  14.091  67.993  1.00  0.00     0.000 HD 
BRANCH  13  15
HETATM   15  C   UNL     1     -11.614  12.791  68.324  1.00  0.00    -0.334 C  
BRANCH  15  16
HETATM   16  C   UNL     1     -10.084  12.910  68.176  1.00  0.00    -0.240 C  
BRANCH  16  17
HETATM   17  C   UNL     1      -9.454  11.657  67.544  1.00  0.00    -0.173 C  
BRANCH  17  18
HETATM   18  C   UNL     1      -9.689  11.602  66.054  1.00  0.00    -0.257 A  
HETATM   19  C   UNL     1      -9.255  10.497  65.307  1.00  0.00    -0.238 A  
HETATM   20  C   UNL     1     -10.042  11.538  63.271  1.00  0.00    -0.439 A  
HETATM   21  C   UNL     1      -9.433  10.467  63.921  1.00  0.00    -0.338 A  
HETATM   22  C   UNL     1     -10.489  12.635  64.009  1.00  0.00    -0.443 A  
HETATM   23  C   UNL     1     -10.315  12.665  65.392  1.00  0.00    -0.311 A  
ENDBRANCH  17  18
ENDBRANCH  16  17
ENDBRANCH  15  16
BRANCH  15  24
HETATM   24  C   UNL     1     -11.912  12.192  69.718  1.00  0.00    -0.302 C  
HETATM   25  O   UNL     1     -11.934  12.837  70.757  1.00  0.00    -0.251 OA 
BRANCH  24  26
HETATM   26  O   UNL     1     -12.066  10.838  69.624  1.00  0.00    -0.308 OA 
BRANCH  26  27
HETATM   27  C   UNL     1     -12.807  10.226  70.692  1.00  0.00    -0.285 C  
HETATM   28  C   UNL     1     -11.920   9.237  71.428  1.00  0.00    -0.424 C  
ENDBRANCH  26  27
ENDBRANCH  24  26
ENDBRANCH  15  24
ENDBRANCH  13  15
ENDBRANCH   1  13
BRANCH   5  29
HETATM   29  C   UNL     1     -10.454  17.871  65.931  1.00  0.00    -0.253 C  
HETATM   30  C   UNL     1     -10.643  19.351  66.261  1.00  0.00    -0.475 C  
HETATM   31  O   UNL     1     -10.859  20.201  65.406  1.00  0.00    -0.307 OA 
HETATM   32  O   UNL     1     -10.597  19.671  67.573  1.00  0.00    -0.442 OA 
ENDBRANCH   5  29
TORSDOF 9
ENDMDL
MODEL      195
REMARK 921   NORMALIZED FREE ENERGY PREDICTED BY IDOCK:   -3.80 KCAL/MOL
REMARK 922        TOTAL FREE ENERGY PREDICTED BY IDOCK:   -7.95 KCAL/MOL
REMARK 923 INTER-LIGAND FREE ENERGY PREDICTED BY IDOCK:   -6.93 KCAL/MOL
REMARK 924 INTRA-LIGAND FREE ENERGY PREDICTED BY IDOCK:   -1.01 KCAL/MOL
REMARK 927      BINDING AFFINITY PREDICTED BY RF-SCORE:    0.00 PKD
ROOT
HETATM    1  C   UNL     1     -11.311  11.390  67.592  1.00  0.00    -0.290 C  
HETATM    2  C   UNL     1     -10.715  12.565  68.363  1.00  0.00    -0.259 C  
HETATM    3  O   UNL     1     -10.538   9.238  66.755  1.00  0.00    -0.221 OA 
HETATM    4  C   UNL     1      -6.077  12.898  67.982  1.00  0.00    -0.107 A  
HETATM    5  N   UNL     1      -9.349  11.053  65.986  1.00  0.00    -0.194 N  
HETATM    6  C   UNL     1      -9.805  13.442  67.523  1.00  0.00    -0.227 C  
HETATM    7  C   UNL     1     -10.315  10.454  66.824  1.00  0.00    -0.235 C  
HETATM    8  C   UNL     1      -6.926  11.159  66.539  1.00  0.00    -0.126 A  
HETATM    9  C   UNL     1      -8.441  12.818  67.418  1.00  0.00    -0.191 A  
HETATM   10  C   UNL     1      -7.361  13.424  68.082  1.00  0.00    -0.117 A  
HETATM   11  C   UNL     1      -5.859  11.769  67.203  1.00  0.00    -0.136 A  
HETATM   12  C   UNL     1      -8.232  11.658  66.661  1.00  0.00    -0.140 A  
ENDROOT
BRANCH   1  13
HETATM   13  N   UNL     1     -12.102  10.541  68.515  1.00  0.00    -0.790 NA 
HETATM   14  H   UNL     1     -13.117  10.477  68.430  1.00  0.00     0.000 HD 
BRANCH  13  15
HETATM   15  C   UNL     1     -11.378   9.790  69.564  1.00  0.00    -0.083 C  
BRANCH  15  16
HETATM   16  C   UNL     1      -9.939  10.275  69.828  1.00  0.00    -0.222 C  
BRANCH  16  17
HETATM   17  C   UNL     1      -9.053   9.180  70.449  1.00  0.00    -0.270 C  
BRANCH  17  18
HETATM   18  C   UNL     1      -8.606   8.171  69.420  1.00  0.00    -0.135 A  
HETATM   19  C   UNL     1      -7.511   8.444  68.586  1.00  0.00    -0.093 A  
HETATM   20  C   UNL     1      -7.829   6.338  67.443  1.00  0.00    -0.101 A  
HETATM   21  C   UNL     1      -7.126   7.530  67.603  1.00  0.00    -0.085 A  
HETATM   22  C   UNL     1      -8.911   6.053  68.277  1.00  0.00    -0.111 A  
HETATM   23  C   UNL     1      -9.295   6.963  69.261  1.00  0.00    -0.144 A  
ENDBRANCH  17  18
ENDBRANCH  16  17
ENDBRANCH  15  16
BRANCH  15  24
HETATM   24  C   UNL     1     -12.180   9.938  70.879  1.00  0.00    -0.328 C  
HETATM   25  O   UNL     1     -12.406  11.005  71.434  1.00  0.00    -0.328 OA 
BRANCH  24  26
HETATM   26  O   UNL     1     -12.523   8.708  71.360  1.00  0.00    -0.309 OA 
BRANCH  26  27
HETATM   27  C   UNL     1     -12.162   8.458  72.729  1.00  0.00    -0.096 C  
HETATM   28  C   UNL     1     -11.182   7.300  72.797  1.00  0.00    -0.348 C  
ENDBRANCH  26  27
ENDBRANCH  24  26
ENDBRANCH  15  24
ENDBRANCH  13  15
ENDBRANCH   1  13
BRANCH   5  29
HETATM   29  C   UNL     1      -9.083  10.270  64.761  1.00  0.00    -0.219 C  
HETATM   30  C   UNL     1      -9.568  10.877  63.445  1.00  0.00    -0.332 C  
HETATM   31  O   UNL     1      -9.422  10.323  62.364  1.00  0.00    -0.291 OA 
HETATM   32  O   UNL     1     -10.214  12.060  63.547  1.00  0.00    -0.406 OA 
ENDBRANCH   5  29
TORSDOF 9
ENDMDL
MODEL      196
REMARK 921   NORMALIZED FREE ENERGY PREDICTED BY IDOCK:   -3.73 KCAL/MOL
REMARK 922        TOTAL FREE ENERGY PREDICTED BY IDOCK:   -7.85 KCAL/MOL
REMARK 923 INTER-LIGAND FREE ENERGY PREDICTED BY IDOCK:   -6.61 KCAL/MOL
REMARK 924 INTRA-LIGAND FREE ENERGY PREDICTED BY IDOCK:   -1.25 KCAL/MOL
REMARK 927      BINDING AFFINITY PREDICTED BY RF-SCORE:    0.00 PKD
ROOT
HETATM    1  C   UNL     1      -8.960   8.806  66.526  1.00  0.00    -0.148 C  
HETATM    2  C   UNL     1     -10.390   9.338  66.556  1.00  0.00    -0.270 C  
HETATM    3  O   UNL     1      -7.490   7.571  68.023  1.00  0.00    -0.099 OA 
HETATM    4  C   UNL     1     -12.046  10.015  70.866  1.00  0.00    -0.448 A  
HETATM    5  N   UNL     1      -8.310   9.542  68.887  1.00  0.00    -0.118 N  
HETATM    6  C   UNL     1     -10.558  10.576  67.419  1.00  0.00    -0.313 C  
HETATM    7  C   UNL     1      -8.265   8.529  67.903  1.00  0.00    -0.119 C  
HETATM    8  C   UNL     1      -9.711   9.403  70.937  1.00  0.00    -0.320 A  
HETATM    9  C   UNL     1     -10.672  10.183  68.866  1.00  0.00    -0.249 A  
HETATM   10  C   UNL     1     -11.907  10.334  69.519  1.00  0.00    -0.148 A  
HETATM   11  C   UNL     1     -10.944   9.557  71.577  1.00  0.00    -0.369 A  
HETATM   12  C   UNL     1      -9.567   9.686  69.571  1.00  0.00    -0.198 A  
ENDROOT
BRANCH   1  13
HETATM   13  N   UNL     1      -8.916   7.548  65.740  1.00  0.00    -0.355 NA 
HETATM   14  H   UNL     1      -8.794   7.566  64.728  1.00  0.00     0.000 HD 
BRANCH  13  15
HETATM   15  C   UNL     1      -9.056   6.268  66.469  1.00  0.00    -0.153 C  
BRANCH  15  16
HETATM   16  C   UNL     1     -10.510   5.821  66.716  1.00  0.00    -0.350 C  
BRANCH  16  17
HETATM   17  C   UNL     1     -11.033   6.255  68.097  1.00  0.00    -0.412 C  
BRANCH  17  18
HETATM   18  C   UNL     1     -10.372   5.483  69.213  1.00  0.00    -0.335 A  
HETATM   19  C   UNL     1     -10.325   6.012  70.512  1.00  0.00    -0.279 A  
HETATM   20  C   UNL     1      -9.065   4.094  71.270  1.00  0.00    -0.181 A  
HETATM   21  C   UNL     1      -9.674   5.318  71.534  1.00  0.00    -0.215 A  
HETATM   22  C   UNL     1      -9.119   3.554  69.985  1.00  0.00    -0.197 A  
HETATM   23  C   UNL     1      -9.771   4.244  68.964  1.00  0.00    -0.209 A  
ENDBRANCH  17  18
ENDBRANCH  16  17
ENDBRANCH  15  16
BRANCH  15  24
HETATM   24  C   UNL     1      -8.360   5.175  65.624  1.00  0.00    -0.123 C  
HETATM   25  O   UNL     1      -7.415   4.500  66.011  1.00  0.00    -0.083 OA 
BRANCH  24  26
HETATM   26  O   UNL     1      -8.900   5.135  64.371  1.00  0.00    -0.131 OA 
BRANCH  26  27
HETATM   27  C   UNL     1      -9.156   3.820  63.851  1.00  0.00    -0.123 C  
HETATM   28  C   UNL     1     -10.652   3.619  63.686  1.00  0.00    -0.279 C  
ENDBRANCH  26  27
ENDBRANCH  24  26
ENDBRANCH  15  24
ENDBRANCH  13  15
ENDBRANCH   1  13
BRANCH   5  29
HETATM   29  C   UNL     1      -7.068   9.625  69.685  1.00  0.00    -0.075 C  
HETATM   30  C   UNL     1      -6.409  11.000  69.778  1.00  0.00    -0.124 C  
HETATM   31  O   UNL     1      -5.372  11.200  70.396  1.00  0.00    -0.081 OA 
HETATM   32  O   UNL     1      -7.023  11.993  69.096  1.00  0.00    -0.104 OA 
ENDBRANCH   5  29
TORSDOF 9
ENDMDL
MODEL      197
REMARK 921   NORMALIZED FREE ENERGY PREDICTED BY IDOCK:   -3.72 KCAL/MOL
REMARK 922        TOTAL FREE ENERGY PREDICTED BY IDOCK:   -7.84 KCAL/MOL
REMARK 923 INTER-LIGAND FREE ENERGY PREDICTED BY IDOCK:   -6.57 KCAL/MOL
REMARK 924 INTRA-LIGAND FREE ENERGY PREDICTED BY IDOCK:   -1.26 KCAL/MOL
REMARK 927      BINDING AFFINITY PREDICTED BY RF-SCORE:    0.00 PKD
ROOT
HETATM    1  C   UNL     1      -9.579   8.076  67.987  1.00  0.00    -0.152 C  
HETATM    2  C   UNL     1      -9.454   9.386  67.215  1.00  0.00    -0.169 C  
HETATM    3  O   UNL     1      -8.187   6.124  68.416  1.00  0.00    -0.113 OA 
HETATM    4  C   UNL     1      -6.311   9.238  63.769  1.00  0.00    -0.091 A  
HETATM    5  N   UNL     1      -8.568   6.564  66.188  1.00  0.00    -0.140 N  
HETATM    6  C   UNL     1      -9.572   9.218  65.711  1.00  0.00    -0.341 C  
HETATM    7  C   UNL     1      -8.640   6.896  67.559  1.00  0.00    -0.121 C  
HETATM    8  C   UNL     1      -6.592   7.054  64.759  1.00  0.00    -0.043 A  
HETATM    9  C   UNL     1      -8.261   8.755  65.140  1.00  0.00    -0.149 A  
HETATM   10  C   UNL     1      -7.512   9.640  64.345  1.00  0.00    -0.125 A  
HETATM   11  C   UNL     1      -5.855   7.941  63.970  1.00  0.00    -0.053 A  
HETATM   12  C   UNL     1      -7.786   7.458  65.375  1.00  0.00    -0.110 A  
ENDROOT
BRANCH   1  13
HETATM   13  N   UNL     1      -9.354   8.327  69.431  1.00  0.00    -0.155 NA 
HETATM   14  H   UNL     1      -8.415   8.480  69.797  1.00  0.00     0.000 HD 
BRANCH  13  15
HETATM   15  C   UNL     1     -10.533   8.350  70.325  1.00  0.00    -0.218 C  
BRANCH  15  16
HETATM   16  C   UNL     1     -11.653   9.315  69.892  1.00  0.00     0.076 C  
BRANCH  16  17
HETATM   17  C   UNL     1     -11.736  10.563  70.790  1.00  0.00    -0.454 C  
BRANCH  17  18
HETATM   18  C   UNL     1     -11.794  11.834  69.978  1.00  0.00    -0.422 A  
HETATM   19  C   UNL     1     -11.454  11.824  68.617  1.00  0.00    -0.346 A  
HETATM   20  C   UNL     1     -11.812  14.211  68.488  1.00  0.00    -0.390 A  
HETATM   21  C   UNL     1     -11.465  13.009  67.877  1.00  0.00    -0.352 A  
HETATM   22  C   UNL     1     -12.165  14.228  69.838  1.00  0.00    -0.407 A  
HETATM   23  C   UNL     1     -12.158  13.046  70.577  1.00  0.00    -0.373 A  
ENDBRANCH  17  18
ENDBRANCH  16  17
ENDBRANCH  15  16
BRANCH  15  24
HETATM   24  C   UNL     1     -11.121   6.920  70.355  1.00  0.00    -0.296 C  
HETATM   25  O   UNL     1     -11.581   6.342  69.380  1.00  0.00    -0.403 OA 
BRANCH  24  26
HETATM   26  O   UNL     1     -11.121   6.439  71.633  1.00  0.00    -0.246 OA 
BRANCH  26  27
HETATM   27  C   UNL     1     -10.427   5.195  71.824  1.00  0.00    -0.200 C  
HETATM   28  C   UNL     1      -8.935   5.454  71.936  1.00  0.00    -0.144 C  
ENDBRANCH  26  27
ENDBRANCH  24  26
ENDBRANCH  15  24
ENDBRANCH  13  15
ENDBRANCH   1  13
BRANCH   5  29
HETATM   29  C   UNL     1      -8.437   5.111  65.953  1.00  0.00    -0.121 C  
HETATM   30  C   UNL     1      -9.738   4.329  65.784  1.00  0.00    -0.207 C  
HETATM   31  O   UNL     1      -9.767   3.119  65.597  1.00  0.00    -0.058 OA 
HETATM   32  O   UNL     1     -10.876   5.050  65.893  1.00  0.00    -0.253 OA 
ENDBRANCH   5  29
TORSDOF 9
ENDMDL
MODEL      198
REMARK 921   NORMALIZED FREE ENERGY PREDICTED BY IDOCK:   -3.68 KCAL/MOL
REMARK 922        TOTAL FREE ENERGY PREDICTED BY IDOCK:   -7.77 KCAL/MOL
REMARK 923 INTER-LIGAND FREE ENERGY PREDICTED BY IDOCK:   -6.40 KCAL/MOL
REMARK 924 INTRA-LIGAND FREE ENERGY PREDICTED BY IDOCK:   -1.36 KCAL/MOL
REMARK 927      BINDING AFFINITY PREDICTED BY RF-SCORE:    0.00 PKD
ROOT
HETATM    1  C   UNL     1      -9.728   7.602  68.449  1.00  0.00    -0.158 C  
HETATM    2  C   UNL     1      -9.604   9.094  68.151  1.00  0.00    -0.160 C  
HETATM    3  O   UNL     1     -11.402   6.113  69.403  1.00  0.00    -0.420 OA 
HETATM    4  C   UNL     1     -12.391  11.767  70.770  1.00  0.00    -0.433 A  
HETATM    5  N   UNL     1     -10.753   7.841  70.780  1.00  0.00    -0.223 N  
HETATM    6  C   UNL     1      -9.364   9.941  69.387  1.00  0.00    -0.226 C  
HETATM    7  C   UNL     1     -10.770   7.170  69.537  1.00  0.00    -0.239 C  
HETATM    8  C   UNL     1     -12.500   9.464  71.488  1.00  0.00    -0.450 A  
HETATM    9  C   UNL     1     -10.664  10.191  70.101  1.00  0.00    -0.355 A  
HETATM   10  C   UNL     1     -11.209  11.486  70.093  1.00  0.00    -0.006 A  
HETATM   11  C   UNL     1     -13.033  10.756  71.475  1.00  0.00    -0.562 A  
HETATM   12  C   UNL     1     -11.328   9.160  70.780  1.00  0.00    -0.280 A  
ENDROOT
BRANCH   1  13
HETATM   13  N   UNL     1     -10.056   6.873  67.199  1.00  0.00    -0.189 NA 
HETATM   14  H   UNL     1     -10.949   7.016  66.728  1.00  0.00     0.000 HD 
BRANCH  13  15
HETATM   15  C   UNL     1      -9.049   5.934  66.657  1.00  0.00    -0.134 C  
BRANCH  15  16
HETATM   16  C   UNL     1      -7.762   5.812  67.496  1.00  0.00    -0.097 C  
BRANCH  16  17
HETATM   17  C   UNL     1      -6.606   6.655  66.928  1.00  0.00    -0.048 C  
BRANCH  17  18
HETATM   18  C   UNL     1      -6.655   6.729  65.421  1.00  0.00    -0.050 A  
HETATM   19  C   UNL     1      -6.317   5.612  64.644  1.00  0.00    -0.036 A  
HETATM   20  C   UNL     1      -6.656   6.890  62.620  1.00  0.00    -0.047 A  
HETATM   21  C   UNL     1      -6.318   5.694  63.249  1.00  0.00    -0.025 A  
HETATM   22  C   UNL     1      -7.007   8.002  63.385  1.00  0.00    -0.084 A  
HETATM   23  C   UNL     1      -7.009   7.921  64.777  1.00  0.00    -0.062 A  
ENDBRANCH  17  18
ENDBRANCH  16  17
ENDBRANCH  15  16
BRANCH  15  24
HETATM   24  C   UNL     1      -9.708   4.536  66.589  1.00  0.00    -0.207 C  
HETATM   25  O   UNL     1      -9.512   3.640  67.399  1.00  0.00    -0.192 OA 
BRANCH  24  26
HETATM   26  O   UNL     1     -10.467   4.430  65.460  1.00  0.00    -0.265 OA 
BRANCH  26  27
HETATM   27  C   UNL     1      -9.752   4.066  64.267  1.00  0.00    -0.169 C  
HETATM   28  C   UNL     1     -10.693   3.370  63.299  1.00  0.00    -0.230 C  
ENDBRANCH  26  27
ENDBRANCH  24  26
ENDBRANCH  15  24
ENDBRANCH  13  15
ENDBRANCH   1  13
BRANCH   5  29
HETATM   29  C   UNL     1     -11.052   6.949  71.920  1.00  0.00    -0.246 C  
HETATM   30  C   UNL     1     -10.172   7.109  73.159  1.00  0.00    -0.276 C  
HETATM   31  O   UNL     1     -10.308   6.423  74.163  1.00  0.00    -0.319 OA 
HETATM   32  O   UNL     1      -9.193   8.035  73.068  1.00  0.00    -0.218 OA 
ENDBRANCH   5  29
TORSDOF 9
ENDMDL
MODEL      199
REMARK 921   NORMALIZED FREE ENERGY PREDICTED BY IDOCK:   -3.63 KCAL/MOL
REMARK 922        TOTAL FREE ENERGY PREDICTED BY IDOCK:   -7.70 KCAL/MOL
REMARK 923 INTER-LIGAND FREE ENERGY PREDICTED BY IDOCK:   -6.82 KCAL/MOL
REMARK 924 INTRA-LIGAND FREE ENERGY PREDICTED BY IDOCK:   -0.87 KCAL/MOL
REMARK 927      BINDING AFFINITY PREDICTED BY RF-SCORE:    0.00 PKD
ROOT
HETATM    1  C   UNL     1      -8.773  11.760  68.427  1.00  0.00    -0.155 C  
HETATM    2  C   UNL     1      -8.200  12.396  67.163  1.00  0.00    -0.176 C  
HETATM    3  O   UNL     1     -10.912  10.843  69.144  1.00  0.00    -0.206 OA 
HETATM    4  C   UNL     1     -11.436  14.302  64.394  1.00  0.00    -0.321 A  
HETATM    5  N   UNL     1     -10.993  13.030  68.429  1.00  0.00    -0.251 N  
HETATM    6  C   UNL     1      -8.662  13.824  66.941  1.00  0.00    -0.172 C  
HETATM    7  C   UNL     1     -10.329  11.796  68.610  1.00  0.00    -0.214 C  
HETATM    8  C   UNL     1     -12.425  13.542  66.461  1.00  0.00    -0.309 A  
HETATM    9  C   UNL     1     -10.034  13.832  66.325  1.00  0.00    -0.312 A  
HETATM   10  C   UNL     1     -10.180  14.247  64.990  1.00  0.00    -0.402 A  
HETATM   11  C   UNL     1     -12.560  13.957  65.133  1.00  0.00    -0.466 A  
HETATM   12  C   UNL     1     -11.161  13.448  67.063  1.00  0.00    -0.305 A  
ENDROOT
BRANCH   1  13
HETATM   13  N   UNL     1      -8.345  10.342  68.506  1.00  0.00    -0.111 NA 
HETATM   14  H   UNL     1      -8.174   9.798  67.661  1.00  0.00     0.000 HD 
BRANCH  13  15
HETATM   15  C   UNL     1      -8.173   9.740  69.847  1.00  0.00    -0.183 C  
BRANCH  15  16
HETATM   16  C   UNL     1      -8.192   8.199  69.870  1.00  0.00    -0.118 C  
BRANCH  16  17
HETATM   17  C   UNL     1      -9.621   7.627  69.838  1.00  0.00    -0.160 C  
BRANCH  17  18
HETATM   18  C   UNL     1      -9.742   6.481  68.864  1.00  0.00    -0.134 A  
HETATM   19  C   UNL     1      -8.894   5.368  68.967  1.00  0.00    -0.108 A  
HETATM   20  C   UNL     1      -9.904   4.389  67.001  1.00  0.00    -0.227 A  
HETATM   21  C   UNL     1      -8.977   4.328  68.039  1.00  0.00    -0.148 A  
HETATM   22  C   UNL     1     -10.760   5.486  66.899  1.00  0.00    -0.310 A  
HETATM   23  C   UNL     1     -10.681   6.524  67.827  1.00  0.00    -0.368 A  
ENDBRANCH  17  18
ENDBRANCH  16  17
ENDBRANCH  15  16
BRANCH  15  24
HETATM   24  C   UNL     1      -6.804  10.208  70.394  1.00  0.00    -0.124 C  
HETATM   25  O   UNL     1      -6.453  11.378  70.468  1.00  0.00    -0.270 OA 
BRANCH  24  26
HETATM   26  O   UNL     1      -6.027   9.128  70.701  1.00  0.00    -0.036 OA 
BRANCH  26  27
HETATM   27  C   UNL     1      -5.392   9.171  71.990  1.00  0.00    -0.061 C  
HETATM   28  C   UNL     1      -5.822   7.969  72.812  1.00  0.00    -0.049 C  
ENDBRANCH  26  27
ENDBRANCH  24  26
ENDBRANCH  15  24
ENDBRANCH  13  15
ENDBRANCH   1  13
BRANCH   5  29
HETATM   29  C   UNL     1     -12.125  13.217  69.361  1.00  0.00    -0.231 C  
HETATM   30  C   UNL     1     -12.059  14.439  70.275  1.00  0.00    -0.331 C  
HETATM   31  O   UNL     1     -12.925  14.700  71.100  1.00  0.00    -0.317 OA 
HETATM   32  O   UNL     1     -10.954  15.208  70.150  1.00  0.00    -0.249 OA 
ENDBRANCH   5  29
TORSDOF 9
ENDMDL
MODEL      200
REMARK 921   NORMALIZED FREE ENERGY PREDICTED BY IDOCK:   -3.60 KCAL/MOL
REMARK 922        TOTAL FREE ENERGY PREDICTED BY IDOCK:   -7.65 KCAL/MOL
REMARK 923 INTER-LIGAND FREE ENERGY PREDICTED BY IDOCK:   -5.50 KCAL/MOL
REMARK 924 INTRA-LIGAND FREE ENERGY PREDICTED BY IDOCK:   -2.15 KCAL/MOL
REMARK 927      BINDING AFFINITY PREDICTED BY RF-SCORE:    0.00 PKD
ROOT
HETATM    1  C   UNL     1      -8.919   7.213  68.803  1.00  0.00    -0.128 C  
HETATM    2  C   UNL     1      -9.719   8.510  68.723  1.00  0.00    -0.168 C  
HETATM    3  O   UNL     1      -6.972   6.254  67.700  1.00  0.00    -0.070 OA 
HETATM    4  C   UNL     1      -9.323  10.706  64.625  1.00  0.00    -0.280 A  
HETATM    5  N   UNL     1      -8.689   6.840  66.283  1.00  0.00    -0.141 N  
HETATM    6  C   UNL     1     -10.617   8.595  67.502  1.00  0.00    -0.292 C  
HETATM    7  C   UNL     1      -8.065   6.815  67.550  1.00  0.00    -0.115 C  
HETATM    8  C   UNL     1      -8.214   8.563  64.552  1.00  0.00    -0.158 A  
HETATM    9  C   UNL     1      -9.814   9.014  66.301  1.00  0.00    -0.361 A  
HETATM   10  C   UNL     1     -10.019  10.293  65.756  1.00  0.00    -0.337 A  
HETATM   11  C   UNL     1      -8.425   9.836  64.018  1.00  0.00    -0.186 A  
HETATM   12  C   UNL     1      -8.883   8.147  65.714  1.00  0.00    -0.135 A  
ENDROOT
BRANCH   1  13
HETATM   13  N   UNL     1      -8.006   7.265  69.970  1.00  0.00    -0.115 NA 
HETATM   14  H   UNL     1      -7.263   6.576  70.086  1.00  0.00     0.000 HD 
BRANCH  13  15
HETATM   15  C   UNL     1      -8.204   8.346  70.961  1.00  0.00    -0.128 C  
BRANCH  15  16
HETATM   16  C   UNL     1      -8.755   7.880  72.323  1.00  0.00    -0.198 C  
BRANCH  16  17
HETATM   17  C   UNL     1     -10.228   7.441  72.243  1.00  0.00    -0.237 C  
BRANCH  17  18
HETATM   18  C   UNL     1     -10.397   5.983  72.592  1.00  0.00    -0.222 A  
HETATM   19  C   UNL     1     -10.719   5.599  73.903  1.00  0.00    -0.228 A  
HETATM   20  C   UNL     1     -10.622   3.268  73.266  1.00  0.00    -0.275 A  
HETATM   21  C   UNL     1     -10.831   4.247  74.235  1.00  0.00    -0.199 A  
HETATM   22  C   UNL     1     -10.314   3.642  71.958  1.00  0.00    -0.067 A  
HETATM   23  C   UNL     1     -10.205   4.991  71.623  1.00  0.00    -0.275 A  
ENDBRANCH  17  18
ENDBRANCH  16  17
ENDBRANCH  15  16
BRANCH  15  24
HETATM   24  C   UNL     1      -6.828   9.009  71.206  1.00  0.00    -0.086 C  
HETATM   25  O   UNL     1      -6.472   9.490  72.273  1.00  0.00    -0.283 OA 
BRANCH  24  26
HETATM   26  O   UNL     1      -6.113   9.049  70.043  1.00  0.00    -0.036 OA 
BRANCH  26  27
HETATM   27  C   UNL     1      -5.921  10.357  69.480  1.00  0.00    -0.044 C  
HETATM   28  C   UNL     1      -6.576  10.426  68.112  1.00  0.00    -0.060 C  
ENDBRANCH  26  27
ENDBRANCH  24  26
ENDBRANCH  15  24
ENDBRANCH  13  15
ENDBRANCH   1  13
BRANCH   5  29
HETATM   29  C   UNL     1      -8.231   5.752  65.394  1.00  0.00    -0.138 C  
HETATM   30  C   UNL     1      -9.229   4.627  65.125  1.00  0.00    -0.156 C  
HETATM   31  O   UNL     1      -8.968   3.662  64.418  1.00  0.00    -0.114 OA 
HETATM   32  O   UNL     1     -10.420   4.735  65.753  1.00  0.00    -0.270 OA 
ENDBRANCH   5  29
TORSDOF 9
ENDMDL
MODEL      201
REMARK 921   NORMALIZED FREE ENERGY PREDICTED BY IDOCK:   -3.60 KCAL/MOL
REMARK 922        TOTAL FREE ENERGY PREDICTED BY IDOCK:   -7.65 KCAL/MOL
REMARK 923 INTER-LIGAND FREE ENERGY PREDICTED BY IDOCK:   -6.93 KCAL/MOL
REMARK 924 INTRA-LIGAND FREE ENERGY PREDICTED BY IDOCK:   -0.72 KCAL/MOL
REMARK 927      BINDING AFFINITY PREDICTED BY RF-SCORE:    0.00 PKD
ROOT
HETATM    1  C   UNL     1      -9.859  10.696  69.475  1.00  0.00    -0.084 C  
HETATM    2  C   UNL     1     -11.292  10.484  69.954  1.00  0.00    -0.380 C  
HETATM    3  O   UNL     1      -8.010   9.301  68.725  1.00  0.00    -0.096 OA 
HETATM    4  C   UNL     1     -12.075   6.227  71.695  1.00  0.00    -0.229 A  
HETATM    5  N   UNL     1      -8.802   8.800  70.828  1.00  0.00    -0.172 N  
HETATM    6  C   UNL     1     -11.385   9.945  71.369  1.00  0.00    -0.344 C  
HETATM    7  C   UNL     1      -8.873   9.483  69.593  1.00  0.00    -0.187 C  
HETATM    8  C   UNL     1      -9.733   6.523  71.194  1.00  0.00    -0.188 A  
HETATM    9  C   UNL     1     -11.164   8.458  71.370  1.00  0.00    -0.316 A  
HETATM   10  C   UNL     1     -12.246   7.606  71.651  1.00  0.00    -0.346 A  
HETATM   11  C   UNL     1     -10.815   5.686  71.475  1.00  0.00    -0.297 A  
HETATM   12  C   UNL     1      -9.899   7.914  71.110  1.00  0.00    -0.165 A  
ENDROOT
BRANCH   1  13
HETATM   13  N   UNL     1      -9.869  11.130  68.057  1.00  0.00    -0.170 NA 
HETATM   14  H   UNL     1      -9.728  10.458  67.302  1.00  0.00     0.000 HD 
BRANCH  13  15
HETATM   15  C   UNL     1     -10.089  12.564  67.769  1.00  0.00    -0.218 C  
BRANCH  15  16
HETATM   16  C   UNL     1      -9.154  13.158  66.696  1.00  0.00    -0.180 C  
BRANCH  16  17
HETATM   17  C   UNL     1      -8.497  14.474  67.150  1.00  0.00    -0.234 C  
BRANCH  17  18
HETATM   18  C   UNL     1      -7.441  14.239  68.203  1.00  0.00    -0.131 A  
HETATM   19  C   UNL     1      -6.646  13.084  68.166  1.00  0.00    -0.103 A  
HETATM   20  C   UNL     1      -5.541  13.754  70.209  1.00  0.00    -0.131 A  
HETATM   21  C   UNL     1      -5.700  12.845  69.165  1.00  0.00    -0.076 A  
HETATM   22  C   UNL     1      -6.318  14.912  70.246  1.00  0.00    -0.138 A  
HETATM   23  C   UNL     1      -7.261  15.153  69.247  1.00  0.00    -0.182 A  
ENDBRANCH  17  18
ENDBRANCH  16  17
ENDBRANCH  15  16
BRANCH  15  24
HETATM   24  C   UNL     1     -11.544  12.720  67.270  1.00  0.00    -0.360 C  
HETATM   25  O   UNL     1     -12.397  11.845  67.343  1.00  0.00    -0.297 OA 
BRANCH  24  26
HETATM   26  O   UNL     1     -11.709  13.937  66.673  1.00  0.00    -0.354 OA 
BRANCH  26  27
HETATM   27  C   UNL     1     -12.704  13.987  65.638  1.00  0.00    -0.481 C  
HETATM   28  C   UNL     1     -12.294  13.081  64.490  1.00  0.00    -0.461 C  
ENDBRANCH  26  27
ENDBRANCH  24  26
ENDBRANCH  15  24
ENDBRANCH  13  15
ENDBRANCH   1  13
BRANCH   5  29
HETATM   29  C   UNL     1      -7.434   8.346  71.156  1.00  0.00    -0.084 C  
HETATM   30  C   UNL     1      -7.054   8.342  72.636  1.00  0.00    -0.067 C  
HETATM   31  O   UNL     1      -5.950   8.001  73.039  1.00  0.00    -0.053 OA 
HETATM   32  O   UNL     1      -8.007   8.783  73.489  1.00  0.00    -0.409 OA 
ENDBRANCH   5  29
TORSDOF 9
ENDMDL
MODEL      202
REMARK 921   NORMALIZED FREE ENERGY PREDICTED BY IDOCK:   -3.57 KCAL/MOL
REMARK 922        TOTAL FREE ENERGY PREDICTED BY IDOCK:   -7.61 KCAL/MOL
REMARK 923 INTER-LIGAND FREE ENERGY PREDICTED BY IDOCK:   -6.51 KCAL/MOL
REMARK 924 INTRA-LIGAND FREE ENERGY PREDICTED BY IDOCK:   -1.09 KCAL/MOL
REMARK 927      BINDING AFFINITY PREDICTED BY RF-SCORE:    0.00 PKD
ROOT
HETATM    1  C   UNL     1     -11.112  11.521  67.208  1.00  0.00    -0.293 C  
HETATM    2  C   UNL     1     -10.789  11.794  68.674  1.00  0.00    -0.259 C  
HETATM    3  O   UNL     1     -10.032  11.871  65.054  1.00  0.00    -0.253 OA 
HETATM    4  C   UNL     1      -7.702  15.236  69.302  1.00  0.00    -0.214 A  
HETATM    5  N   UNL     1     -10.340  13.783  66.298  1.00  0.00    -0.287 N  
HETATM    6  C   UNL     1     -10.930  13.254  69.064  1.00  0.00    -0.249 C  
HETATM    7  C   UNL     1     -10.362  12.380  66.133  1.00  0.00    -0.247 C  
HETATM    8  C   UNL     1      -8.311  15.054  66.973  1.00  0.00    -0.254 A  
HETATM    9  C   UNL     1      -9.703  14.019  68.650  1.00  0.00    -0.179 A  
HETATM   10  C   UNL     1      -8.828  14.494  69.642  1.00  0.00     0.448 A  
HETATM   11  C   UNL     1      -7.448  15.523  67.966  1.00  0.00    -0.136 A  
HETATM   12  C   UNL     1      -9.431  14.274  67.299  1.00  0.00    -0.220 A  
ENDROOT
BRANCH   1  13
HETATM   13  N   UNL     1     -10.853  10.093  66.901  1.00  0.00    -0.161 NA 
HETATM   14  H   UNL     1     -11.427   9.589  66.225  1.00  0.00     0.000 HD 
BRANCH  13  15
HETATM   15  C   UNL     1      -9.738   9.421  67.604  1.00  0.00    -0.155 C  
BRANCH  15  16
HETATM   16  C   UNL     1     -10.153   8.213  68.466  1.00  0.00    -0.220 C  
BRANCH  16  17
HETATM   17  C   UNL     1      -9.024   7.740  69.399  1.00  0.00    -0.142 C  
BRANCH  17  18
HETATM   18  C   UNL     1      -9.498   7.599  70.825  1.00  0.00    -0.162 A  
HETATM   19  C   UNL     1     -10.587   6.771  71.134  1.00  0.00    -0.252 A  
HETATM   20  C   UNL     1     -10.440   7.408  73.461  1.00  0.00    -0.396 A  
HETATM   21  C   UNL     1     -11.053   6.676  72.447  1.00  0.00    -0.294 A  
HETATM   22  C   UNL     1      -9.348   8.224  73.165  1.00  0.00    -0.281 A  
HETATM   23  C   UNL     1      -8.878   8.317  71.856  1.00  0.00    -0.238 A  
ENDBRANCH  17  18
ENDBRANCH  16  17
ENDBRANCH  15  16
BRANCH  15  24
HETATM   24  C   UNL     1      -8.746   8.920  66.528  1.00  0.00    -0.130 C  
HETATM   25  O   UNL     1      -9.074   8.510  65.423  1.00  0.00    -0.152 OA 
BRANCH  24  26
HETATM   26  O   UNL     1      -7.473   8.930  67.022  1.00  0.00    -0.086 OA 
BRANCH  26  27
HETATM   27  C   UNL     1      -6.682  10.077  66.668  1.00  0.00    -0.081 C  
HETATM   28  C   UNL     1      -7.245  11.314  67.345  1.00  0.00    -0.110 C  
ENDBRANCH  26  27
ENDBRANCH  24  26
ENDBRANCH  15  24
ENDBRANCH  13  15
ENDBRANCH   1  13
BRANCH   5  29
HETATM   29  C   UNL     1     -10.431  14.516  65.018  1.00  0.00    -0.429 C  
HETATM   30  C   UNL     1     -11.081  15.897  65.068  1.00  0.00    -0.360 C  
HETATM   31  O   UNL     1     -11.228  16.599  64.076  1.00  0.00    -1.052 OA 
HETATM   32  O   UNL     1     -11.528  16.293  66.281  1.00  0.00     0.331 OA 
ENDBRANCH   5  29
TORSDOF 9
ENDMDL
MODEL      203
REMARK 921   NORMALIZED FREE ENERGY PREDICTED BY IDOCK:   -3.56 KCAL/MOL
REMARK 922        TOTAL FREE ENERGY PREDICTED BY IDOCK:   -7.59 KCAL/MOL
REMARK 923 INTER-LIGAND FREE ENERGY PREDICTED BY IDOCK:   -8.57 KCAL/MOL
REMARK 924 INTRA-LIGAND FREE ENERGY PREDICTED BY IDOCK:    0.98 KCAL/MOL
REMARK 927      BINDING AFFINITY PREDICTED BY RF-SCORE:    0.00 PKD
ROOT
HETATM    1  C   UNL     1     -11.531  11.980  67.048  1.00  0.00    -0.338 C  
HETATM    2  C   UNL     1     -10.322  12.343  66.190  1.00  0.00    -0.271 C  
HETATM    3  O   UNL     1     -12.000  11.670  69.417  1.00  0.00    -0.313 OA 
HETATM    4  C   UNL     1      -6.230  11.397  68.222  1.00  0.00    -0.045 A  
HETATM    5  N   UNL     1     -10.330  10.323  68.582  1.00  0.00    -0.174 N  
HETATM    6  C   UNL     1      -9.326  11.208  66.035  1.00  0.00    -0.228 C  
HETATM    7  C   UNL     1     -11.251  11.388  68.473  1.00  0.00    -0.250 C  
HETATM    8  C   UNL     1      -8.057  10.568  69.564  1.00  0.00    -0.105 A  
HETATM    9  C   UNL     1      -8.442  11.129  67.249  1.00  0.00    -0.137 A  
HETATM   10  C   UNL     1      -7.089  11.489  67.132  1.00  0.00    -0.140 A  
HETATM   11  C   UNL     1      -6.713  10.928  69.437  1.00  0.00    -0.107 A  
HETATM   12  C   UNL     1      -8.943  10.691  68.482  1.00  0.00    -0.156 A  
ENDROOT
BRANCH   1  13
HETATM   13  N   UNL     1     -12.393  13.175  67.221  1.00  0.00    -0.237 NA 
HETATM   14  H   UNL     1     -13.406  13.108  67.130  1.00  0.00     0.000 HD 
BRANCH  13  15
HETATM   15  C   UNL     1     -11.739  14.467  67.527  1.00  0.00    -0.387 C  
BRANCH  15  16
HETATM   16  C   UNL     1     -10.748  14.425  68.707  1.00  0.00    -0.258 C  
BRANCH  16  17
HETATM   17  C   UNL     1     -10.860  15.664  69.614  1.00  0.00    -0.287 C  
BRANCH  17  18
HETATM   18  C   UNL     1     -11.828  15.441  70.750  1.00  0.00    -0.394 A  
HETATM   19  C   UNL     1     -13.206  15.358  70.503  1.00  0.00    -0.254 A  
HETATM   20  C   UNL     1     -13.638  15.119  72.869  1.00  0.00    -0.557 A  
HETATM   21  C   UNL     1     -14.105  15.197  71.560  1.00  0.00    -0.636 A  
HETATM   22  C   UNL     1     -12.267  15.187  73.123  1.00  0.00    -0.521 A  
HETATM   23  C   UNL     1     -11.368  15.344  72.069  1.00  0.00    -0.466 A  
ENDBRANCH  17  18
ENDBRANCH  16  17
ENDBRANCH  15  16
BRANCH  15  24
HETATM   24  C   UNL     1     -10.959  14.903  66.265  1.00  0.00    -0.338 C  
HETATM   25  O   UNL     1     -11.467  15.083  65.167  1.00  0.00    -0.360 OA 
BRANCH  24  26
HETATM   26  O   UNL     1      -9.624  14.976  66.541  1.00  0.00    -0.246 OA 
BRANCH  26  27
HETATM   27  C   UNL     1      -8.938  16.106  65.975  1.00  0.00    -0.298 C  
HETATM   28  C   UNL     1      -9.372  17.375  66.686  1.00  0.00    -0.279 C  
ENDBRANCH  26  27
ENDBRANCH  24  26
ENDBRANCH  15  24
ENDBRANCH  13  15
ENDBRANCH   1  13
BRANCH   5  29
HETATM   29  C   UNL     1     -10.716   9.330  69.607  1.00  0.00    -0.230 C  
HETATM   30  C   UNL     1     -10.707   7.865  69.173  1.00  0.00    -0.117 C  
HETATM   31  O   UNL     1     -11.019   6.948  69.921  1.00  0.00    -0.249 OA 
HETATM   32  O   UNL     1     -10.369   7.636  67.885  1.00  0.00    -0.195 OA 
ENDBRANCH   5  29
TORSDOF 9
ENDMDL
MODEL      204
REMARK 921   NORMALIZED FREE ENERGY PREDICTED BY IDOCK:   -3.53 KCAL/MOL
REMARK 922        TOTAL FREE ENERGY PREDICTED BY IDOCK:   -7.55 KCAL/MOL
REMARK 923 INTER-LIGAND FREE ENERGY PREDICTED BY IDOCK:   -6.59 KCAL/MOL
REMARK 924 INTRA-LIGAND FREE ENERGY PREDICTED BY IDOCK:   -0.96 KCAL/MOL
REMARK 927      BINDING AFFINITY PREDICTED BY RF-SCORE:    0.00 PKD
ROOT
HETATM    1  C   UNL     1      -9.044  15.819  65.770  1.00  0.00    -0.152 C  
HETATM    2  C   UNL     1     -10.389  16.326  66.283  1.00  0.00    -0.335 C  
HETATM    3  O   UNL     1      -6.739  15.789  66.556  1.00  0.00    -0.012 OA 
HETATM    4  C   UNL     1     -10.027  19.768  69.411  1.00  0.00    -0.224 A  
HETATM    5  N   UNL     1      -7.678  17.886  66.407  1.00  0.00    -0.260 N  
HETATM    6  C   UNL     1     -10.546  17.832  66.188  1.00  0.00    -0.235 C  
HETATM    7  C   UNL     1      -7.752  16.476  66.369  1.00  0.00    -0.259 C  
HETATM    8  C   UNL     1      -7.861  19.215  68.501  1.00  0.00    -0.380 A  
HETATM    9  C   UNL     1      -9.854  18.496  67.346  1.00  0.00    -0.330 A  
HETATM   10  C   UNL     1     -10.630  19.113  68.342  1.00  0.00    -0.166 A  
HETATM   11  C   UNL     1      -8.641  19.826  69.486  1.00  0.00     0.389 A  
HETATM   12  C   UNL     1      -8.456  18.520  67.437  1.00  0.00    -0.257 A  
ENDROOT
BRANCH   1  13
HETATM   13  N   UNL     1      -8.947  14.356  65.993  1.00  0.00    -0.446 NA 
HETATM   14  H   UNL     1      -8.748  13.720  65.220  1.00  0.00     0.000 HD 
BRANCH  13  15
HETATM   15  C   UNL     1      -9.149  13.846  67.367  1.00  0.00    -0.217 C  
BRANCH  15  16
HETATM   16  C   UNL     1     -10.238  12.764  67.501  1.00  0.00    -0.216 C  
BRANCH  16  17
HETATM   17  C   UNL     1     -11.306  13.130  68.546  1.00  0.00    -0.321 C  
BRANCH  17  18
HETATM   18  C   UNL     1     -11.569  11.991  69.501  1.00  0.00    -0.389 A  
HETATM   19  C   UNL     1     -12.440  12.160  70.587  1.00  0.00    -0.330 A  
HETATM   20  C   UNL     1     -11.988   9.905  71.330  1.00  0.00    -0.489 A  
HETATM   21  C   UNL     1     -12.648  11.120  71.496  1.00  0.00    -0.431 A  
HETATM   22  C   UNL     1     -11.130   9.723  70.245  1.00  0.00    -0.349 A  
HETATM   23  C   UNL     1     -10.924  10.759  69.335  1.00  0.00    -0.305 A  
ENDBRANCH  17  18
ENDBRANCH  16  17
ENDBRANCH  15  16
BRANCH  15  24
HETATM   24  C   UNL     1      -7.808  13.233  67.835  1.00  0.00    -0.152 C  
HETATM   25  O   UNL     1      -6.915  12.868  67.083  1.00  0.00    -0.103 OA 
BRANCH  24  26
HETATM   26  O   UNL     1      -7.807  13.090  69.193  1.00  0.00     0.163 OA 
BRANCH  26  27
HETATM   27  C   UNL     1      -6.717  12.323  69.732  1.00  0.00     0.120 C  
HETATM   28  C   UNL     1      -7.149  10.878  69.910  1.00  0.00    -0.052 C  
ENDBRANCH  26  27
ENDBRANCH  24  26
ENDBRANCH  15  24
ENDBRANCH  13  15
ENDBRANCH   1  13
BRANCH   5  29
HETATM   29  C   UNL     1      -6.316  18.398  66.145  1.00  0.00    -0.207 C  
HETATM   30  C   UNL     1      -6.218  19.684  65.325  1.00  0.00    -0.248 C  
HETATM   31  O   UNL     1      -5.149  20.203  65.029  1.00  0.00    -0.153 OA 
HETATM   32  O   UNL     1      -7.392  20.203  64.903  1.00  0.00    -0.242 OA 
ENDBRANCH   5  29
TORSDOF 9
ENDMDL
MODEL      205
REMARK 921   NORMALIZED FREE ENERGY PREDICTED BY IDOCK:   -3.52 KCAL/MOL
REMARK 922        TOTAL FREE ENERGY PREDICTED BY IDOCK:   -7.52 KCAL/MOL
REMARK 923 INTER-LIGAND FREE ENERGY PREDICTED BY IDOCK:   -6.61 KCAL/MOL
REMARK 924 INTRA-LIGAND FREE ENERGY PREDICTED BY IDOCK:   -0.92 KCAL/MOL
REMARK 927      BINDING AFFINITY PREDICTED BY RF-SCORE:    0.00 PKD
ROOT
HETATM    1  C   UNL     1     -10.247  10.342  68.885  1.00  0.00    -0.205 C  
HETATM    2  C   UNL     1     -11.573  11.043  68.603  1.00  0.00    -0.385 C  
HETATM    3  O   UNL     1      -7.960  11.003  69.396  1.00  0.00    -0.081 OA 
HETATM    4  C   UNL     1     -11.087  15.404  67.018  1.00  0.00    -0.273 A  
HETATM    5  N   UNL     1      -8.788  11.848  67.421  1.00  0.00    -0.165 N  
HETATM    6  C   UNL     1     -11.651  11.656  67.217  1.00  0.00    -0.316 C  
HETATM    7  C   UNL     1      -8.933  11.164  68.648  1.00  0.00    -0.162 C  
HETATM    8  C   UNL     1      -8.937  14.321  67.202  1.00  0.00    -0.237 A  
HETATM    9  C   UNL     1     -10.945  12.983  67.200  1.00  0.00    -0.293 A  
HETATM   10  C   UNL     1     -11.704  14.159  67.072  1.00  0.00    -0.430 A  
HETATM   11  C   UNL     1      -9.701  15.484  67.074  1.00  0.00    -0.230 A  
HETATM   12  C   UNL     1      -9.549  13.062  67.295  1.00  0.00    -0.225 A  
ENDROOT
BRANCH   1  13
HETATM   13  N   UNL     1     -10.229   9.862  70.289  1.00  0.00    -0.314 NA 
HETATM   14  H   UNL     1     -10.902  10.211  70.971  1.00  0.00     0.000 HD 
BRANCH  13  15
HETATM   15  C   UNL     1      -9.205   8.865  70.671  1.00  0.00    -0.213 C  
BRANCH  15  16
HETATM   16  C   UNL     1      -9.086   8.610  72.186  1.00  0.00    -0.301 C  
BRANCH  16  17
HETATM   17  C   UNL     1     -10.318   7.888  72.760  1.00  0.00    -0.399 C  
BRANCH  17  18
HETATM   18  C   UNL     1      -9.956   6.548  73.354  1.00  0.00    -0.214 A  
HETATM   19  C   UNL     1      -8.628   6.262  73.705  1.00  0.00    -0.125 A  
HETATM   20  C   UNL     1      -9.263   4.026  74.370  1.00  0.00    -0.115 A  
HETATM   21  C   UNL     1      -8.286   5.006  74.211  1.00  0.00    -0.099 A  
HETATM   22  C   UNL     1     -10.588   4.307  74.036  1.00  0.00    -0.323 A  
HETATM   23  C   UNL     1     -10.932   5.561  73.533  1.00  0.00    -0.289 A  
ENDBRANCH  17  18
ENDBRANCH  16  17
ENDBRANCH  15  16
BRANCH  15  24
HETATM   24  C   UNL     1      -9.583   7.528  69.991  1.00  0.00    -0.164 C  
HETATM   25  O   UNL     1     -10.722   7.211  69.676  1.00  0.00    -0.229 OA 
BRANCH  24  26
HETATM   26  O   UNL     1      -8.479   6.733  69.871  1.00  0.00    -0.136 OA 
BRANCH  26  27
HETATM   27  C   UNL     1      -8.711   5.438  69.293  1.00  0.00    -0.102 C  
HETATM   28  C   UNL     1      -8.922   4.416  70.396  1.00  0.00    -0.145 C  
ENDBRANCH  26  27
ENDBRANCH  24  26
ENDBRANCH  15  24
ENDBRANCH  13  15
ENDBRANCH   1  13
BRANCH   5  29
HETATM   29  C   UNL     1      -7.398  11.840  66.918  1.00  0.00    -0.104 C  
HETATM   30  C   UNL     1      -7.044  10.746  65.912  1.00  0.00    -0.080 C  
HETATM   31  O   UNL     1      -5.925  10.623  65.430  1.00  0.00    -0.131 OA 
HETATM   32  O   UNL     1      -8.039   9.884  65.607  1.00  0.00    -0.120 OA 
ENDBRANCH   5  29
TORSDOF 9
ENDMDL
MODEL      206
REMARK 921   NORMALIZED FREE ENERGY PREDICTED BY IDOCK:   -3.50 KCAL/MOL
REMARK 922        TOTAL FREE ENERGY PREDICTED BY IDOCK:   -7.49 KCAL/MOL
REMARK 923 INTER-LIGAND FREE ENERGY PREDICTED BY IDOCK:   -8.46 KCAL/MOL
REMARK 924 INTRA-LIGAND FREE ENERGY PREDICTED BY IDOCK:    0.97 KCAL/MOL
REMARK 927      BINDING AFFINITY PREDICTED BY RF-SCORE:    0.00 PKD
ROOT
HETATM    1  C   UNL     1      -9.959   7.695  68.978  1.00  0.00    -0.181 C  
HETATM    2  C   UNL     1      -9.066   6.472  69.168  1.00  0.00    -0.136 C  
HETATM    3  O   UNL     1     -11.246   9.194  70.402  1.00  0.00    -0.245 OA 
HETATM    4  C   UNL     1      -9.911   4.127  73.112  1.00  0.00    -0.192 A  
HETATM    5  N   UNL     1     -11.813   6.970  70.584  1.00  0.00    -0.343 N  
HETATM    6  C   UNL     1      -9.836   5.200  69.472  1.00  0.00    -0.278 C  
HETATM    7  C   UNL     1     -10.989   8.017  70.115  1.00  0.00    -0.226 C  
HETATM    8  C   UNL     1     -11.532   5.890  72.806  1.00  0.00    -0.274 A  
HETATM    9  C   UNL     1     -10.205   5.158  70.929  1.00  0.00    -0.299 A  
HETATM   10  C   UNL     1      -9.573   4.222  71.766  1.00  0.00    -0.218 A  
HETATM   11  C   UNL     1     -10.898   4.957  73.630  1.00  0.00    -0.374 A  
HETATM   12  C   UNL     1     -11.174   6.022  71.456  1.00  0.00    -0.264 A  
ENDROOT
BRANCH   1  13
HETATM   13  N   UNL     1      -9.115   8.900  68.783  1.00  0.00    -0.134 NA 
HETATM   14  H   UNL     1      -8.601   9.311  69.562  1.00  0.00     0.000 HD 
BRANCH  13  15
HETATM   15  C   UNL     1      -9.042   9.486  67.427  1.00  0.00    -0.130 C  
BRANCH  15  16
HETATM   16  C   UNL     1     -10.383  10.012  66.878  1.00  0.00    -0.297 C  
BRANCH  16  17
HETATM   17  C   UNL     1     -10.284  10.454  65.407  1.00  0.00    -0.329 C  
BRANCH  17  18
HETATM   18  C   UNL     1     -11.039  11.736  65.156  1.00  0.00    -0.341 A  
HETATM   19  C   UNL     1     -11.596  12.454  66.224  1.00  0.00    -0.449 A  
HETATM   20  C   UNL     1     -12.521  14.072  64.684  1.00  0.00    -0.366 A  
HETATM   21  C   UNL     1     -12.332  13.617  65.987  1.00  0.00    -0.493 A  
HETATM   22  C   UNL     1     -11.959  13.371  63.616  1.00  0.00    -0.504 A  
HETATM   23  C   UNL     1     -11.221  12.212  63.851  1.00  0.00    -0.485 A  
ENDBRANCH  17  18
ENDBRANCH  16  17
ENDBRANCH  15  16
BRANCH  15  24
HETATM   24  C   UNL     1      -8.053  10.674  67.488  1.00  0.00    -0.111 C  
HETATM   25  O   UNL     1      -6.931  10.664  67.000  1.00  0.00    -0.086 OA 
BRANCH  24  26
HETATM   26  O   UNL     1      -8.586  11.690  68.228  1.00  0.00    -0.151 OA 
BRANCH  26  27
HETATM   27  C   UNL     1      -7.828  12.911  68.235  1.00  0.00    -0.142 C  
HETATM   28  C   UNL     1      -8.449  13.903  67.267  1.00  0.00    -0.212 C  
ENDBRANCH  26  27
ENDBRANCH  24  26
ENDBRANCH  15  24
ENDBRANCH  13  15
ENDBRANCH   1  13
BRANCH   5  29
HETATM   29  C   UNL     1     -13.179   7.420  70.923  1.00  0.00     0.031 C  
HETATM   30  C   UNL     1     -13.302   8.418  72.074  1.00  0.00    -0.343 C  
HETATM   31  O   UNL     1     -14.376   8.858  72.461  1.00  0.00    -0.579 OA 
HETATM   32  O   UNL     1     -12.143   8.763  72.678  1.00  0.00    -0.313 OA 
ENDBRANCH   5  29
TORSDOF 9
ENDMDL
MODEL      207
REMARK 921   NORMALIZED FREE ENERGY PREDICTED BY IDOCK:   -3.46 KCAL/MOL
REMARK 922        TOTAL FREE ENERGY PREDICTED BY IDOCK:   -7.44 KCAL/MOL
REMARK 923 INTER-LIGAND FREE ENERGY PREDICTED BY IDOCK:   -6.00 KCAL/MOL
REMARK 924 INTRA-LIGAND FREE ENERGY PREDICTED BY IDOCK:   -1.44 KCAL/MOL
REMARK 927      BINDING AFFINITY PREDICTED BY RF-SCORE:    0.00 PKD
ROOT
HETATM    1  C   UNL     1     -10.847  16.119  69.015  1.00  0.00    -0.299 C  
HETATM    2  C   UNL     1     -10.168  15.417  70.188  1.00  0.00    -0.216 C  
HETATM    3  O   UNL     1     -10.974  15.828  66.601  1.00  0.00    -0.286 OA 
HETATM    4  C   UNL     1      -6.406  12.941  68.969  1.00  0.00    -0.100 A  
HETATM    5  N   UNL     1      -8.840  16.072  67.430  1.00  0.00    -0.181 N  
HETATM    6  C   UNL     1      -8.678  15.687  70.276  1.00  0.00     0.978 C  
HETATM    7  C   UNL     1     -10.232  15.897  67.590  1.00  0.00    -0.263 C  
HETATM    8  C   UNL     1      -7.250  14.191  67.083  1.00  0.00     0.207 A  
HETATM    9  C   UNL     1      -7.936  14.800  69.315  1.00  0.00    -0.103 A  
HETATM   10  C   UNL     1      -7.136  13.762  69.823  1.00  0.00     0.274 A  
HETATM   11  C   UNL     1      -6.457  13.162  67.598  1.00  0.00    -0.166 A  
HETATM   12  C   UNL     1      -8.019  15.002  67.931  1.00  0.00    -0.138 A  
ENDROOT
BRANCH   1  13
HETATM   13  N   UNL     1     -12.274  15.719  68.955  1.00  0.00    -0.559 NA 
HETATM   14  H   UNL     1     -12.993  16.384  68.670  1.00  0.00     0.000 HD 
BRANCH  13  15
HETATM   15  C   UNL     1     -12.623  14.330  69.323  1.00  0.00     0.158 C  
BRANCH  15  16
HETATM   16  C   UNL     1     -11.461  13.323  69.218  1.00  0.00    -0.345 C  
BRANCH  16  17
HETATM   17  C   UNL     1     -11.630  12.350  68.037  1.00  0.00    -0.403 C  
BRANCH  17  18
HETATM   18  C   UNL     1     -10.384  11.531  67.803  1.00  0.00    -0.204 A  
HETATM   19  C   UNL     1      -9.840  11.415  66.516  1.00  0.00    -0.237 A  
HETATM   20  C   UNL     1      -8.122   9.933  67.350  1.00  0.00    -0.113 A  
HETATM   21  C   UNL     1      -8.714  10.620  66.293  1.00  0.00    -0.163 A  
HETATM   22  C   UNL     1      -8.649  10.053  68.637  1.00  0.00    -0.123 A  
HETATM   23  C   UNL     1      -9.772  10.849  68.862  1.00  0.00    -0.198 A  
ENDBRANCH  17  18
ENDBRANCH  16  17
ENDBRANCH  15  16
BRANCH  15  24
HETATM   24  C   UNL     1     -13.108  14.346  70.792  1.00  0.00    -0.285 C  
HETATM   25  O   UNL     1     -13.188  13.354  71.504  1.00  0.00    -0.357 OA 
BRANCH  24  26
HETATM   26  O   UNL     1     -13.502  15.605  71.142  1.00  0.00    -0.552 OA 
BRANCH  26  27
HETATM   27  C   UNL     1     -14.030  15.740  72.472  1.00  0.00    -0.456 C  
HETATM   28  C   UNL     1     -12.888  15.848  73.466  1.00  0.00    -0.705 C  
ENDBRANCH  26  27
ENDBRANCH  24  26
ENDBRANCH  15  24
ENDBRANCH  13  15
ENDBRANCH   1  13
BRANCH   5  29
HETATM   29  C   UNL     1      -8.481  16.677  66.130  1.00  0.00    -0.273 C  
HETATM   30  C   UNL     1      -7.636  17.949  66.180  1.00  0.00    -0.260 C  
HETATM   31  O   UNL     1      -7.284  18.553  65.175  1.00  0.00    -0.421 OA 
HETATM   32  O   UNL     1      -7.327  18.401  67.415  1.00  0.00    -0.213 OA 
ENDBRANCH   5  29
TORSDOF 9
ENDMDL
MODEL      208
REMARK 921   NORMALIZED FREE ENERGY PREDICTED BY IDOCK:   -3.43 KCAL/MOL
REMARK 922        TOTAL FREE ENERGY PREDICTED BY IDOCK:   -7.39 KCAL/MOL
REMARK 923 INTER-LIGAND FREE ENERGY PREDICTED BY IDOCK:   -5.15 KCAL/MOL
REMARK 924 INTRA-LIGAND FREE ENERGY PREDICTED BY IDOCK:   -2.24 KCAL/MOL
REMARK 927      BINDING AFFINITY PREDICTED BY RF-SCORE:    0.00 PKD
ROOT
HETATM    1  C   UNL     1     -10.147   7.707  67.835  1.00  0.00    -0.185 C  
HETATM    2  C   UNL     1     -10.638   6.365  68.373  1.00  0.00    -0.311 C  
HETATM    3  O   UNL     1      -8.815   9.573  68.655  1.00  0.00    -0.129 OA 
HETATM    4  C   UNL     1     -10.863   6.187  73.030  1.00  0.00    -0.284 A  
HETATM    5  N   UNL     1     -10.674   9.086  69.924  1.00  0.00    -0.227 N  
HETATM    6  C   UNL     1     -11.783   6.491  69.361  1.00  0.00    -0.088 C  
HETATM    7  C   UNL     1      -9.760   8.806  68.883  1.00  0.00    -0.172 C  
HETATM    8  C   UNL     1     -10.307   8.416  72.291  1.00  0.00    -0.403 A  
HETATM    9  C   UNL     1     -11.253   6.846  70.722  1.00  0.00    -0.338 A  
HETATM   10  C   UNL     1     -11.311   5.887  71.748  1.00  0.00    -0.289 A  
HETATM   11  C   UNL     1     -10.368   7.456  73.303  1.00  0.00    -0.405 A  
HETATM   12  C   UNL     1     -10.721   8.115  70.984  1.00  0.00    -0.217 A  
ENDROOT
BRANCH   1  13
HETATM   13  N   UNL     1      -8.970   7.488  66.958  1.00  0.00    -0.126 NA 
HETATM   14  H   UNL     1      -9.050   7.565  65.944  1.00  0.00     0.000 HD 
BRANCH  13  15
HETATM   15  C   UNL     1      -7.678   7.156  67.598  1.00  0.00    -0.112 C  
BRANCH  15  16
HETATM   16  C   UNL     1      -7.716   5.931  68.532  1.00  0.00    -0.094 C  
BRANCH  16  17
HETATM   17  C   UNL     1      -7.394   6.294  69.993  1.00  0.00    -0.082 C  
BRANCH  17  18
HETATM   18  C   UNL     1      -7.811   5.200  70.946  1.00  0.00    -0.096 A  
HETATM   19  C   UNL     1      -7.386   5.223  72.282  1.00  0.00    -0.093 A  
HETATM   20  C   UNL     1      -8.508   3.122  72.697  1.00  0.00    -0.081 A  
HETATM   21  C   UNL     1      -7.735   4.187  73.152  1.00  0.00    -0.081 A  
HETATM   22  C   UNL     1      -8.946   3.098  71.373  1.00  0.00    -0.156 A  
HETATM   23  C   UNL     1      -8.602   4.133  70.503  1.00  0.00    -0.111 A  
ENDBRANCH  17  18
ENDBRANCH  16  17
ENDBRANCH  15  16
BRANCH  15  24
HETATM   24  C   UNL     1      -6.663   6.863  66.468  1.00  0.00    -0.052 C  
HETATM   25  O   UNL     1      -5.758   6.044  66.549  1.00  0.00    -0.012 OA 
BRANCH  24  26
HETATM   26  O   UNL     1      -6.880   7.703  65.414  1.00  0.00    -0.044 OA 
BRANCH  26  27
HETATM   27  C   UNL     1      -5.712   8.047  64.649  1.00  0.00    -0.044 C  
HETATM   28  C   UNL     1      -5.159   9.376  65.131  1.00  0.00    -0.039 C  
ENDBRANCH  26  27
ENDBRANCH  24  26
ENDBRANCH  15  24
ENDBRANCH  13  15
ENDBRANCH   1  13
BRANCH   5  29
HETATM   29  C   UNL     1     -10.714  10.518  70.285  1.00  0.00    -0.100 C  
HETATM   30  C   UNL     1     -12.082  11.196  70.231  1.00  0.00    -0.377 C  
HETATM   31  O   UNL     1     -12.248  12.380  70.494  1.00  0.00    -0.361 OA 
HETATM   32  O   UNL     1     -13.110  10.415  69.831  1.00  0.00    -0.038 OA 
ENDBRANCH   5  29
TORSDOF 9
ENDMDL
MODEL      209
REMARK 921   NORMALIZED FREE ENERGY PREDICTED BY IDOCK:   -3.40 KCAL/MOL
REMARK 922        TOTAL FREE ENERGY PREDICTED BY IDOCK:   -7.35 KCAL/MOL
REMARK 923 INTER-LIGAND FREE ENERGY PREDICTED BY IDOCK:   -6.63 KCAL/MOL
REMARK 924 INTRA-LIGAND FREE ENERGY PREDICTED BY IDOCK:   -0.72 KCAL/MOL
REMARK 927      BINDING AFFINITY PREDICTED BY RF-SCORE:    0.00 PKD
ROOT
HETATM    1  C   UNL     1      -9.533  14.574  68.254  1.00  0.00    -0.207 C  
HETATM    2  C   UNL     1      -8.239  14.659  69.060  1.00  0.00    -0.110 C  
HETATM    3  O   UNL     1     -10.257  15.113  65.992  1.00  0.00    -0.272 OA 
HETATM    4  C   UNL     1      -5.229  17.836  67.444  1.00  0.00    -0.143 A  
HETATM    5  N   UNL     1      -9.365  16.882  67.164  1.00  0.00    -0.231 N  
HETATM    6  C   UNL     1      -7.888  16.069  69.496  1.00  0.00    -0.065 C  
HETATM    7  C   UNL     1      -9.665  15.511  67.004  1.00  0.00    -0.224 C  
HETATM    8  C   UNL     1      -7.320  17.957  66.243  1.00  0.00    -0.327 A  
HETATM    9  C   UNL     1      -7.232  16.811  68.364  1.00  0.00    -0.191 A  
HETATM   10  C   UNL     1      -5.865  17.121  68.453  1.00  0.00    -0.140 A  
HETATM   11  C   UNL     1      -5.959  18.261  66.341  1.00  0.00    -0.202 A  
HETATM   12  C   UNL     1      -7.965  17.206  67.237  1.00  0.00    -0.179 A  
ENDROOT
BRANCH   1  13
HETATM   13  N   UNL     1      -9.739  13.180  67.793  1.00  0.00    -0.211 NA 
HETATM   14  H   UNL     1      -8.962  12.626  67.434  1.00  0.00     0.000 HD 
BRANCH  13  15
HETATM   15  C   UNL     1     -11.106  12.617  67.868  1.00  0.00    -0.247 C  
BRANCH  15  16
HETATM   16  C   UNL     1     -11.181  11.085  67.720  1.00  0.00    -0.374 C  
BRANCH  16  17
HETATM   17  C   UNL     1     -10.028  10.517  66.873  1.00  0.00    -0.246 C  
BRANCH  17  18
HETATM   18  C   UNL     1      -8.730  10.487  67.642  1.00  0.00    -0.121 A  
HETATM   19  C   UNL     1      -8.718  10.138  69.001  1.00  0.00    -0.161 A  
HETATM   20  C   UNL     1      -6.332  10.520  69.099  1.00  0.00    -0.051 A  
HETATM   21  C   UNL     1      -7.522  10.154  69.724  1.00  0.00    -0.166 A  
HETATM   22  C   UNL     1      -6.334  10.856  67.745  1.00  0.00    -0.062 A  
HETATM   23  C   UNL     1      -7.525  10.837  67.021  1.00  0.00    -0.114 A  
ENDBRANCH  17  18
ENDBRANCH  16  17
ENDBRANCH  15  16
BRANCH  15  24
HETATM   24  C   UNL     1     -11.686  12.990  69.253  1.00  0.00    -0.320 C  
HETATM   25  O   UNL     1     -11.635  12.270  70.240  1.00  0.00    -0.196 OA 
BRANCH  24  26
HETATM   26  O   UNL     1     -12.324  14.195  69.184  1.00  0.00    -0.301 OA 
BRANCH  26  27
HETATM   27  C   UNL     1     -12.730  14.752  70.445  1.00  0.00    -0.316 C  
HETATM   28  C   UNL     1     -11.661  15.704  70.950  1.00  0.00    -0.424 C  
ENDBRANCH  26  27
ENDBRANCH  24  26
ENDBRANCH  15  24
ENDBRANCH  13  15
ENDBRANCH   1  13
BRANCH   5  29
HETATM   29  C   UNL     1     -10.244  17.762  66.366  1.00  0.00    -0.365 C  
HETATM   30  C   UNL     1     -10.768  19.016  67.063  1.00  0.00    -0.432 C  
HETATM   31  O   UNL     1     -11.514  19.818  66.517  1.00  0.00     0.160 OA 
HETATM   32  O   UNL     1     -10.390  19.174  68.351  1.00  0.00    -0.390 OA 
ENDBRANCH   5  29
TORSDOF 9
ENDMDL
MODEL      210
REMARK 921   NORMALIZED FREE ENERGY PREDICTED BY IDOCK:   -3.40 KCAL/MOL
REMARK 922        TOTAL FREE ENERGY PREDICTED BY IDOCK:   -7.34 KCAL/MOL
REMARK 923 INTER-LIGAND FREE ENERGY PREDICTED BY IDOCK:   -5.70 KCAL/MOL
REMARK 924 INTRA-LIGAND FREE ENERGY PREDICTED BY IDOCK:   -1.64 KCAL/MOL
REMARK 927      BINDING AFFINITY PREDICTED BY RF-SCORE:    0.00 PKD
ROOT
HETATM    1  C   UNL     1      -9.496   9.698  69.722  1.00  0.00    -0.220 C  
HETATM    2  C   UNL     1      -7.994   9.651  69.458  1.00  0.00    -0.125 C  
HETATM    3  O   UNL     1     -10.955   9.895  71.662  1.00  0.00    -0.137 OA 
HETATM    4  C   UNL     1      -5.489   8.230  73.130  1.00  0.00    -0.052 A  
HETATM    5  N   UNL     1      -9.503   8.109  71.727  1.00  0.00    -0.171 N  
HETATM    6  C   UNL     1      -7.355   8.324  69.826  1.00  0.00    -0.065 C  
HETATM    7  C   UNL     1      -9.987   9.309  71.159  1.00  0.00    -0.286 C  
HETATM    8  C   UNL     1      -7.852   8.038  73.586  1.00  0.00    -0.234 A  
HETATM    9  C   UNL     1      -7.098   8.268  71.306  1.00  0.00    -0.063 A  
HETATM   10  C   UNL     1      -5.772   8.314  71.771  1.00  0.00    -0.038 A  
HETATM   11  C   UNL     1      -6.531   8.084  74.038  1.00  0.00    -0.123 A  
HETATM   12  C   UNL     1      -8.153   8.158  72.221  1.00  0.00    -0.139 A  
ENDROOT
BRANCH   1  13
HETATM   13  N   UNL     1     -10.009  11.057  69.425  1.00  0.00    -0.429 NA 
HETATM   14  H   UNL     1     -10.052  11.772  70.152  1.00  0.00     0.000 HD 
BRANCH  13  15
HETATM   15  C   UNL     1     -10.458  11.346  68.045  1.00  0.00    -0.188 C  
BRANCH  15  16
HETATM   16  C   UNL     1     -10.695  10.100  67.170  1.00  0.00    -0.286 C  
BRANCH  16  17
HETATM   17  C   UNL     1     -10.342  10.343  65.691  1.00  0.00    -0.260 C  
BRANCH  17  18
HETATM   18  C   UNL     1      -9.289   9.379  65.202  1.00  0.00    -0.288 A  
HETATM   19  C   UNL     1      -8.813   9.455  63.884  1.00  0.00    -0.205 A  
HETATM   20  C   UNL     1      -7.399   7.530  64.260  1.00  0.00    -0.090 A  
HETATM   21  C   UNL     1      -7.872   8.534  63.418  1.00  0.00    -0.150 A  
HETATM   22  C   UNL     1      -7.857   7.456  65.576  1.00  0.00    -0.115 A  
HETATM   23  C   UNL     1      -8.795   8.376  66.044  1.00  0.00    -0.202 A  
ENDBRANCH  17  18
ENDBRANCH  16  17
ENDBRANCH  15  16
BRANCH  15  24
HETATM   24  C   UNL     1     -11.792  12.121  68.143  1.00  0.00    -0.299 C  
HETATM   25  O   UNL     1     -12.240  12.841  67.261  1.00  0.00    -0.387 OA 
BRANCH  24  26
HETATM   26  O   UNL     1     -12.347  11.945  69.379  1.00  0.00    -0.164 OA 
BRANCH  26  27
HETATM   27  C   UNL     1     -12.742  13.150  70.055  1.00  0.00     0.204 C  
HETATM   28  C   UNL     1     -13.315  12.807  71.418  1.00  0.00    -0.116 C  
ENDBRANCH  26  27
ENDBRANCH  24  26
ENDBRANCH  15  24
ENDBRANCH  13  15
ENDBRANCH   1  13
BRANCH   5  29
HETATM   29  C   UNL     1     -10.519   7.406  72.539  1.00  0.00    -0.236 C  
HETATM   30  C   UNL     1     -11.482   6.493  71.782  1.00  0.00    -0.300 C  
HETATM   31  O   UNL     1     -12.376   5.865  72.336  1.00  0.00    -0.198 OA 
HETATM   32  O   UNL     1     -11.317   6.446  70.442  1.00  0.00    -0.336 OA 
ENDBRANCH   5  29
TORSDOF 9
ENDMDL
MODEL      211
REMARK 921   NORMALIZED FREE ENERGY PREDICTED BY IDOCK:   -3.39 KCAL/MOL
REMARK 922        TOTAL FREE ENERGY PREDICTED BY IDOCK:   -7.33 KCAL/MOL
REMARK 923 INTER-LIGAND FREE ENERGY PREDICTED BY IDOCK:   -5.76 KCAL/MOL
REMARK 924 INTRA-LIGAND FREE ENERGY PREDICTED BY IDOCK:   -1.56 KCAL/MOL
REMARK 927      BINDING AFFINITY PREDICTED BY RF-SCORE:    0.00 PKD
ROOT
HETATM    1  C   UNL     1      -9.348  10.494  67.657  1.00  0.00    -0.149 C  
HETATM    2  C   UNL     1      -8.856  11.060  66.327  1.00  0.00    -0.187 C  
HETATM    3  O   UNL     1     -11.491  10.161  68.763  1.00  0.00    -0.167 OA 
HETATM    4  C   UNL     1     -11.827  14.072  64.360  1.00  0.00    -0.453 A  
HETATM    5  N   UNL     1     -11.045  12.339  68.164  1.00  0.00    -0.224 N  
HETATM    6  C   UNL     1      -8.902  12.576  66.260  1.00  0.00     0.059 C  
HETATM    7  C   UNL     1     -10.760  10.955  68.157  1.00  0.00    -0.214 C  
HETATM    8  C   UNL     1     -12.597  13.429  66.555  1.00  0.00    -0.101 A  
HETATM    9  C   UNL     1     -10.298  13.035  65.940  1.00  0.00    -0.296 A  
HETATM   10  C   UNL     1     -10.558  13.603  64.681  1.00  0.00    -0.446 A  
HETATM   11  C   UNL     1     -12.846  13.993  65.301  1.00  0.00    -0.418 A  
HETATM   12  C   UNL     1     -11.331  12.919  66.880  1.00  0.00    -0.312 A  
ENDROOT
BRANCH   1  13
HETATM   13  N   UNL     1      -9.357   9.012  67.591  1.00  0.00    -0.135 NA 
HETATM   14  H   UNL     1      -9.946   8.521  66.919  1.00  0.00     0.000 HD 
BRANCH  13  15
HETATM   15  C   UNL     1      -8.488   8.269  68.530  1.00  0.00    -0.126 C  
BRANCH  15  16
HETATM   16  C   UNL     1      -8.831   6.774  68.680  1.00  0.00    -0.123 C  
BRANCH  16  17
HETATM   17  C   UNL     1      -9.649   6.482  69.951  1.00  0.00    -0.163 C  
BRANCH  17  18
HETATM   18  C   UNL     1      -8.901   6.877  71.201  1.00  0.00    -0.142 A  
HETATM   19  C   UNL     1      -7.654   6.304  71.494  1.00  0.00    -0.099 A  
HETATM   20  C   UNL     1      -7.549   7.538  73.570  1.00  0.00    -0.129 A  
HETATM   21  C   UNL     1      -6.983   6.636  72.673  1.00  0.00    -0.072 A  
HETATM   22  C   UNL     1      -8.783   8.123  73.280  1.00  0.00    -0.313 A  
HETATM   23  C   UNL     1      -9.453   7.796  72.102  1.00  0.00    -0.216 A  
ENDBRANCH  17  18
ENDBRANCH  16  17
ENDBRANCH  15  16
BRANCH  15  24
HETATM   24  C   UNL     1      -7.038   8.374  68.001  1.00  0.00    -0.086 C  
HETATM   25  O   UNL     1      -6.696   8.092  66.861  1.00  0.00    -0.062 OA 
BRANCH  24  26
HETATM   26  O   UNL     1      -6.197   8.746  69.011  1.00  0.00    -0.043 OA 
BRANCH  26  27
HETATM   27  C   UNL     1      -5.922  10.155  69.096  1.00  0.00    -0.037 C  
HETATM   28  C   UNL     1      -6.624  10.740  70.309  1.00  0.00    -0.100 C  
ENDBRANCH  26  27
ENDBRANCH  24  26
ENDBRANCH  15  24
ENDBRANCH  13  15
ENDBRANCH   1  13
BRANCH   5  29
HETATM   29  C   UNL     1     -11.875  12.750  69.316  1.00  0.00    -0.303 C  
HETATM   30  C   UNL     1     -11.530  14.091  69.961  1.00  0.00    -0.168 C  
HETATM   31  O   UNL     1     -12.132  14.539  70.928  1.00  0.00    -0.299 OA 
HETATM   32  O   UNL     1     -10.480  14.749  69.421  1.00  0.00    -0.237 OA 
ENDBRANCH   5  29
TORSDOF 9
ENDMDL
MODEL      212
REMARK 921   NORMALIZED FREE ENERGY PREDICTED BY IDOCK:   -3.35 KCAL/MOL
REMARK 922        TOTAL FREE ENERGY PREDICTED BY IDOCK:   -7.28 KCAL/MOL
REMARK 923 INTER-LIGAND FREE ENERGY PREDICTED BY IDOCK:   -6.27 KCAL/MOL
REMARK 924 INTRA-LIGAND FREE ENERGY PREDICTED BY IDOCK:   -1.00 KCAL/MOL
REMARK 927      BINDING AFFINITY PREDICTED BY RF-SCORE:    0.00 PKD
ROOT
HETATM    1  C   UNL     1      -9.680  13.893  67.335  1.00  0.00    -0.234 C  
HETATM    2  C   UNL     1      -8.753  13.645  68.522  1.00  0.00    -0.102 C  
HETATM    3  O   UNL     1      -9.662  15.258  65.319  1.00  0.00    -0.271 OA 
HETATM    4  C   UNL     1      -5.779  17.147  69.339  1.00  0.00    -0.198 A  
HETATM    5  N   UNL     1      -9.434  16.439  67.283  1.00  0.00    -0.225 N  
HETATM    6  C   UNL     1      -8.740  14.781  69.529  1.00  0.00     0.110 C  
HETATM    7  C   UNL     1      -9.496  15.235  66.546  1.00  0.00    -0.283 C  
HETATM    8  C   UNL     1      -7.343  17.747  67.601  1.00  0.00    -0.207 A  
HETATM    9  C   UNL     1      -7.837  15.883  69.051  1.00  0.00    -0.216 A  
HETATM   10  C   UNL     1      -6.626  16.114  69.727  1.00  0.00    -0.137 A  
HETATM   11  C   UNL     1      -6.142  17.969  68.279  1.00  0.00    -0.178 A  
HETATM   12  C   UNL     1      -8.190  16.687  67.959  1.00  0.00    -0.185 A  
ENDROOT
BRANCH   1  13
HETATM   13  N   UNL     1      -9.551  12.780  66.364  1.00  0.00    -0.256 NA 
HETATM   14  H   UNL     1      -8.646  12.540  65.959  1.00  0.00     0.000 HD 
BRANCH  13  15
HETATM   15  C   UNL     1     -10.772  12.028  66.000  1.00  0.00    -0.279 C  
BRANCH  15  16
HETATM   16  C   UNL     1     -10.610  11.077  64.798  1.00  0.00    -0.350 C  
BRANCH  16  17
HETATM   17  C   UNL     1      -9.236  11.216  64.118  1.00  0.00    -0.121 C  
BRANCH  17  18
HETATM   18  C   UNL     1      -8.322  10.066  64.463  1.00  0.00    -0.168 A  
HETATM   19  C   UNL     1      -7.020  10.307  64.926  1.00  0.00    -0.101 A  
HETATM   20  C   UNL     1      -6.588   7.930  65.016  1.00  0.00    -0.051 A  
HETATM   21  C   UNL     1      -6.159   9.242  65.202  1.00  0.00    -0.064 A  
HETATM   22  C   UNL     1      -7.886   7.681  64.568  1.00  0.00    -0.134 A  
HETATM   23  C   UNL     1      -8.748   8.742  64.296  1.00  0.00    -0.038 A  
ENDBRANCH  17  18
ENDBRANCH  16  17
ENDBRANCH  15  16
BRANCH  15  24
HETATM   24  C   UNL     1     -11.178  11.179  67.228  1.00  0.00    -0.277 C  
HETATM   25  O   UNL     1     -11.687  11.634  68.244  1.00  0.00    -0.350 OA 
BRANCH  24  26
HETATM   26  O   UNL     1     -10.813   9.877  67.040  1.00  0.00    -0.213 OA 
BRANCH  26  27
HETATM   27  C   UNL     1     -10.489   9.148  68.235  1.00  0.00    -0.208 C  
HETATM   28  C   UNL     1     -10.550   7.657  67.957  1.00  0.00    -0.213 C  
ENDBRANCH  26  27
ENDBRANCH  24  26
ENDBRANCH  15  24
ENDBRANCH  13  15
ENDBRANCH   1  13
BRANCH   5  29
HETATM   29  C   UNL     1     -10.093  17.569  66.595  1.00  0.00    -0.328 C  
HETATM   30  C   UNL     1     -10.661  18.672  67.488  1.00  0.00    -0.423 C  
HETATM   31  O   UNL     1     -11.241  19.654  67.044  1.00  0.00    -0.319 OA 
HETATM   32  O   UNL     1     -10.521  18.481  68.818  1.00  0.00    -0.253 OA 
ENDBRANCH   5  29
TORSDOF 9
ENDMDL
MODEL      213
REMARK 921   NORMALIZED FREE ENERGY PREDICTED BY IDOCK:   -3.34 KCAL/MOL
REMARK 922        TOTAL FREE ENERGY PREDICTED BY IDOCK:   -7.26 KCAL/MOL
REMARK 923 INTER-LIGAND FREE ENERGY PREDICTED BY IDOCK:   -6.30 KCAL/MOL
REMARK 924 INTRA-LIGAND FREE ENERGY PREDICTED BY IDOCK:   -0.96 KCAL/MOL
REMARK 927      BINDING AFFINITY PREDICTED BY RF-SCORE:    0.00 PKD
ROOT
HETATM    1  C   UNL     1      -9.808  14.348  67.333  1.00  0.00    -0.224 C  
HETATM    2  C   UNL     1     -10.403  15.040  66.110  1.00  0.00    -0.310 C  
HETATM    3  O   UNL     1      -9.600  14.814  69.714  1.00  0.00     0.057 OA 
HETATM    4  C   UNL     1     -10.789  19.666  66.576  1.00  0.00    -0.454 A  
HETATM    5  N   UNL     1      -8.685  16.416  68.336  1.00  0.00    -0.205 N  
HETATM    6  C   UNL     1      -9.571  16.205  65.607  1.00  0.00    -0.185 C  
HETATM    7  C   UNL     1      -9.447  15.248  68.565  1.00  0.00    -0.200 C  
HETATM    8  C   UNL     1      -9.624  18.715  68.465  1.00  0.00    -0.399 A  
HETATM    9  C   UNL     1      -9.845  17.430  66.435  1.00  0.00    -0.311 A  
HETATM   10  C   UNL     1     -10.546  18.502  65.856  1.00  0.00    -0.336 A  
HETATM   11  C   UNL     1     -10.321  19.775  67.880  1.00  0.00    -0.569 A  
HETATM   12  C   UNL     1      -9.403  17.521  67.761  1.00  0.00    -0.257 A  
ENDROOT
BRANCH   1  13
HETATM   13  N   UNL     1     -10.736  13.292  67.806  1.00  0.00    -0.240 NA 
HETATM   14  H   UNL     1     -11.703  13.512  68.044  1.00  0.00     0.000 HD 
BRANCH  13  15
HETATM   15  C   UNL     1     -10.218  11.911  67.922  1.00  0.00    -0.193 C  
BRANCH  15  16
HETATM   16  C   UNL     1     -11.220  10.810  67.523  1.00  0.00    -0.346 C  
BRANCH  16  17
HETATM   17  C   UNL     1     -11.376   9.733  68.612  1.00  0.00     0.024 C  
BRANCH  17  18
HETATM   18  C   UNL     1     -10.330   8.653  68.486  1.00  0.00    -0.228 A  
HETATM   19  C   UNL     1      -9.663   8.174  69.623  1.00  0.00    -0.170 A  
HETATM   20  C   UNL     1      -8.319   6.711  68.245  1.00  0.00    -0.117 A  
HETATM   21  C   UNL     1      -8.662   7.207  69.501  1.00  0.00    -0.134 A  
HETATM   22  C   UNL     1      -8.987   7.173  67.110  1.00  0.00    -0.129 A  
HETATM   23  C   UNL     1      -9.988   8.136  67.231  1.00  0.00    -0.283 A  
ENDBRANCH  17  18
ENDBRANCH  16  17
ENDBRANCH  15  16
BRANCH  15  24
HETATM   24  C   UNL     1      -8.988  11.796  66.991  1.00  0.00    -0.186 C  
HETATM   25  O   UNL     1      -9.016  11.989  65.783  1.00  0.00    -0.068 OA 
BRANCH  24  26
HETATM   26  O   UNL     1      -7.900  11.376  67.700  1.00  0.00    -0.113 OA 
BRANCH  26  27
HETATM   27  C   UNL     1      -7.053  12.420  68.208  1.00  0.00    -0.098 C  
HETATM   28  C   UNL     1      -5.794  12.512  67.363  1.00  0.00    -0.137 C  
ENDBRANCH  26  27
ENDBRANCH  24  26
ENDBRANCH  15  24
ENDBRANCH  13  15
ENDBRANCH   1  13
BRANCH   5  29
HETATM   29  C   UNL     1      -7.723  16.697  69.422  1.00  0.00     0.007 C  
HETATM   30  C   UNL     1      -6.301  17.058  68.996  1.00  0.00    -0.198 C  
HETATM   31  O   UNL     1      -5.408  17.300  69.797  1.00  0.00    -0.169 OA 
HETATM   32  O   UNL     1      -6.068  17.056  67.665  1.00  0.00    -0.126 OA 
ENDBRANCH   5  29
TORSDOF 9
ENDMDL
MODEL      214
REMARK 921   NORMALIZED FREE ENERGY PREDICTED BY IDOCK:   -3.34 KCAL/MOL
REMARK 922        TOTAL FREE ENERGY PREDICTED BY IDOCK:   -7.25 KCAL/MOL
REMARK 923 INTER-LIGAND FREE ENERGY PREDICTED BY IDOCK:   -6.18 KCAL/MOL
REMARK 924 INTRA-LIGAND FREE ENERGY PREDICTED BY IDOCK:   -1.07 KCAL/MOL
REMARK 927      BINDING AFFINITY PREDICTED BY RF-SCORE:    0.00 PKD
ROOT
HETATM    1  C   UNL     1      -8.780  10.003  67.080  1.00  0.00    -0.128 C  
HETATM    2  C   UNL     1      -8.050  11.204  66.484  1.00  0.00    -0.163 C  
HETATM    3  O   UNL     1     -11.076   9.205  67.213  1.00  0.00    -0.030 OA 
HETATM    4  C   UNL     1     -10.773  14.945  65.886  1.00  0.00    -0.329 A  
HETATM    5  N   UNL     1     -10.736  11.307  68.089  1.00  0.00    -0.192 N  
HETATM    6  C   UNL     1      -8.240  12.484  67.276  1.00  0.00    -0.184 C  
HETATM    7  C   UNL     1     -10.311  10.165  67.373  1.00  0.00    -0.238 C  
HETATM    8  C   UNL     1     -11.969  13.199  67.048  1.00  0.00    -0.412 A  
HETATM    9  C   UNL     1      -9.561  13.113  66.929  1.00  0.00    -0.248 A  
HETATM   10  C   UNL     1      -9.574  14.313  66.197  1.00  0.00    -0.300 A  
HETATM   11  C   UNL     1     -11.971  14.392  66.319  1.00  0.00    -0.391 A  
HETATM   12  C   UNL     1     -10.769  12.532  67.336  1.00  0.00    -0.229 A  
ENDROOT
BRANCH   1  13
HETATM   13  N   UNL     1      -8.615   8.830  66.189  1.00  0.00    -0.138 NA 
HETATM   14  H   UNL     1      -8.729   8.918  65.179  1.00  0.00     0.000 HD 
BRANCH  13  15
HETATM   15  C   UNL     1      -8.281   7.527  66.807  1.00  0.00    -0.124 C  
BRANCH  15  16
HETATM   16  C   UNL     1      -7.232   6.699  66.040  1.00  0.00    -0.071 C  
BRANCH  16  17
HETATM   17  C   UNL     1      -7.496   5.186  66.129  1.00  0.00    -0.086 C  
BRANCH  17  18
HETATM   18  C   UNL     1      -8.535   4.739  65.130  1.00  0.00    -0.135 A  
HETATM   19  C   UNL     1      -9.823   4.382  65.556  1.00  0.00    -0.225 A  
HETATM   20  C   UNL     1     -10.442   3.820  63.288  1.00  0.00    -0.227 A  
HETATM   21  C   UNL     1     -10.771   3.925  64.637  1.00  0.00    -0.136 A  
HETATM   22  C   UNL     1      -9.168   4.186  62.853  1.00  0.00    -0.125 A  
HETATM   23  C   UNL     1      -8.221   4.645  63.769  1.00  0.00    -0.108 A  
ENDBRANCH  17  18
ENDBRANCH  16  17
ENDBRANCH  15  16
BRANCH  15  24
HETATM   24  C   UNL     1      -7.722   7.814  68.220  1.00  0.00    -0.119 C  
HETATM   25  O   UNL     1      -6.582   8.195  68.448  1.00  0.00    -0.056 OA 
BRANCH  24  26
HETATM   26  O   UNL     1      -8.657   7.504  69.166  1.00  0.00    -0.134 OA 
BRANCH  26  27
HETATM   27  C   UNL     1      -9.596   6.482  68.794  1.00  0.00    -0.126 C  
HETATM   28  C   UNL     1     -10.408   6.067  70.008  1.00  0.00    -0.290 C  
ENDBRANCH  26  27
ENDBRANCH  24  26
ENDBRANCH  15  24
ENDBRANCH  13  15
ENDBRANCH   1  13
BRANCH   5  29
HETATM   29  C   UNL     1     -11.855  11.024  69.012  1.00  0.00    -0.329 C  
HETATM   30  C   UNL     1     -11.492  10.351  70.336  1.00  0.00    -0.337 C  
HETATM   31  O   UNL     1     -12.326  10.053  71.180  1.00  0.00    -0.321 OA 
HETATM   32  O   UNL     1     -10.183  10.062  70.509  1.00  0.00    -0.251 OA 
ENDBRANCH   5  29
TORSDOF 9
ENDMDL
MODEL      215
REMARK 921   NORMALIZED FREE ENERGY PREDICTED BY IDOCK:   -3.29 KCAL/MOL
REMARK 922        TOTAL FREE ENERGY PREDICTED BY IDOCK:   -7.18 KCAL/MOL
REMARK 923 INTER-LIGAND FREE ENERGY PREDICTED BY IDOCK:   -6.62 KCAL/MOL
REMARK 924 INTRA-LIGAND FREE ENERGY PREDICTED BY IDOCK:   -0.56 KCAL/MOL
REMARK 927      BINDING AFFINITY PREDICTED BY RF-SCORE:    0.00 PKD
ROOT
HETATM    1  C   UNL     1      -8.792  10.426  68.901  1.00  0.00    -0.161 C  
HETATM    2  C   UNL     1      -8.663   9.987  67.445  1.00  0.00    -0.125 C  
HETATM    3  O   UNL     1      -8.016   9.638  71.071  1.00  0.00    -0.301 OA 
HETATM    4  C   UNL     1      -7.734   5.443  66.931  1.00  0.00    -0.100 A  
HETATM    5  N   UNL     1      -9.256   8.107  69.878  1.00  0.00    -0.151 N  
HETATM    6  C   UNL     1      -9.523   8.787  67.094  1.00  0.00    -0.208 C  
HETATM    7  C   UNL     1      -8.568   9.335  70.004  1.00  0.00    -0.182 C  
HETATM    8  C   UNL     1      -8.149   5.970  69.251  1.00  0.00    -0.108 A  
HETATM    9  C   UNL     1      -8.845   7.520  67.538  1.00  0.00    -0.127 A  
HETATM   10  C   UNL     1      -8.337   6.642  66.565  1.00  0.00    -0.117 A  
HETATM   11  C   UNL     1      -7.647   5.104  68.276  1.00  0.00    -0.079 A  
HETATM   12  C   UNL     1      -8.726   7.199  68.896  1.00  0.00    -0.128 A  
ENDROOT
BRANCH   1  13
HETATM   13  N   UNL     1      -7.847  11.537  69.170  1.00  0.00    -0.346 NA 
HETATM   14  H   UNL     1      -7.295  11.560  70.027  1.00  0.00     0.000 HD 
BRANCH  13  15
HETATM   15  C   UNL     1      -7.728  12.609  68.158  1.00  0.00    -0.142 C  
BRANCH  15  16
HETATM   16  C   UNL     1      -8.824  13.690  68.230  1.00  0.00    -0.179 C  
BRANCH  16  17
HETATM   17  C   UNL     1      -9.038  14.402  66.882  1.00  0.00    -0.269 C  
BRANCH  17  18
HETATM   18  C   UNL     1     -10.310  13.952  66.206  1.00  0.00    -0.293 A  
HETATM   19  C   UNL     1     -10.886  12.714  66.529  1.00  0.00    -0.285 A  
HETATM   20  C   UNL     1     -12.623  13.070  64.885  1.00  0.00    -0.490 A  
HETATM   21  C   UNL     1     -12.038  12.277  65.870  1.00  0.00    -0.261 A  
HETATM   22  C   UNL     1     -12.065  14.308  64.568  1.00  0.00    -0.499 A  
HETATM   23  C   UNL     1     -10.917  14.747  65.227  1.00  0.00    -0.382 A  
ENDBRANCH  17  18
ENDBRANCH  16  17
ENDBRANCH  15  16
BRANCH  15  24
HETATM   24  C   UNL     1      -6.362  13.302  68.374  1.00  0.00    -0.086 C  
HETATM   25  O   UNL     1      -5.389  13.154  67.647  1.00  0.00    -0.193 OA 
BRANCH  24  26
HETATM   26  O   UNL     1      -6.382  14.029  69.529  1.00  0.00    -0.109 OA 
BRANCH  26  27
HETATM   27  C   UNL     1      -5.673  15.278  69.485  1.00  0.00    -0.101 C  
HETATM   28  C   UNL     1      -5.265  15.685  70.890  1.00  0.00    -0.145 C  
ENDBRANCH  26  27
ENDBRANCH  24  26
ENDBRANCH  15  24
ENDBRANCH  13  15
ENDBRANCH   1  13
BRANCH   5  29
HETATM   29  C   UNL     1      -9.692   7.555  71.177  1.00  0.00    -0.162 C  
HETATM   30  C   UNL     1     -10.742   6.447  71.129  1.00  0.00    -0.244 C  
HETATM   31  O   UNL     1     -11.196   5.916  72.134  1.00  0.00    -0.266 OA 
HETATM   32  O   UNL     1     -11.181   6.106  69.896  1.00  0.00    -0.375 OA 
ENDBRANCH   5  29
TORSDOF 9
ENDMDL
MODEL      216
REMARK 921   NORMALIZED FREE ENERGY PREDICTED BY IDOCK:   -3.25 KCAL/MOL
REMARK 922        TOTAL FREE ENERGY PREDICTED BY IDOCK:   -7.11 KCAL/MOL
REMARK 923 INTER-LIGAND FREE ENERGY PREDICTED BY IDOCK:   -5.79 KCAL/MOL
REMARK 924 INTRA-LIGAND FREE ENERGY PREDICTED BY IDOCK:   -1.31 KCAL/MOL
REMARK 927      BINDING AFFINITY PREDICTED BY RF-SCORE:    0.00 PKD
ROOT
HETATM    1  C   UNL     1      -9.478   7.279  69.625  1.00  0.00    -0.155 C  
HETATM    2  C   UNL     1      -8.851   6.058  68.959  1.00  0.00    -0.121 C  
HETATM    3  O   UNL     1     -10.024   7.985  71.891  1.00  0.00    -0.173 OA 
HETATM    4  C   UNL     1      -9.188   2.158  71.499  1.00  0.00    -0.170 A  
HETATM    5  N   UNL     1     -10.994   6.001  71.241  1.00  0.00    -0.274 N  
HETATM    6  C   UNL     1      -9.778   4.858  68.897  1.00  0.00    -0.242 C  
HETATM    7  C   UNL     1     -10.104   7.081  71.048  1.00  0.00    -0.195 C  
HETATM    8  C   UNL     1     -10.415   3.959  72.538  1.00  0.00    -0.176 A  
HETATM    9  C   UNL     1      -9.779   4.139  70.218  1.00  0.00    -0.277 A  
HETATM   10  C   UNL     1      -9.177   2.871  70.305  1.00  0.00    -0.209 A  
HETATM   11  C   UNL     1      -9.815   2.700  72.614  1.00  0.00    -0.203 A  
HETATM   12  C   UNL     1     -10.380   4.704  71.350  1.00  0.00    -0.090 A  
ENDROOT
BRANCH   1  13
HETATM   13  N   UNL     1      -8.470   8.362  69.726  1.00  0.00    -0.125 NA 
HETATM   14  H   UNL     1      -7.737   8.332  70.435  1.00  0.00     0.000 HD 
BRANCH  13  15
HETATM   15  C   UNL     1      -8.557   9.486  68.767  1.00  0.00    -0.123 C  
BRANCH  15  16
HETATM   16  C   UNL     1      -9.593  10.567  69.132  1.00  0.00    -0.214 C  
BRANCH  16  17
HETATM   17  C   UNL     1     -10.774  10.608  68.146  1.00  0.00    -0.267 C  
BRANCH  17  18
HETATM   18  C   UNL     1     -10.928  11.969  67.513  1.00  0.00    -0.303 A  
HETATM   19  C   UNL     1     -10.397  13.107  68.138  1.00  0.00    -0.247 A  
HETATM   20  C   UNL     1     -11.294  14.513  66.387  1.00  0.00    -0.349 A  
HETATM   21  C   UNL     1     -10.580  14.372  67.575  1.00  0.00    -0.265 A  
HETATM   22  C   UNL     1     -11.814  13.384  65.753  1.00  0.00    -0.412 A  
HETATM   23  C   UNL     1     -11.630  12.120  66.311  1.00  0.00    -0.424 A  
ENDBRANCH  17  18
ENDBRANCH  16  17
ENDBRANCH  15  16
BRANCH  15  24
HETATM   24  C   UNL     1      -7.165  10.158  68.713  1.00  0.00    -0.081 C  
HETATM   25  O   UNL     1      -6.370  10.029  67.792  1.00  0.00    -0.057 OA 
BRANCH  24  26
HETATM   26  O   UNL     1      -6.930  10.844  69.870  1.00  0.00    -0.147 OA 
BRANCH  26  27
HETATM   27  C   UNL     1      -5.947  11.889  69.779  1.00  0.00    -0.132 C  
HETATM   28  C   UNL     1      -6.577  13.133  69.179  1.00  0.00    -0.104 C  
ENDBRANCH  26  27
ENDBRANCH  24  26
ENDBRANCH  15  24
ENDBRANCH  13  15
ENDBRANCH   1  13
BRANCH   5  29
HETATM   29  C   UNL     1     -12.105   6.326  72.159  1.00  0.00    -0.252 C  
HETATM   30  C   UNL     1     -13.325   7.006  71.538  1.00  0.00    -0.294 C  
HETATM   31  O   UNL     1     -14.305   7.338  72.191  1.00  0.00    -0.257 OA 
HETATM   32  O   UNL     1     -13.245   7.260  70.213  1.00  0.00     0.546 OA 
ENDBRANCH   5  29
TORSDOF 9
ENDMDL
MODEL      217
REMARK 921   NORMALIZED FREE ENERGY PREDICTED BY IDOCK:   -3.23 KCAL/MOL
REMARK 922        TOTAL FREE ENERGY PREDICTED BY IDOCK:   -7.09 KCAL/MOL
REMARK 923 INTER-LIGAND FREE ENERGY PREDICTED BY IDOCK:   -5.49 KCAL/MOL
REMARK 924 INTRA-LIGAND FREE ENERGY PREDICTED BY IDOCK:   -1.60 KCAL/MOL
REMARK 927      BINDING AFFINITY PREDICTED BY RF-SCORE:    0.00 PKD
ROOT
HETATM    1  C   UNL     1      -8.680  14.796  67.638  1.00  0.00    -0.178 C  
HETATM    2  C   UNL     1      -9.103  15.407  66.305  1.00  0.00    -0.355 C  
HETATM    3  O   UNL     1      -9.029  15.270  70.001  1.00  0.00    -0.035 OA 
HETATM    4  C   UNL     1     -10.208  19.932  66.583  1.00  0.00    -0.609 A  
HETATM    5  N   UNL     1      -8.081  16.993  68.803  1.00  0.00    -0.260 N  
HETATM    6  C   UNL     1      -8.353  16.680  65.956  1.00  0.00    -0.180 C  
HETATM    7  C   UNL     1      -8.706  15.729  68.897  1.00  0.00    -0.217 C  
HETATM    8  C   UNL     1      -9.333  19.138  68.689  1.00  0.00    -0.439 A  
HETATM    9  C   UNL     1      -8.957  17.849  66.685  1.00  0.00    -0.282 A  
HETATM   10  C   UNL     1      -9.664  18.818  65.952  1.00  0.00     0.006 A  
HETATM   11  C   UNL     1     -10.034  20.096  67.952  1.00  0.00    -0.537 A  
HETATM   12  C   UNL     1      -8.812  17.992  68.071  1.00  0.00    -0.275 A  
ENDROOT
BRANCH   1  13
HETATM   13  N   UNL     1      -9.531  13.618  67.935  1.00  0.00    -0.205 NA 
HETATM   14  H   UNL     1      -9.676  13.304  68.895  1.00  0.00     0.000 HD 
BRANCH  13  15
HETATM   15  C   UNL     1     -10.164  12.912  66.799  1.00  0.00    -0.241 C  
BRANCH  15  16
HETATM   16  C   UNL     1      -9.741  11.439  66.639  1.00  0.00    -0.224 C  
BRANCH  16  17
HETATM   17  C   UNL     1      -8.625  11.036  67.620  1.00  0.00    -0.125 C  
BRANCH  17  18
HETATM   18  C   UNL     1      -7.401  10.529  66.897  1.00  0.00    -0.110 A  
HETATM   19  C   UNL     1      -6.617  11.402  66.129  1.00  0.00     0.127 A  
HETATM   20  C   UNL     1      -5.178   9.571  65.478  1.00  0.00    -0.042 A  
HETATM   21  C   UNL     1      -5.510  10.923  65.424  1.00  0.00    -0.094 A  
HETATM   22  C   UNL     1      -5.945   8.699  66.250  1.00  0.00    -0.051 A  
HETATM   23  C   UNL     1      -7.049   9.175  66.957  1.00  0.00    -0.086 A  
ENDBRANCH  17  18
ENDBRANCH  16  17
ENDBRANCH  15  16
BRANCH  15  24
HETATM   24  C   UNL     1     -11.694  12.947  67.025  1.00  0.00    -0.385 C  
HETATM   25  O   UNL     1     -12.314  12.125  67.686  1.00  0.00    -0.325 OA 
BRANCH  24  26
HETATM   26  O   UNL     1     -12.249  13.975  66.318  1.00  0.00    -0.433 OA 
BRANCH  26  27
HETATM   27  C   UNL     1     -12.587  13.673  64.954  1.00  0.00    -0.336 C  
HETATM   28  C   UNL     1     -12.327  14.889  64.083  1.00  0.00    -0.212 C  
ENDBRANCH  26  27
ENDBRANCH  24  26
ENDBRANCH  15  24
ENDBRANCH  13  15
ENDBRANCH   1  13
BRANCH   5  29
HETATM   29  C   UNL     1      -7.409  17.397  70.056  1.00  0.00     1.252 C  
HETATM   30  C   UNL     1      -5.881  17.416  70.034  1.00  0.00    -0.228 C  
HETATM   31  O   UNL     1      -5.206  17.720  71.008  1.00  0.00    -0.276 OA 
HETATM   32  O   UNL     1      -5.305  17.035  68.872  1.00  0.00    -0.136 OA 
ENDBRANCH   5  29
TORSDOF 9
ENDMDL
MODEL      218
REMARK 921   NORMALIZED FREE ENERGY PREDICTED BY IDOCK:   -3.19 KCAL/MOL
REMARK 922        TOTAL FREE ENERGY PREDICTED BY IDOCK:   -7.02 KCAL/MOL
REMARK 923 INTER-LIGAND FREE ENERGY PREDICTED BY IDOCK:   -8.13 KCAL/MOL
REMARK 924 INTRA-LIGAND FREE ENERGY PREDICTED BY IDOCK:    1.11 KCAL/MOL
REMARK 927      BINDING AFFINITY PREDICTED BY RF-SCORE:    0.00 PKD
ROOT
HETATM    1  C   UNL     1     -10.621  10.988  69.622  1.00  0.00    -0.083 C  
HETATM    2  C   UNL     1     -11.130   9.806  70.443  1.00  0.00    -0.367 C  
HETATM    3  O   UNL     1     -10.382  11.545  67.264  1.00  0.00    -0.198 OA 
HETATM    4  C   UNL     1     -11.019   5.746  68.145  1.00  0.00    -0.150 A  
HETATM    5  N   UNL     1      -9.290   9.626  67.916  1.00  0.00    -0.128 N  
HETATM    6  C   UNL     1     -10.173   8.628  70.466  1.00  0.00    -0.229 C  
HETATM    7  C   UNL     1     -10.175  10.702  68.147  1.00  0.00    -0.168 C  
HETATM    8  C   UNL     1      -9.977   7.490  66.841  1.00  0.00    -0.318 A  
HETATM    9  C   UNL     1     -10.320   7.820  69.207  1.00  0.00    -0.220 A  
HETATM   10  C   UNL     1     -10.896   6.540  69.281  1.00  0.00    -0.361 A  
HETATM   11  C   UNL     1     -10.551   6.219  66.926  1.00  0.00    -0.374 A  
HETATM   12  C   UNL     1      -9.881   8.315  67.972  1.00  0.00    -0.169 A  
ENDROOT
BRANCH   1  13
HETATM   13  N   UNL     1     -11.661  12.045  69.579  1.00  0.00    -0.323 NA 
HETATM   14  H   UNL     1     -12.523  11.912  69.051  1.00  0.00     0.000 HD 
BRANCH  13  15
HETATM   15  C   UNL     1     -11.411  13.299  70.325  1.00  0.00     0.123 C  
BRANCH  15  16
HETATM   16  C   UNL     1     -11.336  14.566  69.451  1.00  0.00    -0.314 C  
BRANCH  16  17
HETATM   17  C   UNL     1     -12.451  14.616  68.390  1.00  0.00     0.196 C  
BRANCH  17  18
HETATM   18  C   UNL     1     -11.905  14.433  66.996  1.00  0.00    -0.437 A  
HETATM   19  C   UNL     1     -10.614  14.878  66.673  1.00  0.00    -0.305 A  
HETATM   20  C   UNL     1     -10.922  14.178  64.380  1.00  0.00    -0.240 A  
HETATM   21  C   UNL     1     -10.127  14.749  65.371  1.00  0.00    -0.406 A  
HETATM   22  C   UNL     1     -12.201  13.720  64.695  1.00  0.00    -0.440 A  
HETATM   23  C   UNL     1     -12.689  13.845  65.995  1.00  0.00    -0.410 A  
ENDBRANCH  17  18
ENDBRANCH  16  17
ENDBRANCH  15  16
BRANCH  15  24
HETATM   24  C   UNL     1     -12.573  13.480  71.329  1.00  0.00    -0.341 C  
HETATM   25  O   UNL     1     -13.409  12.623  71.582  1.00  0.00    -0.367 OA 
BRANCH  24  26
HETATM   26  O   UNL     1     -12.571  14.753  71.823  1.00  0.00    -0.308 OA 
BRANCH  26  27
HETATM   27  C   UNL     1     -12.412  14.862  73.248  1.00  0.00    -0.427 C  
HETATM   28  C   UNL     1     -12.775  16.267  73.696  1.00  0.00    -0.611 C  
ENDBRANCH  26  27
ENDBRANCH  24  26
ENDBRANCH  15  24
ENDBRANCH  13  15
ENDBRANCH   1  13
BRANCH   5  29
HETATM   29  C   UNL     1      -8.311   9.905  66.844  1.00  0.00    -0.124 C  
HETATM   30  C   UNL     1      -8.880  10.125  65.443  1.00  0.00    -0.173 C  
HETATM   31  O   UNL     1      -8.176  10.351  64.468  1.00  0.00    -0.165 OA 
HETATM   32  O   UNL     1     -10.222  10.015  65.329  1.00  0.00    -0.296 OA 
ENDBRANCH   5  29
TORSDOF 9
ENDMDL
MODEL      219
REMARK 921   NORMALIZED FREE ENERGY PREDICTED BY IDOCK:   -3.15 KCAL/MOL
REMARK 922        TOTAL FREE ENERGY PREDICTED BY IDOCK:   -6.97 KCAL/MOL
REMARK 923 INTER-LIGAND FREE ENERGY PREDICTED BY IDOCK:   -6.00 KCAL/MOL
REMARK 924 INTRA-LIGAND FREE ENERGY PREDICTED BY IDOCK:   -0.96 KCAL/MOL
REMARK 927      BINDING AFFINITY PREDICTED BY RF-SCORE:    0.00 PKD
ROOT
HETATM    1  C   UNL     1     -11.101   8.722  70.920  1.00  0.00    -0.268 C  
HETATM    2  C   UNL     1     -12.338   9.144  71.709  1.00  0.00    -0.444 C  
HETATM    3  O   UNL     1      -9.008   9.747  70.214  1.00  0.00    -0.232 OA 
HETATM    4  C   UNL     1     -13.063  13.753  71.736  1.00  0.00    -0.463 A  
HETATM    5  N   UNL     1     -10.904  10.844  69.506  1.00  0.00    -0.247 N  
HETATM    6  C   UNL     1     -13.274  10.049  70.930  1.00  0.00    -0.336 C  
HETATM    7  C   UNL     1     -10.240   9.859  70.270  1.00  0.00    -0.264 C  
HETATM    8  C   UNL     1     -11.229  13.189  70.271  1.00  0.00     0.478 A  
HETATM    9  C   UNL     1     -12.768  11.465  70.965  1.00  0.00    -0.447 A  
HETATM   10  C   UNL     1     -13.478  12.425  71.706  1.00  0.00    -0.261 A  
HETATM   11  C   UNL     1     -11.941  14.136  71.011  1.00  0.00    -0.351 A  
HETATM   12  C   UNL     1     -11.615  11.840  70.262  1.00  0.00    -0.119 A  
ENDROOT
BRANCH   1  13
HETATM   13  N   UNL     1     -10.205   7.923  71.791  1.00  0.00    -0.190 NA 
HETATM   14  H   UNL     1      -9.303   8.291  72.093  1.00  0.00     0.000 HD 
BRANCH  13  15
HETATM   15  C   UNL     1     -10.659   6.579  72.210  1.00  0.00    -0.212 C  
BRANCH  15  16
HETATM   16  C   UNL     1     -10.312   5.445  71.226  1.00  0.00    -0.296 C  
BRANCH  16  17
HETATM   17  C   UNL     1      -9.133   5.805  70.305  1.00  0.00    -0.160 C  
BRANCH  17  18
HETATM   18  C   UNL     1      -7.999   4.817  70.435  1.00  0.00    -0.065 A  
HETATM   19  C   UNL     1      -6.864   5.134  71.196  1.00  0.00    -0.044 A  
HETATM   20  C   UNL     1      -5.850   3.021  70.604  1.00  0.00    -0.017 A  
HETATM   21  C   UNL     1      -5.796   4.238  71.279  1.00  0.00    -0.013 A  
HETATM   22  C   UNL     1      -6.981   2.692  69.857  1.00  0.00    -0.034 A  
HETATM   23  C   UNL     1      -8.050   3.584  69.775  1.00  0.00    -0.063 A  
ENDBRANCH  17  18
ENDBRANCH  16  17
ENDBRANCH  15  16
BRANCH  15  24
HETATM   24  C   UNL     1      -9.980   6.260  73.562  1.00  0.00    -0.193 C  
HETATM   25  O   UNL     1     -10.281   5.318  74.282  1.00  0.00    -0.219 OA 
BRANCH  24  26
HETATM   26  O   UNL     1      -9.060   7.223  73.864  1.00  0.00    -0.194 OA 
BRANCH  26  27
HETATM   27  C   UNL     1      -7.716   6.753  74.061  1.00  0.00    -0.102 C  
HETATM   28  C   UNL     1      -6.740   7.703  73.390  1.00  0.00    -0.081 C  
ENDBRANCH  26  27
ENDBRANCH  24  26
ENDBRANCH  15  24
ENDBRANCH  13  15
ENDBRANCH   1  13
BRANCH   5  29
HETATM   29  C   UNL     1     -10.123  11.286  68.332  1.00  0.00    -0.195 C  
HETATM   30  C   UNL     1     -10.922  11.810  67.139  1.00  0.00    -0.276 C  
HETATM   31  O   UNL     1     -10.395  12.194  66.103  1.00  0.00    -0.225 OA 
HETATM   32  O   UNL     1     -12.266  11.790  67.278  1.00  0.00    -0.471 OA 
ENDBRANCH   5  29
TORSDOF 9
ENDMDL
MODEL      220
REMARK 921   NORMALIZED FREE ENERGY PREDICTED BY IDOCK:   -2.88 KCAL/MOL
REMARK 922        TOTAL FREE ENERGY PREDICTED BY IDOCK:   -6.55 KCAL/MOL
REMARK 923 INTER-LIGAND FREE ENERGY PREDICTED BY IDOCK:   -5.28 KCAL/MOL
REMARK 924 INTRA-LIGAND FREE ENERGY PREDICTED BY IDOCK:   -1.27 KCAL/MOL
REMARK 927      BINDING AFFINITY PREDICTED BY RF-SCORE:    0.00 PKD
ROOT
HETATM    1  C   UNL     1     -10.430   9.538  68.842  1.00  0.00    -0.216 C  
HETATM    2  C   UNL     1      -9.209   9.809  69.716  1.00  0.00    -0.248 C  
HETATM    3  O   UNL     1     -10.974   8.126  66.934  1.00  0.00    -0.127 OA 
HETATM    4  C   UNL     1      -5.155   8.804  67.636  1.00  0.00    -0.034 A  
HETATM    5  N   UNL     1      -9.209   9.565  66.595  1.00  0.00    -0.147 N  
HETATM    6  C   UNL     1      -8.154  10.662  69.036  1.00  0.00    -0.148 C  
HETATM    7  C   UNL     1     -10.176   8.942  67.415  1.00  0.00    -0.249 C  
HETATM    8  C   UNL     1      -6.990   8.562  66.085  1.00  0.00    -0.076 A  
HETATM    9  C   UNL     1      -7.314   9.812  68.124  1.00  0.00    -0.080 A  
HETATM   10  C   UNL     1      -5.976   9.556  68.470  1.00  0.00    -0.043 A  
HETATM   11  C   UNL     1      -5.661   8.314  66.438  1.00  0.00    -0.040 A  
HETATM   12  C   UNL     1      -7.838   9.289  66.935  1.00  0.00    -0.098 A  
ENDROOT
BRANCH   1  13
HETATM   13  N   UNL     1     -11.355   8.622  69.552  1.00  0.00    -0.421 NA 
HETATM   14  H   UNL     1     -12.339   8.862  69.676  1.00  0.00     0.000 HD 
BRANCH  13  15
HETATM   15  C   UNL     1     -10.810   7.350  70.076  1.00  0.00    -0.252 C  
BRANCH  15  16
HETATM   16  C   UNL     1      -9.272   7.254  70.065  1.00  0.00    -0.148 C  
BRANCH  16  17
HETATM   17  C   UNL     1      -8.772   5.800  69.996  1.00  0.00    -0.132 C  
BRANCH  17  18
HETATM   18  C   UNL     1      -8.266   5.446  68.619  1.00  0.00    -0.094 A  
HETATM   19  C   UNL     1      -6.908   5.164  68.412  1.00  0.00    -0.056 A  
HETATM   20  C   UNL     1      -7.305   4.879  66.045  1.00  0.00    -0.078 A  
HETATM   21  C   UNL     1      -6.432   4.881  67.130  1.00  0.00    -0.049 A  
HETATM   22  C   UNL     1      -8.660   5.145  66.244  1.00  0.00    -0.114 A  
HETATM   23  C   UNL     1      -9.138   5.425  67.524  1.00  0.00    -0.107 A  
ENDBRANCH  17  18
ENDBRANCH  16  17
ENDBRANCH  15  16
BRANCH  15  24
HETATM   24  C   UNL     1     -11.285   7.209  71.541  1.00  0.00    -0.245 C  
HETATM   25  O   UNL     1     -11.649   8.144  72.242  1.00  0.00    -0.322 OA 
BRANCH  24  26
HETATM   26  O   UNL     1     -11.163   5.913  71.952  1.00  0.00    -0.268 OA 
BRANCH  26  27
HETATM   27  C   UNL     1     -11.021   5.726  73.369  1.00  0.00    -0.222 C  
HETATM   28  C   UNL     1      -9.548   5.731  73.740  1.00  0.00    -0.144 C  
ENDBRANCH  26  27
ENDBRANCH  24  26
ENDBRANCH  15  24
ENDBRANCH  13  15
ENDBRANCH   1  13
BRANCH   5  29
HETATM   29  C   UNL     1      -9.585   9.575  65.166  1.00  0.00    -0.200 C  
HETATM   30  C   UNL     1      -9.968  10.930  64.571  1.00  0.00    -0.317 C  
HETATM   31  O   UNL     1     -10.311  11.071  63.405  1.00  0.00    -0.355 OA 
HETATM   32  O   UNL     1      -9.945  11.974  65.428  1.00  0.00    -0.250 OA 
ENDBRANCH   5  29
TORSDOF 9
ENDMDL
MODEL      221
REMARK 921   NORMALIZED FREE ENERGY PREDICTED BY IDOCK:   -2.86 KCAL/MOL
REMARK 922        TOTAL FREE ENERGY PREDICTED BY IDOCK:   -6.51 KCAL/MOL
REMARK 923 INTER-LIGAND FREE ENERGY PREDICTED BY IDOCK:   -5.54 KCAL/MOL
REMARK 924 INTRA-LIGAND FREE ENERGY PREDICTED BY IDOCK:   -0.97 KCAL/MOL
REMARK 927      BINDING AFFINITY PREDICTED BY RF-SCORE:    0.00 PKD
ROOT
HETATM    1  C   UNL     1      -8.828  10.090  67.395  1.00  0.00    -0.128 C  
HETATM    2  C   UNL     1      -8.025  11.282  66.883  1.00  0.00    -0.155 C  
HETATM    3  O   UNL     1     -11.154   9.370  67.373  1.00  0.00    -0.113 OA 
HETATM    4  C   UNL     1     -10.580  15.138  66.270  1.00  0.00    -0.312 A  
HETATM    5  N   UNL     1     -10.792  11.428  68.341  1.00  0.00    -0.193 N  
HETATM    6  C   UNL     1      -8.215  12.541  67.709  1.00  0.00    -0.166 C  
HETATM    7  C   UNL     1     -10.366  10.296  67.610  1.00  0.00    -0.220 C  
HETATM    8  C   UNL     1     -11.899  13.398  67.301  1.00  0.00    -0.422 A  
HETATM    9  C   UNL     1      -9.492  13.229  67.313  1.00  0.00    -0.233 A  
HETATM   10  C   UNL     1      -9.422  14.452  66.624  1.00  0.00    -0.300 A  
HETATM   11  C   UNL     1     -11.819  14.613  66.617  1.00  0.00    -0.325 A  
HETATM   12  C   UNL     1     -10.740  12.679  67.632  1.00  0.00    -0.218 A  
ENDROOT
BRANCH   1  13
HETATM   13  N   UNL     1      -8.653   8.941  66.473  1.00  0.00    -0.121 NA 
HETATM   14  H   UNL     1      -8.826   9.041  65.473  1.00  0.00     0.000 HD 
BRANCH  13  15
HETATM   15  C   UNL     1      -8.222   7.647  67.046  1.00  0.00    -0.117 C  
BRANCH  15  16
HETATM   16  C   UNL     1      -7.521   6.702  66.050  1.00  0.00    -0.081 C  
BRANCH  16  17
HETATM   17  C   UNL     1      -7.977   6.932  64.599  1.00  0.00    -0.112 C  
BRANCH  17  18
HETATM   18  C   UNL     1      -7.246   8.087  63.958  1.00  0.00    -0.087 A  
HETATM   19  C   UNL     1      -7.921   8.964  63.096  1.00  0.00    -0.155 A  
HETATM   20  C   UNL     1      -5.870  10.178  62.692  1.00  0.00    -0.117 A  
HETATM   21  C   UNL     1      -7.233  10.005  62.468  1.00  0.00    -0.134 A  
HETATM   22  C   UNL     1      -5.194   9.318  63.558  1.00  0.00    -0.065 A  
HETATM   23  C   UNL     1      -5.879   8.280  64.189  1.00  0.00    -0.065 A  
ENDBRANCH  17  18
ENDBRANCH  16  17
ENDBRANCH  15  16
BRANCH  15  24
HETATM   24  C   UNL     1      -7.229   7.955  68.191  1.00  0.00    -0.090 C  
HETATM   25  O   UNL     1      -6.085   8.355  68.025  1.00  0.00    -0.048 OA 
BRANCH  24  26
HETATM   26  O   UNL     1      -7.789   7.638  69.395  1.00  0.00    -0.117 OA 
BRANCH  26  27
HETATM   27  C   UNL     1      -7.945   6.233  69.653  1.00  0.00    -0.112 C  
HETATM   28  C   UNL     1      -6.898   5.779  70.655  1.00  0.00    -0.053 C  
ENDBRANCH  26  27
ENDBRANCH  24  26
ENDBRANCH  15  24
ENDBRANCH  13  15
ENDBRANCH   1  13
BRANCH   5  29
HETATM   29  C   UNL     1     -11.969  11.155  69.191  1.00  0.00    -0.343 C  
HETATM   30  C   UNL     1     -11.707  10.414  70.501  1.00  0.00    -0.344 C  
HETATM   31  O   UNL     1     -12.597  10.116  71.286  1.00  0.00    -0.336 OA 
HETATM   32  O   UNL     1     -10.422  10.063  70.730  1.00  0.00    -0.257 OA 
ENDBRANCH   5  29
TORSDOF 9
ENDMDL
MODEL      222
REMARK 921   NORMALIZED FREE ENERGY PREDICTED BY IDOCK:   -2.85 KCAL/MOL
REMARK 922        TOTAL FREE ENERGY PREDICTED BY IDOCK:   -6.51 KCAL/MOL
REMARK 923 INTER-LIGAND FREE ENERGY PREDICTED BY IDOCK:   -6.09 KCAL/MOL
REMARK 924 INTRA-LIGAND FREE ENERGY PREDICTED BY IDOCK:   -0.42 KCAL/MOL
REMARK 927      BINDING AFFINITY PREDICTED BY RF-SCORE:    0.00 PKD
ROOT
HETATM    1  C   UNL     1      -9.333   7.515  68.774  1.00  0.00    -0.147 C  
HETATM    2  C   UNL     1      -9.821   8.372  67.608  1.00  0.00    -0.222 C  
HETATM    3  O   UNL     1      -7.191   6.754  69.647  1.00  0.00    -0.076 OA 
HETATM    4  C   UNL     1      -6.806   8.593  64.054  1.00  0.00    -0.082 A  
HETATM    5  N   UNL     1      -7.602   6.168  67.458  1.00  0.00    -0.092 N  
HETATM    6  C   UNL     1      -9.749   7.668  66.266  1.00  0.00    -0.126 C  
HETATM    7  C   UNL     1      -7.911   6.868  68.646  1.00  0.00    -0.120 C  
HETATM    8  C   UNL     1      -6.038   7.029  65.726  1.00  0.00    -0.036 A  
HETATM    9  C   UNL     1      -8.347   7.730  65.726  1.00  0.00    -0.140 A  
HETATM   10  C   UNL     1      -8.082   8.535  64.605  1.00  0.00    -0.153 A  
HETATM   11  C   UNL     1      -5.785   7.832  64.611  1.00  0.00    -0.037 A  
HETATM   12  C   UNL     1      -7.311   6.990  66.313  1.00  0.00    -0.076 A  
ENDROOT
BRANCH   1  13
HETATM   13  N   UNL     1      -9.350   8.317  70.021  1.00  0.00    -0.161 NA 
HETATM   14  H   UNL     1      -8.497   8.470  70.558  1.00  0.00     0.000 HD 
BRANCH  13  15
HETATM   15  C   UNL     1     -10.641   8.890  70.462  1.00  0.00    -0.220 C  
BRANCH  15  16
HETATM   16  C   UNL     1     -11.377   9.723  69.394  1.00  0.00    -0.090 C  
BRANCH  16  17
HETATM   17  C   UNL     1     -11.320  11.234  69.683  1.00  0.00    -0.359 C  
BRANCH  17  18
HETATM   18  C   UNL     1     -11.017  12.031  68.438  1.00  0.00    -0.276 A  
HETATM   19  C   UNL     1     -10.237  13.195  68.512  1.00  0.00    -0.218 A  
HETATM   20  C   UNL     1     -10.528  13.566  66.141  1.00  0.00    -0.296 A  
HETATM   21  C   UNL     1      -9.994  13.957  67.367  1.00  0.00    -0.240 A  
HETATM   22  C   UNL     1     -11.293  12.402  66.056  1.00  0.00    -0.397 A  
HETATM   23  C   UNL     1     -11.534  11.639  67.198  1.00  0.00    -0.344 A  
ENDBRANCH  17  18
ENDBRANCH  16  17
ENDBRANCH  15  16
BRANCH  15  24
HETATM   24  C   UNL     1     -11.559   7.712  70.863  1.00  0.00    -0.280 C  
HETATM   25  O   UNL     1     -11.896   6.810  70.108  1.00  0.00    -0.349 OA 
BRANCH  24  26
HETATM   26  O   UNL     1     -11.994   7.872  72.148  1.00  0.00    -0.303 OA 
BRANCH  26  27
HETATM   27  C   UNL     1     -13.055   8.825  72.325  1.00  0.00    -0.409 C  
HETATM   28  C   UNL     1     -14.358   8.240  71.808  1.00  0.00    -0.574 C  
ENDBRANCH  26  27
ENDBRANCH  24  26
ENDBRANCH  15  24
ENDBRANCH  13  15
ENDBRANCH   1  13
BRANCH   5  29
HETATM   29  C   UNL     1      -6.759   4.977  67.694  1.00  0.00    -0.055 C  
HETATM   30  C   UNL     1      -7.417   3.619  67.452  1.00  0.00    -0.067 C  
HETATM   31  O   UNL     1      -6.833   2.558  67.624  1.00  0.00    -0.039 OA 
HETATM   32  O   UNL     1      -8.713   3.654  67.071  1.00  0.00    -0.105 OA 
ENDBRANCH   5  29
TORSDOF 9
ENDMDL
MODEL      223
REMARK 921   NORMALIZED FREE ENERGY PREDICTED BY IDOCK:   -2.85 KCAL/MOL
REMARK 922        TOTAL FREE ENERGY PREDICTED BY IDOCK:   -6.50 KCAL/MOL
REMARK 923 INTER-LIGAND FREE ENERGY PREDICTED BY IDOCK:   -5.33 KCAL/MOL
REMARK 924 INTRA-LIGAND FREE ENERGY PREDICTED BY IDOCK:   -1.18 KCAL/MOL
REMARK 927      BINDING AFFINITY PREDICTED BY RF-SCORE:    0.00 PKD
ROOT
HETATM    1  C   UNL     1     -10.561   9.080  69.260  1.00  0.00    -0.213 C  
HETATM    2  C   UNL     1      -9.168   8.671  69.731  1.00  0.00    -0.154 C  
HETATM    3  O   UNL     1     -11.518  10.277  67.367  1.00  0.00    -0.290 OA 
HETATM    4  C   UNL     1      -5.749  11.336  68.006  1.00  0.00    -0.042 A  
HETATM    5  N   UNL     1      -9.963  11.470  68.575  1.00  0.00    -0.202 N  
HETATM    6  C   UNL     1      -8.361   9.821  70.305  1.00  0.00    -0.172 C  
HETATM    7  C   UNL     1     -10.659  10.282  68.259  1.00  0.00    -0.221 C  
HETATM    8  C   UNL     1      -7.910  12.217  67.385  1.00  0.00    -0.168 A  
HETATM    9  C   UNL     1      -7.750  10.627  69.193  1.00  0.00    -0.138 A  
HETATM   10  C   UNL     1      -6.358  10.579  69.001  1.00  0.00    -0.045 A  
HETATM   11  C   UNL     1      -6.526  12.162  67.202  1.00  0.00    -0.135 A  
HETATM   12  C   UNL     1      -8.541  11.430  68.361  1.00  0.00    -0.156 A  
ENDROOT
BRANCH   1  13
HETATM   13  N   UNL     1     -11.232   7.916  68.630  1.00  0.00    -0.229 NA 
HETATM   14  H   UNL     1     -12.175   7.642  68.906  1.00  0.00     0.000 HD 
BRANCH  13  15
HETATM   15  C   UNL     1     -10.494   7.166  67.590  1.00  0.00    -0.239 C  
BRANCH  15  16
HETATM   16  C   UNL     1      -9.111   7.745  67.236  1.00  0.00    -0.147 C  
BRANCH  16  17
HETATM   17  C   UNL     1      -9.102   8.458  65.872  1.00  0.00    -0.225 C  
BRANCH  17  18
HETATM   18  C   UNL     1      -7.732   8.444  65.241  1.00  0.00    -0.098 A  
HETATM   19  C   UNL     1      -7.592   8.391  63.846  1.00  0.00    -0.135 A  
HETATM   20  C   UNL     1      -5.185   8.325  64.068  1.00  0.00    -0.041 A  
HETATM   21  C   UNL     1      -6.323   8.333  63.265  1.00  0.00    -0.081 A  
HETATM   22  C   UNL     1      -5.315   8.392  65.456  1.00  0.00    -0.035 A  
HETATM   23  C   UNL     1      -6.581   8.453  66.038  1.00  0.00    -0.053 A  
ENDBRANCH  17  18
ENDBRANCH  16  17
ENDBRANCH  15  16
BRANCH  15  24
HETATM   24  C   UNL     1     -10.287   5.726  68.116  1.00  0.00    -0.212 C  
HETATM   25  O   UNL     1     -10.636   5.338  69.223  1.00  0.00    -0.225 OA 
BRANCH  24  26
HETATM   26  O   UNL     1      -9.594   4.987  67.201  1.00  0.00    -0.134 OA 
BRANCH  26  27
HETATM   27  C   UNL     1     -10.268   4.761  65.952  1.00  0.00    -0.258 C  
HETATM   28  C   UNL     1      -9.245   4.547  64.851  1.00  0.00    -0.156 C  
ENDBRANCH  26  27
ENDBRANCH  24  26
ENDBRANCH  15  24
ENDBRANCH  13  15
ENDBRANCH   1  13
BRANCH   5  29
HETATM   29  C   UNL     1     -10.695  12.690  68.175  1.00  0.00    -0.225 C  
HETATM   30  C   UNL     1     -11.676  13.261  69.198  1.00  0.00    -0.329 C  
HETATM   31  O   UNL     1     -12.353  14.259  68.985  1.00  0.00    -0.274 OA 
HETATM   32  O   UNL     1     -11.788  12.571  70.355  1.00  0.00    -0.299 OA 
ENDBRANCH   5  29
TORSDOF 9
ENDMDL
MODEL      224
REMARK 921   NORMALIZED FREE ENERGY PREDICTED BY IDOCK:   -2.81 KCAL/MOL
REMARK 922        TOTAL FREE ENERGY PREDICTED BY IDOCK:   -6.44 KCAL/MOL
REMARK 923 INTER-LIGAND FREE ENERGY PREDICTED BY IDOCK:   -4.53 KCAL/MOL
REMARK 924 INTRA-LIGAND FREE ENERGY PREDICTED BY IDOCK:   -1.92 KCAL/MOL
REMARK 927      BINDING AFFINITY PREDICTED BY RF-SCORE:    0.00 PKD
ROOT
HETATM    1  C   UNL     1      -7.982   6.671  69.266  1.00  0.00    -0.111 C  
HETATM    2  C   UNL     1      -9.019   7.576  69.927  1.00  0.00    -0.141 C  
HETATM    3  O   UNL     1      -6.501   6.778  67.336  1.00  0.00    -0.045 OA 
HETATM    4  C   UNL     1     -10.870  10.732  67.031  1.00  0.00    -0.311 A  
HETATM    5  N   UNL     1      -8.735   7.057  66.852  1.00  0.00    -0.119 N  
HETATM    6  C   UNL     1     -10.333   7.643  69.172  1.00  0.00    -0.217 C  
HETATM    7  C   UNL     1      -7.656   6.934  67.755  1.00  0.00    -0.107 C  
HETATM    8  C   UNL     1      -9.429   9.214  65.827  1.00  0.00    -0.322 A  
HETATM    9  C   UNL     1     -10.220   8.609  68.025  1.00  0.00    -0.261 A  
HETATM   10  C   UNL     1     -10.921   9.826  68.086  1.00  0.00    -0.228 A  
HETATM   11  C   UNL     1     -10.130  10.421  65.897  1.00  0.00    -0.326 A  
HETATM   12  C   UNL     1      -9.442   8.309  66.899  1.00  0.00    -0.186 A  
ENDROOT
BRANCH   1  13
HETATM   13  N   UNL     1      -6.706   6.746  70.019  1.00  0.00    -0.048 NA 
HETATM   14  H   UNL     1      -5.809   6.659  69.542  1.00  0.00     0.000 HD 
BRANCH  13  15
HETATM   15  C   UNL     1      -6.774   6.952  71.483  1.00  0.00    -0.060 C  
BRANCH  15  16
HETATM   16  C   UNL     1      -5.845   6.038  72.307  1.00  0.00    -0.036 C  
BRANCH  16  17
HETATM   17  C   UNL     1      -6.157   4.544  72.103  1.00  0.00    -0.017 C  
BRANCH  17  18
HETATM   18  C   UNL     1      -7.639   4.267  72.179  1.00  0.00    -0.079 A  
HETATM   19  C   UNL     1      -8.276   3.528  71.171  1.00  0.00    -0.078 A  
HETATM   20  C   UNL     1     -10.409   3.827  72.269  1.00  0.00    -0.155 A  
HETATM   21  C   UNL     1      -9.655   3.310  71.219  1.00  0.00    -0.229 A  
HETATM   22  C   UNL     1      -9.781   4.552  73.283  1.00  0.00    -0.152 A  
HETATM   23  C   UNL     1      -8.404   4.768  73.239  1.00  0.00    -0.103 A  
ENDBRANCH  17  18
ENDBRANCH  16  17
ENDBRANCH  15  16
BRANCH  15  24
HETATM   24  C   UNL     1      -6.371   8.418  71.765  1.00  0.00    -0.061 C  
HETATM   25  O   UNL     1      -6.504   8.976  72.846  1.00  0.00    -0.308 OA 
BRANCH  24  26
HETATM   26  O   UNL     1      -5.926   9.011  70.618  1.00  0.00    -0.032 OA 
BRANCH  26  27
HETATM   27  C   UNL     1      -6.290  10.392  70.457  1.00  0.00    -0.101 C  
HETATM   28  C   UNL     1      -7.055  10.570  69.157  1.00  0.00    -0.089 C  
ENDBRANCH  26  27
ENDBRANCH  24  26
ENDBRANCH  15  24
ENDBRANCH  13  15
ENDBRANCH   1  13
BRANCH   5  29
HETATM   29  C   UNL     1      -8.448   6.466  65.528  1.00  0.00    -0.139 C  
HETATM   30  C   UNL     1      -9.135   5.137  65.212  1.00  0.00    -0.120 C  
HETATM   31  O   UNL     1      -8.971   4.539  64.157  1.00  0.00    -0.145 OA 
HETATM   32  O   UNL     1      -9.914   4.631  66.193  1.00  0.00    -0.199 OA 
ENDBRANCH   5  29
TORSDOF 9
ENDMDL
MODEL      225
REMARK 921   NORMALIZED FREE ENERGY PREDICTED BY IDOCK:   -2.80 KCAL/MOL
REMARK 922        TOTAL FREE ENERGY PREDICTED BY IDOCK:   -6.44 KCAL/MOL
REMARK 923 INTER-LIGAND FREE ENERGY PREDICTED BY IDOCK:   -4.68 KCAL/MOL
REMARK 924 INTRA-LIGAND FREE ENERGY PREDICTED BY IDOCK:   -1.75 KCAL/MOL
REMARK 927      BINDING AFFINITY PREDICTED BY RF-SCORE:    0.00 PKD
ROOT
HETATM    1  C   UNL     1      -9.599   6.894  67.611  1.00  0.00    -0.126 C  
HETATM    2  C   UNL     1      -9.774   8.390  67.364  1.00  0.00    -0.222 C  
HETATM    3  O   UNL     1      -7.780   5.278  67.518  1.00  0.00    -0.093 OA 
HETATM    4  C   UNL     1      -6.549  10.211  64.526  1.00  0.00    -0.118 A  
HETATM    5  N   UNL     1      -8.163   6.411  65.551  1.00  0.00    -0.137 N  
HETATM    6  C   UNL     1      -9.781   8.765  65.893  1.00  0.00    -0.211 C  
HETATM    7  C   UNL     1      -8.375   6.191  66.930  1.00  0.00    -0.106 C  
HETATM    8  C   UNL     1      -6.314   7.811  64.653  1.00  0.00    -0.045 A  
HETATM    9  C   UNL     1      -8.372   8.843  65.375  1.00  0.00    -0.155 A  
HETATM   10  C   UNL     1      -7.836  10.099  65.041  1.00  0.00    -0.140 A  
HETATM   11  C   UNL     1      -5.791   9.064  64.324  1.00  0.00    -0.070 A  
HETATM   12  C   UNL     1      -7.597   7.688  65.208  1.00  0.00    -0.089 A  
ENDROOT
BRANCH   1  13
HETATM   13  N   UNL     1      -9.508   6.640  69.070  1.00  0.00    -0.133 NA 
HETATM   14  H   UNL     1      -9.408   5.692  69.432  1.00  0.00     0.000 HD 
BRANCH  13  15
HETATM   15  C   UNL     1      -9.565   7.803  69.984  1.00  0.00    -0.161 C  
BRANCH  15  16
HETATM   16  C   UNL     1     -10.550   7.651  71.160  1.00  0.00    -0.235 C  
BRANCH  16  17
HETATM   17  C   UNL     1     -11.385   6.361  71.066  1.00  0.00    -0.386 C  
BRANCH  17  18
HETATM   18  C   UNL     1     -10.810   5.258  71.920  1.00  0.00    -0.218 A  
HETATM   19  C   UNL     1     -11.025   5.249  73.307  1.00  0.00    -0.369 A  
HETATM   20  C   UNL     1      -9.666   3.261  73.525  1.00  0.00    -0.149 A  
HETATM   21  C   UNL     1     -10.455   4.253  74.103  1.00  0.00    -0.307 A  
HETATM   22  C   UNL     1      -9.459   3.255  72.146  1.00  0.00    -0.194 A  
HETATM   23  C   UNL     1     -10.029   4.247  71.348  1.00  0.00    -0.238 A  
ENDBRANCH  17  18
ENDBRANCH  16  17
ENDBRANCH  15  16
BRANCH  15  24
HETATM   24  C   UNL     1      -8.149   8.002  70.571  1.00  0.00    -0.105 C  
HETATM   25  O   UNL     1      -7.302   8.747  70.096  1.00  0.00    -0.049 OA 
BRANCH  24  26
HETATM   26  O   UNL     1      -7.962   7.171  71.638  1.00  0.00    -0.096 OA 
BRANCH  26  27
HETATM   27  C   UNL     1      -6.775   6.362  71.590  1.00  0.00    -0.063 C  
HETATM   28  C   UNL     1      -6.654   5.556  72.872  1.00  0.00    -0.071 C  
ENDBRANCH  26  27
ENDBRANCH  24  26
ENDBRANCH  15  24
ENDBRANCH  13  15
ENDBRANCH   1  13
BRANCH   5  29
HETATM   29  C   UNL     1      -7.660   5.212  64.847  1.00  0.00    -0.078 C  
HETATM   30  C   UNL     1      -8.712   4.214  64.366  1.00  0.00    -0.130 C  
HETATM   31  O   UNL     1      -8.426   3.176  63.783  1.00  0.00    -0.089 OA 
HETATM   32  O   UNL     1      -9.994   4.523  64.660  1.00  0.00    -0.099 OA 
ENDBRANCH   5  29
TORSDOF 9
ENDMDL
MODEL      226
REMARK 921   NORMALIZED FREE ENERGY PREDICTED BY IDOCK:   -2.80 KCAL/MOL
REMARK 922        TOTAL FREE ENERGY PREDICTED BY IDOCK:   -6.42 KCAL/MOL
REMARK 923 INTER-LIGAND FREE ENERGY PREDICTED BY IDOCK:   -5.26 KCAL/MOL
REMARK 924 INTRA-LIGAND FREE ENERGY PREDICTED BY IDOCK:   -1.16 KCAL/MOL
REMARK 927      BINDING AFFINITY PREDICTED BY RF-SCORE:    0.00 PKD
ROOT
HETATM    1  C   UNL     1      -8.708   8.181  65.839  1.00  0.00    -0.156 C  
HETATM    2  C   UNL     1      -8.173   8.996  64.663  1.00  0.00    -0.160 C  
HETATM    3  O   UNL     1     -10.839   7.895  66.981  1.00  0.00    -0.305 OA 
HETATM    4  C   UNL     1     -10.672  12.829  63.750  1.00  0.00    -0.397 A  
HETATM    5  N   UNL     1     -10.061  10.062  66.922  1.00  0.00    -0.218 N  
HETATM    6  C   UNL     1      -7.972  10.465  64.986  1.00  0.00    -0.126 C  
HETATM    7  C   UNL     1     -10.007   8.702  66.544  1.00  0.00    -0.282 C  
HETATM    8  C   UNL     1     -11.465  11.756  65.762  1.00  0.00    -0.258 A  
HETATM    9  C   UNL     1      -9.283  11.196  64.898  1.00  0.00    -0.175 A  
HETATM   10  C   UNL     1      -9.487  12.107  63.847  1.00  0.00     0.123 A  
HETATM   11  C   UNL     1     -11.658  12.659  64.714  1.00  0.00    -0.377 A  
HETATM   12  C   UNL     1     -10.290  10.995  65.851  1.00  0.00    -0.257 A  
ENDROOT
BRANCH   1  13
HETATM   13  N   UNL     1      -8.962   6.787  65.401  1.00  0.00    -0.365 NA 
HETATM   14  H   UNL     1      -9.914   6.443  65.274  1.00  0.00     0.000 HD 
BRANCH  13  15
HETATM   15  C   UNL     1      -7.796   5.911  65.153  1.00  0.00    -0.107 C  
BRANCH  15  16
HETATM   16  C   UNL     1      -7.373   5.045  66.356  1.00  0.00    -0.085 C  
BRANCH  16  17
HETATM   17  C   UNL     1      -8.210   5.336  67.614  1.00  0.00    -0.099 C  
BRANCH  17  18
HETATM   18  C   UNL     1      -8.336   4.118  68.496  1.00  0.00    -0.092 A  
HETATM   19  C   UNL     1      -8.200   2.831  67.954  1.00  0.00    -0.084 A  
HETATM   20  C   UNL     1      -8.661   1.849  70.115  1.00  0.00    -0.108 A  
HETATM   21  C   UNL     1      -8.362   1.703  68.762  1.00  0.00    -0.074 A  
HETATM   22  C   UNL     1      -8.784   3.125  70.665  1.00  0.00    -0.130 A  
HETATM   23  C   UNL     1      -8.620   4.252  69.861  1.00  0.00    -0.101 A  
ENDBRANCH  17  18
ENDBRANCH  16  17
ENDBRANCH  15  16
BRANCH  15  24
HETATM   24  C   UNL     1      -8.167   4.962  63.990  1.00  0.00    -0.122 C  
HETATM   25  O   UNL     1      -8.221   5.298  62.814  1.00  0.00    -0.094 OA 
BRANCH  24  26
HETATM   26  O   UNL     1      -8.500   3.731  64.476  1.00  0.00    -0.096 OA 
BRANCH  26  27
HETATM   27  C   UNL     1      -9.592   3.077  63.808  1.00  0.00    -0.124 C  
HETATM   28  C   UNL     1     -10.904   3.709  64.237  1.00  0.00    -0.109 C  
ENDBRANCH  26  27
ENDBRANCH  24  26
ENDBRANCH  15  24
ENDBRANCH  13  15
ENDBRANCH   1  13
BRANCH   5  29
HETATM   29  C   UNL     1     -10.774  10.276  68.199  1.00  0.00    -0.246 C  
HETATM   30  C   UNL     1     -10.026   9.880  69.472  1.00  0.00    -0.222 C  
HETATM   31  O   UNL     1     -10.511   9.994  70.590  1.00  0.00    -0.276 OA 
HETATM   32  O   UNL     1      -8.797   9.349  69.290  1.00  0.00    -0.137 OA 
ENDBRANCH   5  29
TORSDOF 9
ENDMDL
MODEL      227
REMARK 921   NORMALIZED FREE ENERGY PREDICTED BY IDOCK:   -2.75 KCAL/MOL
REMARK 922        TOTAL FREE ENERGY PREDICTED BY IDOCK:   -6.36 KCAL/MOL
REMARK 923 INTER-LIGAND FREE ENERGY PREDICTED BY IDOCK:   -5.65 KCAL/MOL
REMARK 924 INTRA-LIGAND FREE ENERGY PREDICTED BY IDOCK:   -0.71 KCAL/MOL
REMARK 927      BINDING AFFINITY PREDICTED BY RF-SCORE:    0.00 PKD
ROOT
HETATM    1  C   UNL     1      -9.094   5.992  70.184  1.00  0.00    -0.147 C  
HETATM    2  C   UNL     1      -9.913   4.719  70.385  1.00  0.00    -0.315 C  
HETATM    3  O   UNL     1      -6.821   6.734  70.644  1.00  0.00    -0.056 OA 
HETATM    4  C   UNL     1      -8.306   1.975  73.799  1.00  0.00    -0.058 A  
HETATM    5  N   UNL     1      -7.989   6.010  72.491  1.00  0.00    -0.105 N  
HETATM    6  C   UNL     1     -10.343   4.496  71.823  1.00  0.00    -0.175 C  
HETATM    7  C   UNL     1      -7.836   6.190  71.098  1.00  0.00    -0.111 C  
HETATM    8  C   UNL     1      -7.082   4.055  73.732  1.00  0.00    -0.061 A  
HETATM    9  C   UNL     1      -9.212   3.894  72.611  1.00  0.00    -0.140 A  
HETATM   10  C   UNL     1      -9.314   2.558  73.039  1.00  0.00    -0.120 A  
HETATM   11  C   UNL     1      -7.192   2.727  74.153  1.00  0.00    -0.041 A  
HETATM   12  C   UNL     1      -8.074   4.644  72.934  1.00  0.00    -0.100 A  
ENDROOT
BRANCH   1  13
HETATM   13  N   UNL     1      -8.641   6.072  68.774  1.00  0.00    -0.112 NA 
HETATM   14  H   UNL     1      -7.883   5.481  68.432  1.00  0.00     0.000 HD 
BRANCH  13  15
HETATM   15  C   UNL     1      -9.319   7.035  67.879  1.00  0.00    -0.123 C  
BRANCH  15  16
HETATM   16  C   UNL     1     -10.397   7.900  68.560  1.00  0.00    -0.229 C  
BRANCH  16  17
HETATM   17  C   UNL     1      -9.795   8.956  69.505  1.00  0.00    -0.180 C  
BRANCH  17  18
HETATM   18  C   UNL     1     -10.682  10.171  69.625  1.00  0.00    -0.295 A  
HETATM   19  C   UNL     1     -10.622  11.192  68.666  1.00  0.00    -0.222 A  
HETATM   20  C   UNL     1     -12.262  12.473  69.896  1.00  0.00    -0.233 A  
HETATM   21  C   UNL     1     -11.410  12.337  68.802  1.00  0.00    -0.337 A  
HETATM   22  C   UNL     1     -12.338  11.456  70.847  1.00  0.00    -0.483 A  
HETATM   23  C   UNL     1     -11.554  10.311  70.711  1.00  0.00    -0.446 A  
ENDBRANCH  17  18
ENDBRANCH  16  17
ENDBRANCH  15  16
BRANCH  15  24
HETATM   24  C   UNL     1      -8.237   7.982  67.310  1.00  0.00    -0.122 C  
HETATM   25  O   UNL     1      -7.449   8.621  67.994  1.00  0.00    -0.093 OA 
BRANCH  24  26
HETATM   26  O   UNL     1      -8.347   8.057  65.951  1.00  0.00    -0.119 OA 
BRANCH  26  27
HETATM   27  C   UNL     1      -8.425   9.387  65.411  1.00  0.00    -0.148 C  
HETATM   28  C   UNL     1      -8.356   9.327  63.896  1.00  0.00    -0.179 C  
ENDBRANCH  26  27
ENDBRANCH  24  26
ENDBRANCH  15  24
ENDBRANCH  13  15
ENDBRANCH   1  13
BRANCH   5  29
HETATM   29  C   UNL     1      -7.175   6.953  73.286  1.00  0.00    -0.074 C  
HETATM   30  C   UNL     1      -7.910   8.150  73.886  1.00  0.00    -0.204 C  
HETATM   31  O   UNL     1      -7.349   9.009  74.553  1.00  0.00    -0.423 OA 
HETATM   32  O   UNL     1      -9.229   8.232  73.602  1.00  0.00    -0.201 OA 
ENDBRANCH   5  29
TORSDOF 9
ENDMDL
MODEL      228
REMARK 921   NORMALIZED FREE ENERGY PREDICTED BY IDOCK:   -2.74 KCAL/MOL
REMARK 922        TOTAL FREE ENERGY PREDICTED BY IDOCK:   -6.33 KCAL/MOL
REMARK 923 INTER-LIGAND FREE ENERGY PREDICTED BY IDOCK:   -4.72 KCAL/MOL
REMARK 924 INTRA-LIGAND FREE ENERGY PREDICTED BY IDOCK:   -1.62 KCAL/MOL
REMARK 927      BINDING AFFINITY PREDICTED BY RF-SCORE:    0.00 PKD
ROOT
HETATM    1  C   UNL     1      -9.008  11.505  68.062  1.00  0.00    -0.170 C  
HETATM    2  C   UNL     1      -8.731  11.482  66.561  1.00  0.00    -0.183 C  
HETATM    3  O   UNL     1     -10.964  11.445  69.511  1.00  0.00    -0.232 OA 
HETATM    4  C   UNL     1     -12.323  12.952  63.971  1.00  0.00    -0.457 A  
HETATM    5  N   UNL     1     -10.945  13.173  67.989  1.00  0.00    -0.239 N  
HETATM    6  C   UNL     1      -9.039  12.796  65.868  1.00  0.00     0.212 C  
HETATM    7  C   UNL     1     -10.431  11.972  68.525  1.00  0.00    -0.229 C  
HETATM    8  C   UNL     1     -12.788  13.255  66.321  1.00  0.00     0.305 A  
HETATM    9  C   UNL     1     -10.514  12.902  65.595  1.00  0.00    -0.292 A  
HETATM   10  C   UNL     1     -10.970  12.823  64.268  1.00  0.00    -0.414 A  
HETATM   11  C   UNL     1     -13.231  13.176  64.998  1.00  0.00     0.232 A  
HETATM   12  C   UNL     1     -11.431  13.091  66.638  1.00  0.00    -0.336 A  
ENDROOT
BRANCH   1  13
HETATM   13  N   UNL     1      -8.771  10.156  68.631  1.00  0.00    -0.122 NA 
HETATM   14  H   UNL     1      -9.436   9.398  68.477  1.00  0.00     0.000 HD 
BRANCH  13  15
HETATM   15  C   UNL     1      -7.542   9.942  69.427  1.00  0.00    -0.113 C  
BRANCH  15  16
HETATM   16  C   UNL     1      -6.874  11.232  69.942  1.00  0.00    -0.017 C  
BRANCH  16  17
HETATM   17  C   UNL     1      -5.983  11.899  68.879  1.00  0.00    -0.055 C  
BRANCH  17  18
HETATM   18  C   UNL     1      -6.093  13.404  68.921  1.00  0.00    -0.086 A  
HETATM   19  C   UNL     1      -6.033  14.086  70.145  1.00  0.00    -0.151 A  
HETATM   20  C   UNL     1      -6.388  16.192  69.012  1.00  0.00    -0.148 A  
HETATM   21  C   UNL     1      -6.180  15.475  70.187  1.00  0.00    -0.099 A  
HETATM   22  C   UNL     1      -6.435  15.522  67.789  1.00  0.00    -0.186 A  
HETATM   23  C   UNL     1      -6.286  14.137  67.744  1.00  0.00    -0.153 A  
ENDBRANCH  17  18
ENDBRANCH  16  17
ENDBRANCH  15  16
BRANCH  15  24
HETATM   24  C   UNL     1      -7.928   9.082  70.653  1.00  0.00    -0.141 C  
HETATM   25  O   UNL     1      -8.880   9.312  71.386  1.00  0.00    -0.313 OA 
BRANCH  24  26
HETATM   26  O   UNL     1      -7.009   8.090  70.838  1.00  0.00    -0.044 OA 
BRANCH  26  27
HETATM   27  C   UNL     1      -7.490   6.754  70.617  1.00  0.00    -0.083 C  
HETATM   28  C   UNL     1      -6.686   6.098  69.509  1.00  0.00    -0.052 C  
ENDBRANCH  26  27
ENDBRANCH  24  26
ENDBRANCH  15  24
ENDBRANCH  13  15
ENDBRANCH   1  13
BRANCH   5  29
HETATM   29  C   UNL     1     -11.734  13.949  68.969  1.00  0.00    -0.338 C  
HETATM   30  C   UNL     1     -11.139  15.282  69.421  1.00  0.00    -0.280 C  
HETATM   31  O   UNL     1     -11.686  16.012  70.237  1.00  0.00    -0.338 OA 
HETATM   32  O   UNL     1      -9.936  15.598  68.892  1.00  0.00    -0.196 OA 
ENDBRANCH   5  29
TORSDOF 9
ENDMDL
MODEL      229
REMARK 921   NORMALIZED FREE ENERGY PREDICTED BY IDOCK:   -2.73 KCAL/MOL
REMARK 922        TOTAL FREE ENERGY PREDICTED BY IDOCK:   -6.32 KCAL/MOL
REMARK 923 INTER-LIGAND FREE ENERGY PREDICTED BY IDOCK:   -5.85 KCAL/MOL
REMARK 924 INTRA-LIGAND FREE ENERGY PREDICTED BY IDOCK:   -0.47 KCAL/MOL
REMARK 927      BINDING AFFINITY PREDICTED BY RF-SCORE:    0.00 PKD
ROOT
HETATM    1  C   UNL     1      -8.737   8.664  68.207  1.00  0.00    -0.142 C  
HETATM    2  C   UNL     1     -10.001   9.367  67.717  1.00  0.00    -0.228 C  
HETATM    3  O   UNL     1      -6.350   8.769  67.738  1.00  0.00    -0.055 OA 
HETATM    4  C   UNL     1      -9.584  11.220  63.456  1.00  0.00    -0.324 A  
HETATM    5  N   UNL     1      -7.672   8.318  65.907  1.00  0.00    -0.084 N  
HETATM    6  C   UNL     1     -10.453   8.913  66.342  1.00  0.00    -0.071 C  
HETATM    7  C   UNL     1      -7.489   8.686  67.259  1.00  0.00    -0.089 C  
HETATM    8  C   UNL     1      -7.617   9.940  64.023  1.00  0.00    -0.138 A  
HETATM    9  C   UNL     1      -9.651   9.613  65.279  1.00  0.00    -0.347 A  
HETATM   10  C   UNL     1     -10.281  10.576  64.472  1.00  0.00    -0.355 A  
HETATM   11  C   UNL     1      -8.253  10.896  63.226  1.00  0.00     0.097 A  
HETATM   12  C   UNL     1      -8.299   9.309  65.075  1.00  0.00    -0.154 A  
ENDROOT
BRANCH   1  13
HETATM   13  N   UNL     1      -8.322   9.241  69.509  1.00  0.00    -0.122 NA 
HETATM   14  H   UNL     1      -7.898  10.167  69.561  1.00  0.00     0.000 HD 
BRANCH  13  15
HETATM   15  C   UNL     1      -8.541   8.433  70.729  1.00  0.00    -0.145 C  
BRANCH  15  16
HETATM   16  C   UNL     1      -9.678   8.935  71.639  1.00  0.00    -0.379 C  
BRANCH  16  17
HETATM   17  C   UNL     1     -11.049   8.907  70.940  1.00  0.00    -0.328 C  
BRANCH  17  18
HETATM   18  C   UNL     1     -11.734  10.251  70.994  1.00  0.00    -0.461 A  
HETATM   19  C   UNL     1     -11.351  11.279  70.120  1.00  0.00    -0.251 A  
HETATM   20  C   UNL     1     -12.940  12.779  71.155  1.00  0.00    -0.244 A  
HETATM   21  C   UNL     1     -11.954  12.536  70.201  1.00  0.00    -0.377 A  
HETATM   22  C   UNL     1     -13.336  11.758  72.019  1.00  0.00    -0.417 A  
HETATM   23  C   UNL     1     -12.737  10.501  71.938  1.00  0.00    -0.436 A  
ENDBRANCH  17  18
ENDBRANCH  16  17
ENDBRANCH  15  16
BRANCH  15  24
HETATM   24  C   UNL     1      -8.890   6.996  70.278  1.00  0.00    -0.148 C  
HETATM   25  O   UNL     1     -10.009   6.630  69.942  1.00  0.00    -0.169 OA 
BRANCH  24  26
HETATM   26  O   UNL     1      -7.794   6.190  70.387  1.00  0.00    -0.101 OA 
BRANCH  26  27
HETATM   27  C   UNL     1      -8.071   4.797  70.609  1.00  0.00    -0.081 C  
HETATM   28  C   UNL     1      -7.760   4.438  72.051  1.00  0.00    -0.081 C  
ENDBRANCH  26  27
ENDBRANCH  24  26
ENDBRANCH  15  24
ENDBRANCH  13  15
ENDBRANCH   1  13
BRANCH   5  29
HETATM   29  C   UNL     1      -6.525   7.566  65.355  1.00  0.00    -0.041 C  
HETATM   30  C   UNL     1      -6.805   6.134  64.900  1.00  0.00    -0.047 C  
HETATM   31  O   UNL     1      -5.940   5.402  64.437  1.00  0.00    -0.021 OA 
HETATM   32  O   UNL     1      -8.073   5.699  65.076  1.00  0.00    -0.109 OA 
ENDBRANCH   5  29
TORSDOF 9
ENDMDL
MODEL      230
REMARK 921   NORMALIZED FREE ENERGY PREDICTED BY IDOCK:   -2.67 KCAL/MOL
REMARK 922        TOTAL FREE ENERGY PREDICTED BY IDOCK:   -6.23 KCAL/MOL
REMARK 923 INTER-LIGAND FREE ENERGY PREDICTED BY IDOCK:   -7.83 KCAL/MOL
REMARK 924 INTRA-LIGAND FREE ENERGY PREDICTED BY IDOCK:    1.59 KCAL/MOL
REMARK 927      BINDING AFFINITY PREDICTED BY RF-SCORE:    0.00 PKD
ROOT
HETATM    1  C   UNL     1     -10.246  13.304  67.324  1.00  0.00    -0.240 C  
HETATM    2  C   UNL     1     -10.176  13.793  65.880  1.00  0.00    -0.322 C  
HETATM    3  O   UNL     1      -9.324  11.463  68.625  1.00  0.00    -0.185 OA 
HETATM    4  C   UNL     1      -9.086  10.444  62.819  1.00  0.00    -0.298 A  
HETATM    5  N   UNL     1     -10.560  10.822  66.791  1.00  0.00    -0.255 N  
HETATM    6  C   UNL     1     -11.003  12.960  64.917  1.00  0.00    -0.327 C  
HETATM    7  C   UNL     1      -9.918  11.794  67.590  1.00  0.00    -0.194 C  
HETATM    8  C   UNL     1      -9.399   9.512  65.024  1.00  0.00    -0.294 A  
HETATM    9  C   UNL     1     -10.250  11.716  64.534  1.00  0.00    -0.337 A  
HETATM   10  C   UNL     1      -9.758  11.593  63.223  1.00  0.00    -0.390 A  
HETATM   11  C   UNL     1      -8.914   9.400  63.718  1.00  0.00    -0.153 A  
HETATM   12  C   UNL     1     -10.046  10.680  65.455  1.00  0.00    -0.280 A  
ENDROOT
BRANCH   1  13
HETATM   13  N   UNL     1      -9.335  14.116  68.167  1.00  0.00    -0.199 NA 
HETATM   14  H   UNL     1      -9.636  14.468  69.076  1.00  0.00     0.000 HD 
BRANCH  13  15
HETATM   15  C   UNL     1      -7.978  14.402  67.651  1.00  0.00    -0.179 C  
BRANCH  15  16
HETATM   16  C   UNL     1      -7.711  15.883  67.321  1.00  0.00    -0.224 C  
BRANCH  16  17
HETATM   17  C   UNL     1      -8.645  16.420  66.222  1.00  0.00    -0.375 C  
BRANCH  17  18
HETATM   18  C   UNL     1      -9.082  17.837  66.500  1.00  0.00    -0.281 A  
HETATM   19  C   UNL     1      -8.244  18.712  67.208  1.00  0.00    -0.261 A  
HETATM   20  C   UNL     1      -9.927  20.445  67.099  1.00  0.00    -0.568 A  
HETATM   21  C   UNL     1      -8.667  20.010  67.504  1.00  0.00    -0.415 A  
HETATM   22  C   UNL     1     -10.761  19.585  66.383  1.00  0.00    -0.528 A  
HETATM   23  C   UNL     1     -10.339  18.290  66.083  1.00  0.00    -0.414 A  
ENDBRANCH  17  18
ENDBRANCH  16  17
ENDBRANCH  15  16
BRANCH  15  24
HETATM   24  C   UNL     1      -6.967  13.965  68.737  1.00  0.00    -0.108 C  
HETATM   25  O   UNL     1      -6.549  14.696  69.625  1.00  0.00    -0.133 OA 
BRANCH  24  26
HETATM   26  O   UNL     1      -6.557  12.683  68.508  1.00  0.00    -0.070 OA 
BRANCH  26  27
HETATM   27  C   UNL     1      -5.618  12.157  69.460  1.00  0.00    -0.079 C  
HETATM   28  C   UNL     1      -6.008  10.738  69.832  1.00  0.00    -0.082 C  
ENDBRANCH  26  27
ENDBRANCH  24  26
ENDBRANCH  15  24
ENDBRANCH  13  15
ENDBRANCH   1  13
BRANCH   5  29
HETATM   29  C   UNL     1     -10.903   9.596  67.541  1.00  0.00    -0.198 C  
HETATM   30  C   UNL     1      -9.730   8.752  68.040  1.00  0.00    -0.157 C  
HETATM   31  O   UNL     1      -9.879   7.708  68.662  1.00  0.00    -0.163 OA 
HETATM   32  O   UNL     1      -8.500   9.208  67.718  1.00  0.00    -0.116 OA 
ENDBRANCH   5  29
TORSDOF 9
ENDMDL
MODEL      231
REMARK 921   NORMALIZED FREE ENERGY PREDICTED BY IDOCK:   -2.62 KCAL/MOL
REMARK 922        TOTAL FREE ENERGY PREDICTED BY IDOCK:   -6.16 KCAL/MOL
REMARK 923 INTER-LIGAND FREE ENERGY PREDICTED BY IDOCK:   -5.80 KCAL/MOL
REMARK 924 INTRA-LIGAND FREE ENERGY PREDICTED BY IDOCK:   -0.36 KCAL/MOL
REMARK 927      BINDING AFFINITY PREDICTED BY RF-SCORE:    0.00 PKD
ROOT
HETATM    1  C   UNL     1      -9.726  16.631  67.607  1.00  0.00    -0.250 C  
HETATM    2  C   UNL     1     -10.141  17.538  68.761  1.00  0.00    -0.363 C  
HETATM    3  O   UNL     1      -7.646  15.745  66.701  1.00  0.00    -0.196 OA 
HETATM    4  C   UNL     1      -6.759  20.416  70.193  1.00  0.00     0.108 A  
HETATM    5  N   UNL     1      -7.749  18.043  66.805  1.00  0.00    -0.215 N  
HETATM    6  C   UNL     1      -9.856  19.008  68.511  1.00  0.00    -0.473 C  
HETATM    7  C   UNL     1      -8.251  16.753  67.089  1.00  0.00    -0.184 C  
HETATM    8  C   UNL     1      -6.068  19.205  68.222  1.00  0.00    -0.239 A  
HETATM    9  C   UNL     1      -8.410  19.308  68.793  1.00  0.00    -0.386 A  
HETATM   10  C   UNL     1      -8.081  20.087  69.916  1.00  0.00     0.795 A  
HETATM   11  C   UNL     1      -5.752  19.981  69.340  1.00  0.00    -0.301 A  
HETATM   12  C   UNL     1      -7.394  18.836  67.951  1.00  0.00    -0.241 A  
ENDROOT
BRANCH   1  13
HETATM   13  N   UNL     1      -9.953  15.214  67.983  1.00  0.00    -0.220 NA 
HETATM   14  H   UNL     1      -9.182  14.547  68.004  1.00  0.00     0.000 HD 
BRANCH  13  15
HETATM   15  C   UNL     1     -11.331  14.798  68.328  1.00  0.00    -0.301 C  
BRANCH  15  16
HETATM   16  C   UNL     1     -11.734  13.406  67.804  1.00  0.00    -0.394 C  
BRANCH  16  17
HETATM   17  C   UNL     1     -11.292  12.271  68.746  1.00  0.00    -0.337 C  
BRANCH  17  18
HETATM   18  C   UNL     1     -10.028  11.604  68.264  1.00  0.00    -0.201 A  
HETATM   19  C   UNL     1      -8.786  12.239  68.415  1.00  0.00    -0.137 A  
HETATM   20  C   UNL     1      -7.687  10.406  67.285  1.00  0.00    -0.099 A  
HETATM   21  C   UNL     1      -7.622  11.640  67.928  1.00  0.00    -0.115 A  
HETATM   22  C   UNL     1      -8.916   9.761  67.142  1.00  0.00    -0.148 A  
HETATM   23  C   UNL     1     -10.078  10.356  67.631  1.00  0.00    -0.223 A  
ENDBRANCH  17  18
ENDBRANCH  16  17
ENDBRANCH  15  16
BRANCH  15  24
HETATM   24  C   UNL     1     -11.437  14.776  69.870  1.00  0.00    -0.281 C  
HETATM   25  O   UNL     1     -10.477  14.749  70.629  1.00  0.00     0.130 OA 
BRANCH  24  26
HETATM   26  O   UNL     1     -12.746  14.711  70.250  1.00  0.00    -0.335 OA 
BRANCH  26  27
HETATM   27  C   UNL     1     -12.986  14.825  71.662  1.00  0.00    -0.334 C  
HETATM   28  C   UNL     1     -14.192  15.715  71.906  1.00  0.00    -0.463 C  
ENDBRANCH  26  27
ENDBRANCH  24  26
ENDBRANCH  15  24
ENDBRANCH  13  15
ENDBRANCH   1  13
BRANCH   5  29
HETATM   29  C   UNL     1      -6.847  18.064  65.634  1.00  0.00    -0.166 C  
HETATM   30  C   UNL     1      -6.834  19.350  64.809  1.00  0.00     0.309 C  
HETATM   31  O   UNL     1      -6.142  19.491  63.809  1.00  0.00    -0.398 OA 
HETATM   32  O   UNL     1      -7.672  20.325  65.225  1.00  0.00    -0.136 OA 
ENDBRANCH   5  29
TORSDOF 9
ENDMDL
MODEL      232
REMARK 921   NORMALIZED FREE ENERGY PREDICTED BY IDOCK:   -2.51 KCAL/MOL
REMARK 922        TOTAL FREE ENERGY PREDICTED BY IDOCK:   -5.98 KCAL/MOL
REMARK 923 INTER-LIGAND FREE ENERGY PREDICTED BY IDOCK:   -7.35 KCAL/MOL
REMARK 924 INTRA-LIGAND FREE ENERGY PREDICTED BY IDOCK:    1.37 KCAL/MOL
REMARK 927      BINDING AFFINITY PREDICTED BY RF-SCORE:    0.00 PKD
ROOT
HETATM    1  C   UNL     1      -8.791  15.178  67.677  1.00  0.00    -0.173 C  
HETATM    2  C   UNL     1     -10.042  15.432  66.840  1.00  0.00    -0.258 C  
HETATM    3  O   UNL     1      -7.450  16.414  69.291  1.00  0.00    -0.236 OA 
HETATM    4  C   UNL     1     -10.880  19.954  66.048  1.00  0.00    -0.330 A  
HETATM    5  N   UNL     1      -7.667  17.433  67.237  1.00  0.00    -0.195 N  
HETATM    6  C   UNL     1      -9.799  16.337  65.646  1.00  0.00    -0.255 C  
HETATM    7  C   UNL     1      -7.993  16.431  68.178  1.00  0.00    -0.160 C  
HETATM    8  C   UNL     1      -8.763  19.665  67.172  1.00  0.00    -0.367 A  
HETATM    9  C   UNL     1      -9.797  17.777  66.083  1.00  0.00    -0.254 A  
HETATM   10  C   UNL     1     -10.862  18.608  65.695  1.00  0.00    -0.016 A  
HETATM   11  C   UNL     1      -9.826  20.484  66.781  1.00  0.00    -0.460 A  
HETATM   12  C   UNL     1      -8.750  18.299  66.853  1.00  0.00    -0.267 A  
ENDROOT
BRANCH   1  13
HETATM   13  N   UNL     1      -9.147  14.368  68.867  1.00  0.00    -0.344 NA 
HETATM   14  H   UNL     1      -9.593  14.796  69.679  1.00  0.00     0.000 HD 
BRANCH  13  15
HETATM   15  C   UNL     1      -8.837  12.921  68.843  1.00  0.00     0.338 C  
BRANCH  15  16
HETATM   16  C   UNL     1      -9.832  12.062  68.038  1.00  0.00    -0.199 C  
BRANCH  16  17
HETATM   17  C   UNL     1     -11.283  12.556  68.175  1.00  0.00    -0.312 C  
BRANCH  17  18
HETATM   18  C   UNL     1     -11.904  12.114  69.478  1.00  0.00    -0.386 A  
HETATM   19  C   UNL     1     -12.000  10.750  69.793  1.00  0.00    -0.397 A  
HETATM   20  C   UNL     1     -13.141  11.285  71.856  1.00  0.00    -0.510 A  
HETATM   21  C   UNL     1     -12.616  10.340  70.977  1.00  0.00    -0.487 A  
HETATM   22  C   UNL     1     -13.038  12.644  71.557  1.00  0.00    -0.373 A  
HETATM   23  C   UNL     1     -12.421  13.055  70.376  1.00  0.00    -0.266 A  
ENDBRANCH  17  18
ENDBRANCH  16  17
ENDBRANCH  15  16
BRANCH  15  24
HETATM   24  C   UNL     1      -7.439  12.757  68.203  1.00  0.00    -0.124 C  
HETATM   25  O   UNL     1      -6.433  13.342  68.581  1.00  0.00    -0.078 OA 
BRANCH  24  26
HETATM   26  O   UNL     1      -7.514  11.933  67.116  1.00  0.00    -0.139 OA 
BRANCH  26  27
HETATM   27  C   UNL     1      -6.253  11.567  66.531  1.00  0.00    -0.072 C  
HETATM   28  C   UNL     1      -6.419  10.301  65.710  1.00  0.00    -0.119 C  
ENDBRANCH  26  27
ENDBRANCH  24  26
ENDBRANCH  15  24
ENDBRANCH  13  15
ENDBRANCH   1  13
BRANCH   5  29
HETATM   29  C   UNL     1      -6.341  18.040  67.479  1.00  0.00    -0.171 C  
HETATM   30  C   UNL     1      -6.243  19.024  68.644  1.00  0.00    -0.226 C  
HETATM   31  O   UNL     1      -5.207  19.603  68.940  1.00  0.00    -0.185 OA 
HETATM   32  O   UNL     1      -7.393  19.254  69.316  1.00  0.00    -0.326 OA 
ENDBRANCH   5  29
TORSDOF 9
ENDMDL
MODEL      233
REMARK 921   NORMALIZED FREE ENERGY PREDICTED BY IDOCK:   -2.44 KCAL/MOL
REMARK 922        TOTAL FREE ENERGY PREDICTED BY IDOCK:   -5.88 KCAL/MOL
REMARK 923 INTER-LIGAND FREE ENERGY PREDICTED BY IDOCK:   -5.91 KCAL/MOL
REMARK 924 INTRA-LIGAND FREE ENERGY PREDICTED BY IDOCK:    0.03 KCAL/MOL
REMARK 927      BINDING AFFINITY PREDICTED BY RF-SCORE:    0.00 PKD
ROOT
HETATM    1  C   UNL     1      -9.090  10.383  69.584  1.00  0.00    -0.047 C  
HETATM    2  C   UNL     1      -8.049   9.946  68.556  1.00  0.00    -0.101 C  
HETATM    3  O   UNL     1     -11.493  10.771  69.626  1.00  0.00    -0.254 OA 
HETATM    4  C   UNL     1      -9.322  10.753  64.140  1.00  0.00    -0.286 A  
HETATM    5  N   UNL     1     -10.343  12.020  68.070  1.00  0.00    -0.190 N  
HETATM    6  C   UNL     1      -7.691  11.030  67.557  1.00  0.00    -0.114 C  
HETATM    7  C   UNL     1     -10.426  10.996  69.039  1.00  0.00    -0.216 C  
HETATM    8  C   UNL     1     -10.930  11.696  65.675  1.00  0.00    -0.322 A  
HETATM    9  C   UNL     1      -8.733  11.098  66.475  1.00  0.00    -0.174 A  
HETATM   10  C   UNL     1      -8.398  10.674  65.177  1.00  0.00    -0.117 A  
HETATM   11  C   UNL     1     -10.586  11.272  64.389  1.00  0.00    -0.410 A  
HETATM   12  C   UNL     1     -10.019  11.587  66.737  1.00  0.00    -0.208 A  
ENDROOT
BRANCH   1  13
HETATM   13  N   UNL     1      -9.444   9.233  70.451  1.00  0.00    -0.227 NA 
HETATM   14  H   UNL     1      -9.176   9.216  71.435  1.00  0.00     0.000 HD 
BRANCH  13  15
HETATM   15  C   UNL     1     -10.197   8.112  69.847  1.00  0.00    -0.204 C  
BRANCH  15  16
HETATM   16  C   UNL     1      -9.751   7.728  68.422  1.00  0.00    -0.167 C  
BRANCH  16  17
HETATM   17  C   UNL     1     -10.610   6.602  67.820  1.00  0.00    -0.311 C  
BRANCH  17  18
HETATM   18  C   UNL     1      -9.761   5.520  67.201  1.00  0.00    -0.155 A  
HETATM   19  C   UNL     1      -9.914   5.183  65.848  1.00  0.00    -0.145 A  
HETATM   20  C   UNL     1      -8.248   3.445  66.070  1.00  0.00    -0.094 A  
HETATM   21  C   UNL     1      -9.159   4.150  65.287  1.00  0.00    -0.140 A  
HETATM   22  C   UNL     1      -8.080   3.782  67.413  1.00  0.00    -0.090 A  
HETATM   23  C   UNL     1      -8.830   4.815  67.974  1.00  0.00    -0.115 A  
ENDBRANCH  17  18
ENDBRANCH  16  17
ENDBRANCH  15  16
BRANCH  15  24
HETATM   24  C   UNL     1      -9.999   6.877  70.757  1.00  0.00    -0.190 C  
HETATM   25  O   UNL     1     -10.816   6.487  71.580  1.00  0.00    -0.228 OA 
BRANCH  24  26
HETATM   26  O   UNL     1      -8.758   6.343  70.561  1.00  0.00    -0.140 OA 
BRANCH  26  27
HETATM   27  C   UNL     1      -8.167   5.715  71.710  1.00  0.00    -0.119 C  
HETATM   28  C   UNL     1      -8.100   4.214  71.494  1.00  0.00    -0.082 C  
ENDBRANCH  26  27
ENDBRANCH  24  26
ENDBRANCH  15  24
ENDBRANCH  13  15
ENDBRANCH   1  13
BRANCH   5  29
HETATM   29  C   UNL     1     -11.387  13.054  68.235  1.00  0.00    -0.288 C  
HETATM   30  C   UNL     1     -11.019  14.470  67.794  1.00  0.00    -0.275 C  
HETATM   31  O   UNL     1     -11.789  15.417  67.890  1.00  0.00    -0.275 OA 
HETATM   32  O   UNL     1      -9.763  14.631  67.323  1.00  0.00    -0.225 OA 
ENDBRANCH   5  29
TORSDOF 9
ENDMDL
MODEL      234
REMARK 921   NORMALIZED FREE ENERGY PREDICTED BY IDOCK:   -2.36 KCAL/MOL
REMARK 922        TOTAL FREE ENERGY PREDICTED BY IDOCK:   -5.76 KCAL/MOL
REMARK 923 INTER-LIGAND FREE ENERGY PREDICTED BY IDOCK:   -6.18 KCAL/MOL
REMARK 924 INTRA-LIGAND FREE ENERGY PREDICTED BY IDOCK:    0.42 KCAL/MOL
REMARK 927      BINDING AFFINITY PREDICTED BY RF-SCORE:    0.00 PKD
ROOT
HETATM    1  C   UNL     1      -8.820  11.402  68.459  1.00  0.00    -0.151 C  
HETATM    2  C   UNL     1      -8.119  12.276  67.423  1.00  0.00    -0.175 C  
HETATM    3  O   UNL     1     -10.982  10.307  68.691  1.00  0.00    -0.226 OA 
HETATM    4  C   UNL     1     -11.054  14.565  64.609  1.00  0.00    -0.356 A  
HETATM    5  N   UNL     1     -11.086  12.585  68.373  1.00  0.00    -0.241 N  
HETATM    6  C   UNL     1      -8.624  13.707  67.395  1.00  0.00    -0.212 C  
HETATM    7  C   UNL     1     -10.386  11.359  68.423  1.00  0.00    -0.195 C  
HETATM    8  C   UNL     1     -12.268  13.409  66.346  1.00  0.00    -0.435 A  
HETATM    9  C   UNL     1      -9.899  13.788  66.603  1.00  0.00    -0.286 A  
HETATM   10  C   UNL     1      -9.888  14.438  65.357  1.00  0.00    -0.265 A  
HETATM   11  C   UNL     1     -12.247  14.057  65.108  1.00  0.00    -0.446 A  
HETATM   12  C   UNL     1     -11.093  13.242  67.094  1.00  0.00    -0.286 A  
ENDROOT
BRANCH   1  13
HETATM   13  N   UNL     1      -8.329  10.007  68.343  1.00  0.00    -0.109 NA 
HETATM   14  H   UNL     1      -7.447   9.798  67.876  1.00  0.00     0.000 HD 
BRANCH  13  15
HETATM   15  C   UNL     1      -9.157   8.928  68.926  1.00  0.00    -0.140 C  
BRANCH  15  16
HETATM   16  C   UNL     1      -8.897   7.527  68.340  1.00  0.00    -0.126 C  
BRANCH  16  17
HETATM   17  C   UNL     1     -10.197   6.799  67.954  1.00  0.00    -0.207 C  
BRANCH  17  18
HETATM   18  C   UNL     1      -9.924   5.559  67.138  1.00  0.00    -0.193 A  
HETATM   19  C   UNL     1      -9.723   4.323  67.770  1.00  0.00    -0.179 A  
HETATM   20  C   UNL     1      -9.324   3.270  65.630  1.00  0.00    -0.128 A  
HETATM   21  C   UNL     1      -9.425   3.184  67.017  1.00  0.00    -0.128 A  
HETATM   22  C   UNL     1      -9.535   4.493  64.993  1.00  0.00    -0.156 A  
HETATM   23  C   UNL     1      -9.835   5.630  65.742  1.00  0.00     0.098 A  
ENDBRANCH  17  18
ENDBRANCH  16  17
ENDBRANCH  15  16
BRANCH  15  24
HETATM   24  C   UNL     1      -8.850   8.875  70.441  1.00  0.00    -0.181 C  
HETATM   25  O   UNL     1      -7.841   9.335  70.959  1.00  0.00    -0.240 OA 
BRANCH  24  26
HETATM   26  O   UNL     1      -9.824   8.174  71.093  1.00  0.00    -0.164 OA 
BRANCH  26  27
HETATM   27  C   UNL     1     -10.561   8.915  72.080  1.00  0.00    -0.318 C  
HETATM   28  C   UNL     1     -11.136   7.961  73.111  1.00  0.00    -0.260 C  
ENDBRANCH  26  27
ENDBRANCH  24  26
ENDBRANCH  15  24
ENDBRANCH  13  15
ENDBRANCH   1  13
BRANCH   5  29
HETATM   29  C   UNL     1     -12.340  12.564  69.154  1.00  0.00     0.176 C  
HETATM   30  C   UNL     1     -12.479  13.622  70.248  1.00  0.00    -0.265 C  
HETATM   31  O   UNL     1     -13.462  13.704  70.973  1.00  0.00    -0.134 OA 
HETATM   32  O   UNL     1     -11.423  14.452  70.400  1.00  0.00    -0.249 OA 
ENDBRANCH   5  29
TORSDOF 9
ENDMDL
MODEL      235
REMARK 921   NORMALIZED FREE ENERGY PREDICTED BY IDOCK:   -2.19 KCAL/MOL
REMARK 922        TOTAL FREE ENERGY PREDICTED BY IDOCK:   -5.49 KCAL/MOL
REMARK 923 INTER-LIGAND FREE ENERGY PREDICTED BY IDOCK:   -5.89 KCAL/MOL
REMARK 924 INTRA-LIGAND FREE ENERGY PREDICTED BY IDOCK:    0.40 KCAL/MOL
REMARK 927      BINDING AFFINITY PREDICTED BY RF-SCORE:    0.00 PKD
ROOT
HETATM    1  C   UNL     1     -10.276  11.533  68.421  1.00  0.00    -0.205 C  
HETATM    2  C   UNL     1     -10.391  10.815  69.763  1.00  0.00    -0.073 C  
HETATM    3  O   UNL     1     -10.982  11.135  66.125  1.00  0.00    -0.236 OA 
HETATM    4  C   UNL     1     -11.047   6.212  69.375  1.00  0.00    -0.479 A  
HETATM    5  N   UNL     1      -9.663   9.477  67.027  1.00  0.00    -0.167 N  
HETATM    6  C   UNL     1      -9.463   9.622  69.894  1.00  0.00    -0.260 C  
HETATM    7  C   UNL     1     -10.423  10.664  67.125  1.00  0.00    -0.245 C  
HETATM    8  C   UNL     1     -10.644   7.199  67.209  1.00  0.00    -0.398 A  
HETATM    9  C   UNL     1     -10.059   8.427  69.202  1.00  0.00    -0.206 A  
HETATM   10  C   UNL     1     -10.522   7.350  69.978  1.00  0.00    -0.233 A  
HETATM   11  C   UNL     1     -11.101   6.134  67.989  1.00  0.00    -0.316 A  
HETATM   12  C   UNL     1     -10.145   8.367  67.805  1.00  0.00    -0.207 A  
ENDROOT
BRANCH   1  13
HETATM   13  N   UNL     1     -11.284  12.618  68.351  1.00  0.00    -0.258 NA 
HETATM   14  H   UNL     1     -12.278  12.406  68.262  1.00  0.00     0.000 HD 
BRANCH  13  15
HETATM   15  C   UNL     1     -10.807  14.017  68.413  1.00  0.00    -0.249 C  
BRANCH  15  16
HETATM   16  C   UNL     1      -9.442  14.264  67.741  1.00  0.00    -0.216 C  
BRANCH  16  17
HETATM   17  C   UNL     1      -8.513  13.040  67.826  1.00  0.00    -0.188 C  
BRANCH  17  18
HETATM   18  C   UNL     1      -7.353  13.281  68.760  1.00  0.00    -0.070 A  
HETATM   19  C   UNL     1      -6.745  14.544  68.827  1.00  0.00    -0.091 A  
HETATM   20  C   UNL     1      -5.136  13.709  70.426  1.00  0.00    -0.098 A  
HETATM   21  C   UNL     1      -5.643  14.755  69.658  1.00  0.00    -0.096 A  
HETATM   22  C   UNL     1      -5.742  12.454  70.376  1.00  0.00    -0.168 A  
HETATM   23  C   UNL     1      -6.845  12.242  69.549  1.00  0.00     0.065 A  
ENDBRANCH  17  18
ENDBRANCH  16  17
ENDBRANCH  15  16
BRANCH  15  24
HETATM   24  C   UNL     1     -11.857  14.898  67.697  1.00  0.00    -0.244 C  
HETATM   25  O   UNL     1     -12.187  16.018  68.066  1.00  0.00     0.304 OA 
BRANCH  24  26
HETATM   26  O   UNL     1     -12.410  14.214  66.653  1.00  0.00    -0.455 OA 
BRANCH  26  27
HETATM   27  C   UNL     1     -11.693  14.299  65.411  1.00  0.00    -0.354 C  
HETATM   28  C   UNL     1     -12.573  13.802  64.278  1.00  0.00    -0.190 C  
ENDBRANCH  26  27
ENDBRANCH  24  26
ENDBRANCH  15  24
ENDBRANCH  13  15
ENDBRANCH   1  13
BRANCH   5  29
HETATM   29  C   UNL     1      -9.183   9.212  65.655  1.00  0.00    -0.234 C  
HETATM   30  C   UNL     1      -7.762   9.673  65.330  1.00  0.00    -0.115 C  
HETATM   31  O   UNL     1      -7.252   9.525  64.227  1.00  0.00    -0.106 OA 
HETATM   32  O   UNL     1      -7.104  10.300  66.330  1.00  0.00    -0.100 OA 
ENDBRANCH   5  29
TORSDOF 9
ENDMDL
MODEL      236
REMARK 921   NORMALIZED FREE ENERGY PREDICTED BY IDOCK:   -1.91 KCAL/MOL
REMARK 922        TOTAL FREE ENERGY PREDICTED BY IDOCK:   -5.07 KCAL/MOL
REMARK 923 INTER-LIGAND FREE ENERGY PREDICTED BY IDOCK:   -6.54 KCAL/MOL
REMARK 924 INTRA-LIGAND FREE ENERGY PREDICTED BY IDOCK:    1.47 KCAL/MOL
REMARK 927      BINDING AFFINITY PREDICTED BY RF-SCORE:    0.00 PKD
ROOT
HETATM    1  C   UNL     1      -8.444  14.742  67.478  1.00  0.00    -0.192 C  
HETATM    2  C   UNL     1      -9.727  14.968  66.682  1.00  0.00    -0.273 C  
HETATM    3  O   UNL     1      -7.161  15.944  69.162  1.00  0.00    -0.170 OA 
HETATM    4  C   UNL     1     -10.902  19.463  66.259  1.00  0.00    -0.414 A  
HETATM    5  N   UNL     1      -7.493  17.099  67.199  1.00  0.00    -0.158 N  
HETATM    6  C   UNL     1      -9.574  15.977  65.559  1.00  0.00    -0.110 C  
HETATM    7  C   UNL     1      -7.727  16.007  68.063  1.00  0.00    -0.133 C  
HETATM    8  C   UNL     1      -8.746  19.244  67.325  1.00  0.00    -0.323 A  
HETATM    9  C   UNL     1      -9.666  17.375  66.107  1.00  0.00    -0.235 A  
HETATM   10  C   UNL     1     -10.795  18.154  65.802  1.00  0.00     0.024 A  
HETATM   11  C   UNL     1      -9.872  20.011  67.015  1.00  0.00    -0.566 A  
HETATM   12  C   UNL     1      -8.642  17.911  66.900  1.00  0.00    -0.245 A  
ENDROOT
BRANCH   1  13
HETATM   13  N   UNL     1      -8.717  13.818  68.606  1.00  0.00    -0.336 NA 
HETATM   14  H   UNL     1      -8.822  14.170  69.558  1.00  0.00     0.000 HD 
BRANCH  13  15
HETATM   15  C   UNL     1      -8.832  12.373  68.311  1.00  0.00    -0.174 C  
BRANCH  15  16
HETATM   16  C   UNL     1      -9.940  12.006  67.305  1.00  0.00    -0.205 C  
BRANCH  16  17
HETATM   17  C   UNL     1     -11.061  11.166  67.945  1.00  0.00    -0.331 C  
BRANCH  17  18
HETATM   18  C   UNL     1     -10.634   9.734  68.159  1.00  0.00    -0.276 A  
HETATM   19  C   UNL     1     -10.348   8.906  67.064  1.00  0.00    -0.340 A  
HETATM   20  C   UNL     1      -9.931   7.046  68.551  1.00  0.00    -0.158 A  
HETATM   21  C   UNL     1      -9.998   7.568  67.262  1.00  0.00    -0.273 A  
HETATM   22  C   UNL     1     -10.201   7.867  69.647  1.00  0.00    -0.207 A  
HETATM   23  C   UNL     1     -10.548   9.203  69.452  1.00  0.00    -0.232 A  
ENDBRANCH  17  18
ENDBRANCH  16  17
ENDBRANCH  15  16
BRANCH  15  24
HETATM   24  C   UNL     1      -7.479  11.911  67.719  1.00  0.00    -0.121 C  
HETATM   25  O   UNL     1      -6.387  12.323  68.087  1.00  0.00    -0.054 OA 
BRANCH  24  26
HETATM   26  O   UNL     1      -7.691  11.048  66.683  1.00  0.00    -0.141 OA 
BRANCH  26  27
HETATM   27  C   UNL     1      -6.565  10.232  66.319  1.00  0.00    -0.100 C  
HETATM   28  C   UNL     1      -6.612   8.923  67.086  1.00  0.00    -0.062 C  
ENDBRANCH  26  27
ENDBRANCH  24  26
ENDBRANCH  15  24
ENDBRANCH  13  15
ENDBRANCH   1  13
BRANCH   5  29
HETATM   29  C   UNL     1      -6.208  17.780  67.467  1.00  0.00    -0.158 C  
HETATM   30  C   UNL     1      -6.169  18.706  68.681  1.00  0.00    -0.218 C  
HETATM   31  O   UNL     1      -5.171  19.338  69.004  1.00  0.00    -0.193 OA 
HETATM   32  O   UNL     1      -7.326  18.824  69.369  1.00  0.00    -0.166 OA 
ENDBRANCH   5  29
TORSDOF 9
ENDMDL
MODEL      237
REMARK 921   NORMALIZED FREE ENERGY PREDICTED BY IDOCK:   -1.77 KCAL/MOL
REMARK 922        TOTAL FREE ENERGY PREDICTED BY IDOCK:   -4.86 KCAL/MOL
REMARK 923 INTER-LIGAND FREE ENERGY PREDICTED BY IDOCK:   -6.43 KCAL/MOL
REMARK 924 INTRA-LIGAND FREE ENERGY PREDICTED BY IDOCK:    1.56 KCAL/MOL
REMARK 927      BINDING AFFINITY PREDICTED BY RF-SCORE:    0.00 PKD
ROOT
HETATM    1  C   UNL     1     -10.425  14.973  67.627  1.00  0.00    -0.247 C  
HETATM    2  C   UNL     1     -11.466  15.791  66.867  1.00  0.00     0.165 C  
HETATM    3  O   UNL     1      -8.554  15.424  69.120  1.00  0.00    -0.208 OA 
HETATM    4  C   UNL     1     -10.147  20.186  66.023  1.00  0.00    -0.497 A  
HETATM    5  N   UNL     1      -8.410  16.444  67.061  1.00  0.00    -0.182 N  
HETATM    6  C   UNL     1     -10.911  16.488  65.639  1.00  0.00    -0.165 C  
HETATM    7  C   UNL     1      -9.102  15.703  68.045  1.00  0.00    -0.183 C  
HETATM    8  C   UNL     1      -8.338  18.930  67.013  1.00  0.00    -0.287 A  
HETATM    9  C   UNL     1     -10.207  17.755  66.040  1.00  0.00    -0.296 A  
HETATM   10  C   UNL     1     -10.783  18.991  65.702  1.00  0.00    -0.252 A  
HETATM   11  C   UNL     1      -8.919  20.154  66.673  1.00  0.00    -0.416 A  
HETATM   12  C   UNL     1      -8.987  17.719  66.727  1.00  0.00    -0.259 A  
ENDROOT
BRANCH   1  13
HETATM   13  N   UNL     1     -11.036  14.413  68.857  1.00  0.00    -0.247 NA 
HETATM   14  H   UNL     1     -11.263  15.013  69.650  1.00  0.00     0.000 HD 
BRANCH  13  15
HETATM   15  C   UNL     1     -11.305  12.959  68.900  1.00  0.00    -0.288 C  
BRANCH  15  16
HETATM   16  C   UNL     1     -10.062  12.066  68.715  1.00  0.00    -0.113 C  
BRANCH  16  17
HETATM   17  C   UNL     1     -10.330  10.869  67.786  1.00  0.00    -0.218 C  
BRANCH  17  18
HETATM   18  C   UNL     1     -10.136   9.553  68.498  1.00  0.00    -0.198 A  
HETATM   19  C   UNL     1     -11.182   8.620  68.566  1.00  0.00     0.463 A  
HETATM   20  C   UNL     1      -9.809   7.145  69.901  1.00  0.00    -0.174 A  
HETATM   21  C   UNL     1     -11.016   7.422  69.264  1.00  0.00    -0.091 A  
HETATM   22  C   UNL     1      -8.759   8.061  69.827  1.00  0.00    -0.136 A  
HETATM   23  C   UNL     1      -8.921   9.256  69.128  1.00  0.00    -0.144 A  
ENDBRANCH  17  18
ENDBRANCH  16  17
ENDBRANCH  15  16
BRANCH  15  24
HETATM   24  C   UNL     1     -11.918  12.641  70.284  1.00  0.00    -0.284 C  
HETATM   25  O   UNL     1     -12.385  13.480  71.042  1.00  0.00    -0.362 OA 
BRANCH  24  26
HETATM   26  O   UNL     1     -11.787  11.311  70.561  1.00  0.00    -0.338 OA 
BRANCH  26  27
HETATM   27  C   UNL     1     -12.674  10.800  71.570  1.00  0.00    -0.431 C  
HETATM   28  C   UNL     1     -13.043   9.363  71.247  1.00  0.00    -0.363 C  
ENDBRANCH  26  27
ENDBRANCH  24  26
ENDBRANCH  15  24
ENDBRANCH  13  15
ENDBRANCH   1  13
BRANCH   5  29
HETATM   29  C   UNL     1      -6.941  16.357  67.202  1.00  0.00    -0.204 C  
HETATM   30  C   UNL     1      -6.334  17.024  68.436  1.00  0.00    -0.150 C  
HETATM   31  O   UNL     1      -5.131  17.034  68.662  1.00  0.00    -0.121 OA 
HETATM   32  O   UNL     1      -7.208  17.646  69.257  1.00  0.00    -0.203 OA 
ENDBRANCH   5  29
TORSDOF 9
ENDMDL
MODEL      238
REMARK 921   NORMALIZED FREE ENERGY PREDICTED BY IDOCK:   -1.72 KCAL/MOL
REMARK 922        TOTAL FREE ENERGY PREDICTED BY IDOCK:   -4.78 KCAL/MOL
REMARK 923 INTER-LIGAND FREE ENERGY PREDICTED BY IDOCK:   -4.56 KCAL/MOL
REMARK 924 INTRA-LIGAND FREE ENERGY PREDICTED BY IDOCK:   -0.22 KCAL/MOL
REMARK 927      BINDING AFFINITY PREDICTED BY RF-SCORE:    0.00 PKD
ROOT
HETATM    1  C   UNL     1      -7.567   8.242  68.764  1.00  0.00    -0.101 C  
HETATM    2  C   UNL     1      -8.561   9.244  69.345  1.00  0.00    -0.142 C  
HETATM    3  O   UNL     1      -6.407   7.912  66.649  1.00  0.00    -0.048 OA 
HETATM    4  C   UNL     1     -11.071  11.484  66.112  1.00  0.00    -0.302 A  
HETATM    5  N   UNL     1      -8.703   7.971  66.488  1.00  0.00    -0.138 N  
HETATM    6  C   UNL     1      -9.976   9.066  68.825  1.00  0.00    -0.194 C  
HETATM    7  C   UNL     1      -7.494   8.124  67.203  1.00  0.00    -0.089 C  
HETATM    8  C   UNL     1      -9.712   9.768  65.095  1.00  0.00    -0.338 A  
HETATM    9  C   UNL     1     -10.113   9.712  67.474  1.00  0.00    -0.247 A  
HETATM   10  C   UNL     1     -10.891  10.876  67.350  1.00  0.00    -0.333 A  
HETATM   11  C   UNL     1     -10.487  10.924  64.983  1.00  0.00    -0.331 A  
HETATM   12  C   UNL     1      -9.492   9.165  66.343  1.00  0.00    -0.227 A  
ENDROOT
BRANCH   1  13
HETATM   13  N   UNL     1      -6.203   8.556  69.255  1.00  0.00    -0.041 NA 
HETATM   14  H   UNL     1      -5.457   7.862  69.210  1.00  0.00     0.000 HD 
BRANCH  13  15
HETATM   15  C   UNL     1      -5.956   9.905  69.811  1.00  0.00    -0.043 C  
BRANCH  15  16
HETATM   16  C   UNL     1      -7.075  10.930  69.539  1.00  0.00    -0.123 C  
BRANCH  16  17
HETATM   17  C   UNL     1      -6.597  12.383  69.711  1.00  0.00     0.044 C  
BRANCH  17  18
HETATM   18  C   UNL     1      -7.305  13.321  68.764  1.00  0.00    -0.070 A  
HETATM   19  C   UNL     1      -7.461  14.676  69.091  1.00  0.00    -0.139 A  
HETATM   20  C   UNL     1      -8.703  15.048  67.050  1.00  0.00    -0.262 A  
HETATM   21  C   UNL     1      -8.157  15.534  68.235  1.00  0.00    -0.133 A  
HETATM   22  C   UNL     1      -8.541  13.704  66.711  1.00  0.00    -0.050 A  
HETATM   23  C   UNL     1      -7.844  12.847  67.562  1.00  0.00    -0.177 A  
ENDBRANCH  17  18
ENDBRANCH  16  17
ENDBRANCH  15  16
BRANCH  15  24
HETATM   24  C   UNL     1      -5.809   9.756  71.343  1.00  0.00    -0.024 C  
HETATM   25  O   UNL     1      -5.356  10.620  72.081  1.00  0.00    -0.314 OA 
BRANCH  24  26
HETATM   26  O   UNL     1      -6.181   8.500  71.730  1.00  0.00    -0.053 OA 
BRANCH  26  27
HETATM   27  C   UNL     1      -6.887   8.423  72.979  1.00  0.00    -0.078 C  
HETATM   28  C   UNL     1      -8.356   8.138  72.719  1.00  0.00    -0.240 C  
ENDBRANCH  26  27
ENDBRANCH  24  26
ENDBRANCH  15  24
ENDBRANCH  13  15
ENDBRANCH   1  13
BRANCH   5  29
HETATM   29  C   UNL     1      -8.572   7.074  65.321  1.00  0.00     0.014 C  
HETATM   30  C   UNL     1      -9.033   5.630  65.517  1.00  0.00    -0.104 C  
HETATM   31  O   UNL     1      -8.966   4.785  64.634  1.00  0.00    -0.153 OA 
HETATM   32  O   UNL     1      -9.489   5.321  66.751  1.00  0.00    -0.127 OA 
ENDBRANCH   5  29
TORSDOF 9
ENDMDL
MODEL      239
REMARK 921   NORMALIZED FREE ENERGY PREDICTED BY IDOCK:   -1.70 KCAL/MOL
REMARK 922        TOTAL FREE ENERGY PREDICTED BY IDOCK:   -4.76 KCAL/MOL
REMARK 923 INTER-LIGAND FREE ENERGY PREDICTED BY IDOCK:   -5.49 KCAL/MOL
REMARK 924 INTRA-LIGAND FREE ENERGY PREDICTED BY IDOCK:    0.73 KCAL/MOL
REMARK 927      BINDING AFFINITY PREDICTED BY RF-SCORE:    0.00 PKD
ROOT
HETATM    1  C   UNL     1      -7.826   8.442  67.230  1.00  0.00    -0.098 C  
HETATM    2  C   UNL     1      -8.971   9.451  67.253  1.00  0.00    -0.143 C  
HETATM    3  O   UNL     1      -5.844   8.032  65.877  1.00  0.00    -0.037 OA 
HETATM    4  C   UNL     1      -9.761  11.482  63.127  1.00  0.00    -0.412 A  
HETATM    5  N   UNL     1      -7.826   8.038  64.705  1.00  0.00    -0.133 N  
HETATM    6  C   UNL     1     -10.005   9.221  66.166  1.00  0.00    -0.348 C  
HETATM    7  C   UNL     1      -7.063   8.249  65.875  1.00  0.00    -0.071 C  
HETATM    8  C   UNL     1      -8.098   9.745  62.916  1.00  0.00    -0.139 A  
HETATM    9  C   UNL     1      -9.520   9.798  64.864  1.00  0.00    -0.331 A  
HETATM   10  C   UNL     1     -10.156  10.939  64.345  1.00  0.00    -0.402 A  
HETATM   11  C   UNL     1      -8.737  10.879  62.408  1.00  0.00    -0.355 A  
HETATM   12  C   UNL     1      -8.462   9.208  64.160  1.00  0.00    -0.185 A  
ENDROOT
BRANCH   1  13
HETATM   13  N   UNL     1      -6.824   8.806  68.261  1.00  0.00    -0.065 NA 
HETATM   14  H   UNL     1      -5.868   8.455  68.210  1.00  0.00     0.000 HD 
BRANCH  13  15
HETATM   15  C   UNL     1      -7.252   9.692  69.366  1.00  0.00    -0.071 C  
BRANCH  15  16
HETATM   16  C   UNL     1      -8.222  10.816  68.953  1.00  0.00    -0.149 C  
BRANCH  16  17
HETATM   17  C   UNL     1      -7.497  12.142  68.661  1.00  0.00    -0.105 C  
BRANCH  17  18
HETATM   18  C   UNL     1      -8.469  13.263  68.387  1.00  0.00    -0.128 A  
HETATM   19  C   UNL     1      -8.270  14.531  68.954  1.00  0.00    -0.114 A  
HETATM   20  C   UNL     1     -10.324  15.324  67.954  1.00  0.00    -0.246 A  
HETATM   21  C   UNL     1      -9.194  15.555  68.736  1.00  0.00    -0.210 A  
HETATM   22  C   UNL     1     -10.522  14.070  67.376  1.00  0.00    -0.263 A  
HETATM   23  C   UNL     1      -9.599  13.047  67.589  1.00  0.00    -0.206 A  
ENDBRANCH  17  18
ENDBRANCH  16  17
ENDBRANCH  15  16
BRANCH  15  24
HETATM   24  C   UNL     1      -7.965   8.811  70.419  1.00  0.00    -0.112 C  
HETATM   25  O   UNL     1      -8.144   9.135  71.585  1.00  0.00    -0.346 OA 
BRANCH  24  26
HETATM   26  O   UNL     1      -8.287   7.600  69.876  1.00  0.00    -0.128 OA 
BRANCH  26  27
HETATM   27  C   UNL     1      -9.635   7.159  70.108  1.00  0.00    -0.168 C  
HETATM   28  C   UNL     1      -9.629   5.979  71.063  1.00  0.00    -0.197 C  
ENDBRANCH  26  27
ENDBRANCH  24  26
ENDBRANCH  15  24
ENDBRANCH  13  15
ENDBRANCH   1  13
BRANCH   5  29
HETATM   29  C   UNL     1      -7.192   7.088  63.767  1.00  0.00    -0.067 C  
HETATM   30  C   UNL     1      -7.581   5.618  63.920  1.00  0.00    -0.074 C  
HETATM   31  O   UNL     1      -7.117   4.731  63.215  1.00  0.00    -0.045 OA 
HETATM   32  O   UNL     1      -8.448   5.341  64.918  1.00  0.00    -0.142 OA 
ENDBRANCH   5  29
TORSDOF 9
ENDMDL
MODEL      240
REMARK 921   NORMALIZED FREE ENERGY PREDICTED BY IDOCK:   -1.65 KCAL/MOL
REMARK 922        TOTAL FREE ENERGY PREDICTED BY IDOCK:   -4.67 KCAL/MOL
REMARK 923 INTER-LIGAND FREE ENERGY PREDICTED BY IDOCK:   -4.57 KCAL/MOL
REMARK 924 INTRA-LIGAND FREE ENERGY PREDICTED BY IDOCK:   -0.11 KCAL/MOL
REMARK 927      BINDING AFFINITY PREDICTED BY RF-SCORE:    0.00 PKD
ROOT
HETATM    1  C   UNL     1     -10.718  10.681  67.524  1.00  0.00    -0.272 C  
HETATM    2  C   UNL     1     -10.606  11.906  68.427  1.00  0.00    -0.239 C  
HETATM    3  O   UNL     1      -9.282   8.836  66.843  1.00  0.00    -0.144 OA 
HETATM    4  C   UNL     1      -6.219  13.350  69.090  1.00  0.00    -0.098 A  
HETATM    5  N   UNL     1      -8.440  10.930  66.387  1.00  0.00    -0.158 N  
HETATM    6  C   UNL     1      -9.783  13.030  67.825  1.00  0.00    -0.218 C  
HETATM    7  C   UNL     1      -9.384  10.062  66.981  1.00  0.00    -0.154 C  
HETATM    8  C   UNL     1      -6.291  11.565  67.466  1.00  0.00    -0.076 A  
HETATM    9  C   UNL     1      -8.317  12.754  68.015  1.00  0.00    -0.173 A  
HETATM   10  C   UNL     1      -7.583  13.550  68.912  1.00  0.00    -0.002 A  
HETATM   11  C   UNL     1      -5.570  12.361  68.360  1.00  0.00    -0.057 A  
HETATM   12  C   UNL     1      -7.674  11.732  67.304  1.00  0.00    -0.158 A  
ENDROOT
BRANCH   1  13
HETATM   13  N   UNL     1     -11.454   9.607  68.235  1.00  0.00    -0.388 NA 
HETATM   14  H   UNL     1     -12.454   9.470  68.088  1.00  0.00     0.000 HD 
BRANCH  13  15
HETATM   15  C   UNL     1     -10.695   8.739  69.163  1.00  0.00    -0.131 C  
BRANCH  15  16
HETATM   16  C   UNL     1      -9.485   9.417  69.836  1.00  0.00    -0.235 C  
BRANCH  16  17
HETATM   17  C   UNL     1      -8.865   8.548  70.944  1.00  0.00    -0.203 C  
BRANCH  17  18
HETATM   18  C   UNL     1      -7.577   7.902  70.494  1.00  0.00    -0.081 A  
HETATM   19  C   UNL     1      -6.890   7.020  71.342  1.00  0.00    -0.060 A  
HETATM   20  C   UNL     1      -5.135   6.772  69.698  1.00  0.00    -0.014 A  
HETATM   21  C   UNL     1      -5.675   6.458  70.943  1.00  0.00    -0.026 A  
HETATM   22  C   UNL     1      -5.819   7.637  68.843  1.00  0.00    -0.027 A  
HETATM   23  C   UNL     1      -7.033   8.197  69.238  1.00  0.00    -0.055 A  
ENDBRANCH  17  18
ENDBRANCH  16  17
ENDBRANCH  15  16
BRANCH  15  24
HETATM   24  C   UNL     1     -11.668   8.287  70.276  1.00  0.00     0.105 C  
HETATM   25  O   UNL     1     -12.309   9.050  70.985  1.00  0.00    -0.280 OA 
BRANCH  24  26
HETATM   26  O   UNL     1     -11.642   6.927  70.398  1.00  0.00    -0.325 OA 
BRANCH  26  27
HETATM   27  C   UNL     1     -10.793   6.240  69.464  1.00  0.00    -0.340 C  
HETATM   28  C   UNL     1     -10.009   5.158  70.186  1.00  0.00    -0.324 C  
ENDBRANCH  26  27
ENDBRANCH  24  26
ENDBRANCH  15  24
ENDBRANCH  13  15
ENDBRANCH   1  13
BRANCH   5  29
HETATM   29  C   UNL     1      -7.738  10.319  65.239  1.00  0.00    -0.144 C  
HETATM   30  C   UNL     1      -8.238  10.710  63.849  1.00  0.00     0.010 C  
HETATM   31  O   UNL     1      -7.751  10.265  62.818  1.00  0.00    -0.140 OA 
HETATM   32  O   UNL     1      -9.291  11.557  63.820  1.00  0.00    -0.158 OA 
ENDBRANCH   5  29
TORSDOF 9
ENDMDL
MODEL      241
REMARK 921   NORMALIZED FREE ENERGY PREDICTED BY IDOCK:   -1.63 KCAL/MOL
REMARK 922        TOTAL FREE ENERGY PREDICTED BY IDOCK:   -4.64 KCAL/MOL
REMARK 923 INTER-LIGAND FREE ENERGY PREDICTED BY IDOCK:   -4.25 KCAL/MOL
REMARK 924 INTRA-LIGAND FREE ENERGY PREDICTED BY IDOCK:   -0.39 KCAL/MOL
REMARK 927      BINDING AFFINITY PREDICTED BY RF-SCORE:    0.00 PKD
ROOT
HETATM    1  C   UNL     1     -10.383   9.319  69.044  1.00  0.00    -0.214 C  
HETATM    2  C   UNL     1      -9.114   8.803  69.719  1.00  0.00    -0.151 C  
HETATM    3  O   UNL     1     -11.035  10.070  66.821  1.00  0.00    -0.104 OA 
HETATM    4  C   UNL     1      -5.184  10.124  67.578  1.00  0.00    -0.037 A  
HETATM    5  N   UNL     1      -9.285  11.238  67.757  1.00  0.00    -0.153 N  
HETATM    6  C   UNL     1      -8.094   9.891  70.003  1.00  0.00    -0.193 C  
HETATM    7  C   UNL     1     -10.209  10.169  67.739  1.00  0.00    -0.191 C  
HETATM    8  C   UNL     1      -7.102  11.187  66.567  1.00  0.00    -0.124 A  
HETATM    9  C   UNL     1      -7.309  10.199  68.759  1.00  0.00    -0.084 A  
HETATM   10  C   UNL     1      -5.955   9.826  68.697  1.00  0.00    -0.042 A  
HETATM   11  C   UNL     1      -5.757  10.812  66.515  1.00  0.00    -0.087 A  
HETATM   12  C   UNL     1      -7.900  10.861  67.674  1.00  0.00    -0.113 A  
ENDROOT
BRANCH   1  13
HETATM   13  N   UNL     1     -11.271   8.176  68.720  1.00  0.00    -0.223 NA 
HETATM   14  H   UNL     1     -12.286   8.270  68.769  1.00  0.00     0.000 HD 
BRANCH  13  15
HETATM   15  C   UNL     1     -10.643   6.896  68.325  1.00  0.00    -0.215 C  
BRANCH  15  16
HETATM   16  C   UNL     1      -9.207   7.023  67.780  1.00  0.00    -0.124 C  
BRANCH  16  17
HETATM   17  C   UNL     1      -8.923   6.035  66.634  1.00  0.00    -0.129 C  
BRANCH  17  18
HETATM   18  C   UNL     1      -8.387   6.737  65.410  1.00  0.00    -0.123 A  
HETATM   19  C   UNL     1      -7.448   6.104  64.582  1.00  0.00    -0.085 A  
HETATM   20  C   UNL     1      -7.320   8.074  63.186  1.00  0.00    -0.104 A  
HETATM   21  C   UNL     1      -6.919   6.772  63.475  1.00  0.00    -0.056 A  
HETATM   22  C   UNL     1      -8.264   8.705  63.996  1.00  0.00    -0.149 A  
HETATM   23  C   UNL     1      -8.795   8.040  65.100  1.00  0.00     0.063 A  
ENDBRANCH  17  18
ENDBRANCH  16  17
ENDBRANCH  15  16
BRANCH  15  24
HETATM   24  C   UNL     1     -10.598   5.994  69.580  1.00  0.00    -0.300 C  
HETATM   25  O   UNL     1     -10.943   6.349  70.699  1.00  0.00    -0.259 OA 
BRANCH  24  26
HETATM   26  O   UNL     1     -10.047   4.784  69.269  1.00  0.00    -0.205 OA 
BRANCH  26  27
HETATM   27  C   UNL     1      -9.008   4.334  70.154  1.00  0.00    -0.087 C  
HETATM   28  C   UNL     1      -8.774   2.847  69.952  1.00  0.00    -0.126 C  
ENDBRANCH  26  27
ENDBRANCH  24  26
ENDBRANCH  15  24
ENDBRANCH  13  15
ENDBRANCH   1  13
BRANCH   5  29
HETATM   29  C   UNL     1      -9.740  12.405  66.973  1.00  0.00    -0.211 C  
HETATM   30  C   UNL     1      -9.715  13.756  67.685  1.00  0.00    -0.227 C  
HETATM   31  O   UNL     1     -10.077  14.797  67.151  1.00  0.00    -0.238 OA 
HETATM   32  O   UNL     1      -9.302  13.735  68.972  1.00  0.00     0.038 OA 
ENDBRANCH   5  29
TORSDOF 9
ENDMDL
MODEL      242
REMARK 921   NORMALIZED FREE ENERGY PREDICTED BY IDOCK:   -1.40 KCAL/MOL
REMARK 922        TOTAL FREE ENERGY PREDICTED BY IDOCK:   -4.29 KCAL/MOL
REMARK 923 INTER-LIGAND FREE ENERGY PREDICTED BY IDOCK:   -5.28 KCAL/MOL
REMARK 924 INTRA-LIGAND FREE ENERGY PREDICTED BY IDOCK:    0.99 KCAL/MOL
REMARK 927      BINDING AFFINITY PREDICTED BY RF-SCORE:    0.00 PKD
ROOT
HETATM    1  C   UNL     1      -8.579  14.853  67.343  1.00  0.00    -0.193 C  
HETATM    2  C   UNL     1      -9.692  15.331  66.415  1.00  0.00    -0.308 C  
HETATM    3  O   UNL     1      -7.467  15.666  69.351  1.00  0.00    -0.203 OA 
HETATM    4  C   UNL     1     -10.342  19.951  66.491  1.00  0.00    -0.608 A  
HETATM    5  N   UNL     1      -7.371  17.098  67.551  1.00  0.00    -0.157 N  
HETATM    6  C   UNL     1      -9.266  16.452  65.485  1.00  0.00     0.296 C  
HETATM    7  C   UNL     1      -7.844  15.938  68.204  1.00  0.00    -0.133 C  
HETATM    8  C   UNL     1      -8.414  19.341  67.809  1.00  0.00    -0.340 A  
HETATM    9  C   UNL     1      -9.307  17.768  66.213  1.00  0.00    -0.219 A  
HETATM   10  C   UNL     1     -10.292  18.709  65.867  1.00  0.00    -0.358 A  
HETATM   11  C   UNL     1      -9.397  20.269  67.458  1.00  0.00    -0.513 A  
HETATM   12  C   UNL     1      -8.374  18.071  67.213  1.00  0.00    -0.229 A  
ENDROOT
BRANCH   1  13
HETATM   13  N   UNL     1      -9.115  13.830  68.274  1.00  0.00    -0.194 NA 
HETATM   14  H   UNL     1      -9.564  14.100  69.148  1.00  0.00     0.000 HD 
BRANCH  13  15
HETATM   15  C   UNL     1      -8.979  12.406  67.896  1.00  0.00    -0.184 C  
BRANCH  15  16
HETATM   16  C   UNL     1      -7.710  11.714  68.433  1.00  0.00    -0.130 C  
BRANCH  16  17
HETATM   17  C   UNL     1      -6.712  11.365  67.315  1.00  0.00    -0.111 C  
BRANCH  17  18
HETATM   18  C   UNL     1      -7.110  10.108  66.580  1.00  0.00    -0.101 A  
HETATM   19  C   UNL     1      -7.959  10.176  65.465  1.00  0.00    -0.146 A  
HETATM   20  C   UNL     1      -7.929   7.767  65.268  1.00  0.00    -0.127 A  
HETATM   21  C   UNL     1      -8.364   9.009  64.813  1.00  0.00    -0.181 A  
HETATM   22  C   UNL     1      -7.074   7.691  66.368  1.00  0.00    -0.071 A  
HETATM   23  C   UNL     1      -6.666   8.855  67.019  1.00  0.00    -0.069 A  
ENDBRANCH  17  18
ENDBRANCH  16  17
ENDBRANCH  15  16
BRANCH  15  24
HETATM   24  C   UNL     1     -10.207  11.656  68.462  1.00  0.00    -0.210 C  
HETATM   25  O   UNL     1     -11.312  12.157  68.616  1.00  0.00    -0.233 OA 
BRANCH  24  26
HETATM   26  O   UNL     1      -9.853  10.391  68.835  1.00  0.00    -0.181 OA 
BRANCH  26  27
HETATM   27  C   UNL     1     -10.909   9.416  68.789  1.00  0.00    -0.114 C  
HETATM   28  C   UNL     1     -10.554   8.325  67.795  1.00  0.00    -0.236 C  
ENDBRANCH  26  27
ENDBRANCH  24  26
ENDBRANCH  15  24
ENDBRANCH  13  15
ENDBRANCH   1  13
BRANCH   5  29
HETATM   29  C   UNL     1      -6.085  17.581  68.096  1.00  0.00    -0.164 C  
HETATM   30  C   UNL     1      -6.143  18.302  69.442  1.00  0.00    -0.252 C  
HETATM   31  O   UNL     1      -5.152  18.761  69.994  1.00  0.00    -0.178 OA 
HETATM   32  O   UNL     1      -7.375  18.444  69.979  1.00  0.00     0.566 OA 
ENDBRANCH   5  29
TORSDOF 9
ENDMDL
MODEL      243
REMARK 921   NORMALIZED FREE ENERGY PREDICTED BY IDOCK:   -0.80 KCAL/MOL
REMARK 922        TOTAL FREE ENERGY PREDICTED BY IDOCK:   -3.37 KCAL/MOL
REMARK 923 INTER-LIGAND FREE ENERGY PREDICTED BY IDOCK:   -5.38 KCAL/MOL
REMARK 924 INTRA-LIGAND FREE ENERGY PREDICTED BY IDOCK:    2.01 KCAL/MOL
REMARK 927      BINDING AFFINITY PREDICTED BY RF-SCORE:    0.00 PKD
ROOT
HETATM    1  C   UNL     1     -10.379   9.216  69.567  1.00  0.00    -0.215 C  
HETATM    2  C   UNL     1      -9.003   8.742  70.027  1.00  0.00    -0.162 C  
HETATM    3  O   UNL     1     -11.410   9.919  67.476  1.00  0.00    -0.136 OA 
HETATM    4  C   UNL     1      -5.518  10.129  67.251  1.00  0.00    -0.041 A  
HETATM    5  N   UNL     1      -9.562  11.143  68.098  1.00  0.00    -0.173 N  
HETATM    6  C   UNL     1      -7.979   9.858  70.128  1.00  0.00    -0.181 C  
HETATM    7  C   UNL     1     -10.447  10.052  68.243  1.00  0.00    -0.213 C  
HETATM    8  C   UNL     1      -7.605  11.130  66.562  1.00  0.00    -0.135 A  
HETATM    9  C   UNL     1      -7.419  10.168  68.767  1.00  0.00    -0.086 A  
HETATM   10  C   UNL     1      -6.085   9.828  68.485  1.00  0.00    -0.042 A  
HETATM   11  C   UNL     1      -6.277  10.788  66.292  1.00  0.00    -0.130 A  
HETATM   12  C   UNL     1      -8.199  10.799  67.790  1.00  0.00    -0.112 A  
ENDROOT
BRANCH   1  13
HETATM   13  N   UNL     1     -11.277   8.047  69.407  1.00  0.00    -0.425 NA 
HETATM   14  H   UNL     1     -12.238   8.074  69.747  1.00  0.00     0.000 HD 
BRANCH  13  15
HETATM   15  C   UNL     1     -10.739   6.842  68.739  1.00  0.00    -0.239 C  
BRANCH  15  16
HETATM   16  C   UNL     1      -9.334   7.015  68.129  1.00  0.00    -0.125 C  
BRANCH  16  17
HETATM   17  C   UNL     1      -9.338   6.888  66.595  1.00  0.00    -0.198 C  
BRANCH  17  18
HETATM   18  C   UNL     1      -8.885   5.521  66.145  1.00  0.00    -0.139 A  
HETATM   19  C   UNL     1      -9.768   4.668  65.466  1.00  0.00    -0.192 A  
HETATM   20  C   UNL     1      -8.075   2.943  65.388  1.00  0.00    -0.086 A  
HETATM   21  C   UNL     1      -9.361   3.385  65.090  1.00  0.00    -0.155 A  
HETATM   22  C   UNL     1      -7.186   3.791  66.051  1.00  0.00    -0.071 A  
HETATM   23  C   UNL     1      -7.589   5.072  66.425  1.00  0.00    -0.088 A  
ENDBRANCH  17  18
ENDBRANCH  16  17
ENDBRANCH  15  16
BRANCH  15  24
HETATM   24  C   UNL     1     -10.663   5.718  69.799  1.00  0.00    -0.348 C  
HETATM   25  O   UNL     1     -10.947   5.863  70.981  1.00  0.00    -0.277 OA 
BRANCH  24  26
HETATM   26  O   UNL     1     -10.161   4.578  69.240  1.00  0.00    -0.122 OA 
BRANCH  26  27
HETATM   27  C   UNL     1      -8.966   4.066  69.852  1.00  0.00    -0.098 C  
HETATM   28  C   UNL     1      -9.281   2.775  70.586  1.00  0.00    -0.206 C  
ENDBRANCH  26  27
ENDBRANCH  24  26
ENDBRANCH  15  24
ENDBRANCH  13  15
ENDBRANCH   1  13
BRANCH   5  29
HETATM   29  C   UNL     1     -10.170  12.288  67.388  1.00  0.00    -0.203 C  
HETATM   30  C   UNL     1     -10.467  12.088  65.902  1.00  0.00    -0.255 C  
HETATM   31  O   UNL     1     -10.958  12.961  65.199  1.00  0.00    -0.280 OA 
HETATM   32  O   UNL     1     -10.115  10.888  65.389  1.00  0.00    -0.248 OA 
ENDBRANCH   5  29
TORSDOF 9
ENDMDL
MODEL      244
REMARK 921   NORMALIZED FREE ENERGY PREDICTED BY IDOCK:    0.56 KCAL/MOL
REMARK 922        TOTAL FREE ENERGY PREDICTED BY IDOCK:   -1.30 KCAL/MOL
REMARK 923 INTER-LIGAND FREE ENERGY PREDICTED BY IDOCK:   -1.78 KCAL/MOL
REMARK 924 INTRA-LIGAND FREE ENERGY PREDICTED BY IDOCK:    0.48 KCAL/MOL
REMARK 927      BINDING AFFINITY PREDICTED BY RF-SCORE:    0.00 PKD
ROOT
HETATM    1  C   UNL     1      -9.092  10.516  69.620  1.00  0.00     0.053 C  
HETATM    2  C   UNL     1      -7.990  11.277  68.888  1.00  0.00    -0.104 C  
HETATM    3  O   UNL     1     -11.521  10.372  69.520  1.00  0.00    -0.246 OA 
HETATM    4  C   UNL     1      -9.454  15.227  66.882  1.00  0.00    -0.249 A  
HETATM    5  N   UNL     1     -10.697  12.490  69.891  1.00  0.00     0.641 N  
HETATM    6  C   UNL     1      -7.895  12.739  69.286  1.00  0.00     0.538 C  
HETATM    7  C   UNL     1     -10.537  11.122  69.575  1.00  0.00    -0.090 C  
HETATM    8  C   UNL     1     -11.218  14.238  68.200  1.00  0.00    -0.295 A  
HETATM    9  C   UNL     1      -8.936  13.541  68.555  1.00  0.00    -0.086 A  
HETATM   10  C   UNL     1      -8.526  14.441  67.557  1.00  0.00    -0.202 A  
HETATM   11  C   UNL     1     -10.801  15.131  67.210  1.00  0.00    -0.316 A  
HETATM   12  C   UNL     1     -10.296  13.414  68.864  1.00  0.00    -0.072 A  
ENDROOT
BRANCH   1  13
HETATM   13  N   UNL     1      -9.170   9.131  69.096  1.00  0.00    -0.143 NA 
HETATM   14  H   UNL     1      -8.762   8.351  69.612  1.00  0.00     0.000 HD 
BRANCH  13  15
HETATM   15  C   UNL     1      -9.856   8.913  67.803  1.00  0.00    -0.166 C  
BRANCH  15  16
HETATM   16  C   UNL     1     -10.074  10.188  66.965  1.00  0.00    -0.277 C  
BRANCH  16  17
HETATM   17  C   UNL     1     -10.563   9.879  65.539  1.00  0.00     0.303 C  
BRANCH  17  18
HETATM   18  C   UNL     1     -11.015  11.126  64.820  1.00  0.00    -0.218 A  
HETATM   19  C   UNL     1     -12.326  11.229  64.332  1.00  0.00     0.888 A  
HETATM   20  C   UNL     1     -11.832  13.405  63.401  1.00  0.00    -0.325 A  
HETATM   21  C   UNL     1     -12.730  12.365  63.626  1.00  0.00    -0.466 A  
HETATM   22  C   UNL     1     -10.530  13.317  63.894  1.00  0.00     0.014 A  
HETATM   23  C   UNL     1     -10.125  12.185  64.601  1.00  0.00    -0.282 A  
ENDBRANCH  17  18
ENDBRANCH  16  17
ENDBRANCH  15  16
BRANCH  15  24
HETATM   24  C   UNL     1      -8.984   7.942  66.974  1.00  0.00    -0.128 C  
HETATM   25  O   UNL     1      -9.080   6.722  67.012  1.00  0.00    -0.124 OA 
BRANCH  24  26
HETATM   26  O   UNL     1      -8.049   8.639  66.264  1.00  0.00    -0.100 OA 
BRANCH  26  27
HETATM   27  C   UNL     1      -6.844   7.920  65.956  1.00  0.00    -0.057 C  
HETATM   28  C   UNL     1      -6.762   7.677  64.459  1.00  0.00    -0.048 C  
ENDBRANCH  26  27
ENDBRANCH  24  26
ENDBRANCH  15  24
ENDBRANCH  13  15
ENDBRANCH   1  13
BRANCH   5  29
HETATM   29  C   UNL     1     -11.945  12.768  70.632  1.00  0.00    -0.109 C  
HETATM   30  C   UNL     1     -11.954  14.022  71.505  1.00  0.00     0.047 C  
HETATM   31  O   UNL     1     -12.920  14.357  72.178  1.00  0.00    -0.321 OA 
HETATM   32  O   UNL     1     -10.804  14.733  71.524  1.00  0.00     0.162 OA 
ENDBRANCH   5  29
TORSDOF 9
ENDMDL
MODEL      245
REMARK 921   NORMALIZED FREE ENERGY PREDICTED BY IDOCK:    0.72 KCAL/MOL
REMARK 922        TOTAL FREE ENERGY PREDICTED BY IDOCK:   -1.06 KCAL/MOL
REMARK 923 INTER-LIGAND FREE ENERGY PREDICTED BY IDOCK:   -2.90 KCAL/MOL
REMARK 924 INTRA-LIGAND FREE ENERGY PREDICTED BY IDOCK:    1.84 KCAL/MOL
REMARK 927      BINDING AFFINITY PREDICTED BY RF-SCORE:    0.00 PKD
ROOT
HETATM    1  C   UNL     1     -11.846  16.273  68.082  1.00  0.00     0.241 C  
HETATM    2  C   UNL     1     -11.305  17.688  68.271  1.00  0.00     0.576 C  
HETATM    3  O   UNL     1     -10.920  14.046  67.746  1.00  0.00    -0.251 OA 
HETATM    4  C   UNL     1      -7.015  18.302  66.542  1.00  0.00    -0.250 A  
HETATM    5  N   UNL     1     -10.281  15.602  66.173  1.00  0.00    -0.291 N  
HETATM    6  C   UNL     1     -10.785  18.314  66.991  1.00  0.00    -0.305 C  
HETATM    7  C   UNL     1     -10.906  15.230  67.385  1.00  0.00    -0.304 C  
HETATM    8  C   UNL     1      -7.854  16.109  65.978  1.00  0.00     0.450 A  
HETATM    9  C   UNL     1      -9.394  17.820  66.704  1.00  0.00    -0.296 A  
HETATM   10  C   UNL     1      -8.313  18.710  66.831  1.00  0.00    -0.269 A  
HETATM   11  C   UNL     1      -6.787  17.002  66.107  1.00  0.00    -0.061 A  
HETATM   12  C   UNL     1      -9.163  16.498  66.301  1.00  0.00    -0.310 A  
ENDROOT
BRANCH   1  13
HETATM   13  N   UNL     1     -12.239  15.712  69.398  1.00  0.00    -0.551 NA 
HETATM   14  H   UNL     1     -13.206  15.759  69.720  1.00  0.00     0.000 HD 
BRANCH  13  15
HETATM   15  C   UNL     1     -11.189  15.083  70.229  1.00  0.00    -0.252 C  
BRANCH  15  16
HETATM   16  C   UNL     1      -9.880  15.890  70.333  1.00  0.00     0.557 C  
BRANCH  16  17
HETATM   17  C   UNL     1      -8.896  15.567  69.194  1.00  0.00    -0.253 C  
BRANCH  17  18
HETATM   18  C   UNL     1      -7.770  14.678  69.662  1.00  0.00     0.062 A  
HETATM   19  C   UNL     1      -7.206  13.730  68.795  1.00  0.00    -0.106 A  
HETATM   20  C   UNL     1      -5.739  12.962  70.556  1.00  0.00    -0.171 A  
HETATM   21  C   UNL     1      -6.194  12.877  69.243  1.00  0.00    -0.104 A  
HETATM   22  C   UNL     1      -6.284  13.911  71.421  1.00  0.00     0.286 A  
HETATM   23  C   UNL     1      -7.292  14.765  70.975  1.00  0.00     1.530 A  
ENDBRANCH  17  18
ENDBRANCH  16  17
ENDBRANCH  15  16
BRANCH  15  24
HETATM   24  C   UNL     1     -11.763  14.919  71.656  1.00  0.00    -0.332 C  
HETATM   25  O   UNL     1     -11.138  15.148  72.682  1.00  0.00    -0.168 OA 
BRANCH  24  26
HETATM   26  O   UNL     1     -13.028  14.409  71.596  1.00  0.00    -0.309 OA 
BRANCH  26  27
HETATM   27  C   UNL     1     -13.307  13.343  72.519  1.00  0.00    -0.484 C  
HETATM   28  C   UNL     1     -12.584  12.083  72.078  1.00  0.00     0.101 C  
ENDBRANCH  26  27
ENDBRANCH  24  26
ENDBRANCH  15  24
ENDBRANCH  13  15
ENDBRANCH   1  13
BRANCH   5  29
HETATM   29  C   UNL     1     -10.172  14.482  65.214  1.00  0.00    -0.402 C  
HETATM   30  C   UNL     1     -11.451  14.093  64.473  1.00  0.00    -0.372 C  
HETATM   31  O   UNL     1     -11.497  13.176  63.664  1.00  0.00    -0.409 OA 
HETATM   32  O   UNL     1     -12.555  14.803  64.794  1.00  0.00    -0.452 OA 
ENDBRANCH   5  29
TORSDOF 9
ENDMDL
MODEL      246
REMARK 921   NORMALIZED FREE ENERGY PREDICTED BY IDOCK:    8.00 KCAL/MOL
REMARK 922        TOTAL FREE ENERGY PREDICTED BY IDOCK:   10.06 KCAL/MOL
REMARK 923 INTER-LIGAND FREE ENERGY PREDICTED BY IDOCK:    8.86 KCAL/MOL
REMARK 924 INTRA-LIGAND FREE ENERGY PREDICTED BY IDOCK:    1.19 KCAL/MOL
REMARK 927      BINDING AFFINITY PREDICTED BY RF-SCORE:    0.00 PKD
ROOT
HETATM    1  C   UNL     1      -8.851   7.341  70.280  1.00  0.00    -0.147 C  
HETATM    2  C   UNL     1      -9.553   8.292  69.315  1.00  0.00    -0.164 C  
HETATM    3  O   UNL     1      -6.558   6.701  70.794  1.00  0.00    -0.050 OA 
HETATM    4  C   UNL     1      -7.028   9.317  65.527  1.00  0.00    -0.082 A  
HETATM    5  N   UNL     1      -7.179   6.380  68.600  1.00  0.00    -0.082 N  
HETATM    6  C   UNL     1      -9.582   7.790  67.883  1.00  0.00    -0.167 C  
HETATM    7  C   UNL     1      -7.403   6.873  69.905  1.00  0.00    -0.088 C  
HETATM    8  C   UNL     1      -5.923   7.631  66.855  1.00  0.00    -0.047 A  
HETATM    9  C   UNL     1      -8.268   8.075  67.210  1.00  0.00    -0.122 A  
HETATM   10  C   UNL     1      -8.216   9.049  66.198  1.00  0.00    -0.115 A  
HETATM   11  C   UNL     1      -5.882   8.602  65.851  1.00  0.00    -0.047 A  
HETATM   12  C   UNL     1      -7.106   7.377  67.565  1.00  0.00    -0.088 A  
ENDROOT
BRANCH   1  13
HETATM   13  N   UNL     1      -8.787   7.960  71.627  1.00  0.00    -0.124 NA 
HETATM   14  H   UNL     1      -7.936   7.911  72.187  1.00  0.00     0.000 HD 
BRANCH  13  15
HETATM   15  C   UNL     1      -9.995   8.648  72.134  1.00  0.00    -0.316 C  
BRANCH  15  16
HETATM   16  C   UNL     1     -10.383   9.924  71.363  1.00  0.00     0.463 C  
BRANCH  16  17
HETATM   17  C   UNL     1     -11.421  10.775  72.115  1.00  0.00     2.936 C  
BRANCH  17  18
HETATM   18  C   UNL     1     -12.151  11.717  71.189  1.00  0.00    -0.093 A  
HETATM   19  C   UNL     1     -12.151  11.493  69.804  1.00  0.00    -0.374 A  
HETATM   20  C   UNL     1     -13.428  13.517  69.456  1.00  0.00     2.666 A  
HETATM   21  C   UNL     1     -12.788  12.390  68.944  1.00  0.00     1.582 A  
HETATM   22  C   UNL     1     -13.444  13.739  70.833  1.00  0.00     0.010 A  
HETATM   23  C   UNL     1     -12.811  12.843  71.694  1.00  0.00    -0.368 A  
ENDBRANCH  17  18
ENDBRANCH  16  17
ENDBRANCH  15  16
BRANCH  15  24
HETATM   24  C   UNL     1     -11.174   7.652  72.032  1.00  0.00    -0.272 C  
HETATM   25  O   UNL     1     -11.645   7.245  70.979  1.00  0.00    -0.279 OA 
BRANCH  24  26
HETATM   26  O   UNL     1     -11.654   7.364  73.277  1.00  0.00    -0.096 OA 
BRANCH  26  27
HETATM   27  C   UNL     1     -12.770   8.161  73.708  1.00  0.00     4.076 C  
HETATM   28  C   UNL     1     -13.961   7.905  72.801  1.00  0.00     0.404 C  
ENDBRANCH  26  27
ENDBRANCH  24  26
ENDBRANCH  15  24
ENDBRANCH  13  15
ENDBRANCH   1  13
BRANCH   5  29
HETATM   29  C   UNL     1      -6.210   5.264  68.564  1.00  0.00    -0.031 C  
HETATM   30  C   UNL     1      -6.694   3.924  69.116  1.00  0.00    -0.045 C  
HETATM   31  O   UNL     1      -5.986   2.927  69.155  1.00  0.00    -0.023 OA 
HETATM   32  O   UNL     1      -7.955   3.910  69.602  1.00  0.00    -0.055 OA 
ENDBRANCH   5  29
TORSDOF 9
ENDMDL
MODEL      247
REMARK 921   NORMALIZED FREE ENERGY PREDICTED BY IDOCK:   10.95 KCAL/MOL
REMARK 922        TOTAL FREE ENERGY PREDICTED BY IDOCK:   14.55 KCAL/MOL
REMARK 923 INTER-LIGAND FREE ENERGY PREDICTED BY IDOCK:    0.26 KCAL/MOL
REMARK 924 INTRA-LIGAND FREE ENERGY PREDICTED BY IDOCK:   14.29 KCAL/MOL
REMARK 927      BINDING AFFINITY PREDICTED BY RF-SCORE:    0.00 PKD
ROOT
HETATM    1  C   UNL     1      -9.613  16.075  65.349  1.00  0.00     0.086 C  
HETATM    2  C   UNL     1     -10.998  16.705  65.474  1.00  0.00    -0.063 C  
HETATM    3  O   UNL     1      -7.635  15.837  66.749  1.00  0.00    -0.218 OA 
HETATM    4  C   UNL     1     -11.226  20.113  68.653  1.00  0.00     1.439 A  
HETATM    5  N   UNL     1      -8.303  18.011  66.388  1.00  0.00    -0.263 N  
HETATM    6  C   UNL     1     -10.986  18.219  65.372  1.00  0.00     0.452 C  
HETATM    7  C   UNL     1      -8.489  16.613  66.300  1.00  0.00    -0.320 C  
HETATM    8  C   UNL     1      -8.949  19.359  68.376  1.00  0.00    -0.403 A  
HETATM    9  C   UNL     1     -10.592  18.822  66.692  1.00  0.00    -0.446 A  
HETATM   10  C   UNL     1     -11.559  19.512  67.443  1.00  0.00     0.872 A  
HETATM   11  C   UNL     1      -9.918  20.043  69.115  1.00  0.00    -0.262 A  
HETATM   12  C   UNL     1      -9.280  18.717  67.173  1.00  0.00    -0.287 A  
ENDROOT
BRANCH   1  13
HETATM   13  N   UNL     1      -9.714  14.610  65.557  1.00  0.00    -0.511 NA 
HETATM   14  H   UNL     1      -9.918  13.983  64.780  1.00  0.00     0.000 HD 
BRANCH  13  15
HETATM   15  C   UNL     1      -9.511  14.086  66.926  1.00  0.00    -0.265 C  
BRANCH  15  16
HETATM   16  C   UNL     1     -10.307  12.808  67.252  1.00  0.00    -0.235 C  
BRANCH  16  17
HETATM   17  C   UNL     1      -9.487  11.796  68.073  1.00  0.00    -0.188 C  
BRANCH  17  18
HETATM   18  C   UNL     1      -9.955  10.380  67.845  1.00  0.00    -0.192 A  
HETATM   19  C   UNL     1      -9.765   9.401  68.832  1.00  0.00    -0.166 A  
HETATM   20  C   UNL     1     -10.741   7.725  67.389  1.00  0.00    -0.300 A  
HETATM   21  C   UNL     1     -10.157   8.080  68.603  1.00  0.00    -0.212 A  
HETATM   22  C   UNL     1     -10.946   8.695  66.407  1.00  0.00     1.080 A  
HETATM   23  C   UNL     1     -10.558  10.015  66.635  1.00  0.00    -0.196 A  
ENDBRANCH  17  18
ENDBRANCH  16  17
ENDBRANCH  15  16
BRANCH  15  24
HETATM   24  C   UNL     1      -8.006  13.763  67.080  1.00  0.00    -0.044 C  
HETATM   25  O   UNL     1      -7.100  14.504  66.724  1.00  0.00     0.236 OA 
BRANCH  24  26
HETATM   26  O   UNL     1      -7.846  12.507  67.592  1.00  0.00    -0.138 OA 
BRANCH  26  27
HETATM   27  C   UNL     1      -7.750  11.452  66.621  1.00  0.00    -0.129 C  
HETATM   28  C   UNL     1      -8.005  12.011  65.232  1.00  0.00     1.772 C  
ENDBRANCH  26  27
ENDBRANCH  24  26
ENDBRANCH  15  24
ENDBRANCH  13  15
ENDBRANCH   1  13
BRANCH   5  29
HETATM   29  C   UNL     1      -6.883  18.394  66.531  1.00  0.00    -0.208 C  
HETATM   30  C   UNL     1      -6.408  19.576  65.686  1.00  0.00    -0.228 C  
HETATM   31  O   UNL     1      -5.254  19.984  65.702  1.00  0.00    -0.161 OA 
HETATM   32  O   UNL     1      -7.337  20.129  64.875  1.00  0.00    -0.242 OA 
ENDBRANCH   5  29
TORSDOF 9
ENDMDL
