MODEL        1
REMARK 921   NORMALIZED FREE ENERGY PREDICTED BY IDOCK:   -8.03 KCAL/MOL
REMARK 922        TOTAL FREE ENERGY PREDICTED BY IDOCK:   -9.57 KCAL/MOL
REMARK 923 INTER-LIGAND FREE ENERGY PREDICTED BY IDOCK:   -9.44 KCAL/MOL
REMARK 924 INTRA-LIGAND FREE ENERGY PREDICTED BY IDOCK:   -0.14 KCAL/MOL
REMARK 927      BINDING AFFINITY PREDICTED BY RF-SCORE:    0.00 PKD
ROOT
HETATM    1  N   UNL     1     -10.287   7.646  66.493  1.00  0.00    -0.504 N  
HETATM    2  H1  UNL     1      -9.488   8.234  66.257  1.00  0.00     0.000 HD 
HETATM    3  H2  UNL     1     -10.936   7.232  65.824  1.00  0.00     0.000 HD 
HETATM    4  S   UNL     1     -10.361   7.467  68.158  1.00  0.00    -0.189 S  
HETATM    5  O   UNL     1      -9.014   7.125  68.547  1.00  0.00    -0.128 OA 
HETATM    6  O   UNL     1     -11.488   6.637  68.492  1.00  0.00    -0.132 OA 
ENDROOT
BRANCH   4   7
HETATM    7  C   UNL     1     -10.703   9.130  68.685  1.00  0.00    -0.118 A  
HETATM    8  C   UNL     1     -10.803  10.090  67.675  1.00  0.00    -0.336 A  
HETATM    9  C   UNL     1     -11.155  11.402  67.989  1.00  0.00    -0.257 A  
HETATM   10  C   UNL     1     -11.408  11.816  69.291  1.00  0.00    -0.286 A  
HETATM   11  C   UNL     1     -11.307  10.837  70.294  1.00  0.00    -0.374 A  
HETATM   12  N   UNL     1     -11.900  13.086  69.605  1.00  0.00    -0.320 NA 
HETATM   13  H   UNL     1     -12.423  13.248  70.465  1.00  0.00     0.000 HD 
HETATM   14  C   UNL     1     -11.643  14.175  68.667  1.00  0.00    -0.317 C  
HETATM   15  C   UNL     1     -10.934   9.485  70.022  1.00  0.00    -0.284 A  
HETATM   16  N   UNL     1     -12.179  13.812  67.361  1.00  0.00    -0.438 N  
HETATM   17  O   UNL     1     -10.008  13.063  66.370  1.00  0.00    -0.263 OA 
HETATM   18  C   UNL     1     -10.827   8.561  71.215  1.00  0.00    -0.251 C  
HETATM   19  F   UNL     1     -10.553   7.255  70.973  1.00  0.00    -0.217 F  
HETATM   20  F   UNL     1      -9.862   8.980  72.083  1.00  0.00    -0.379 F  
HETATM   21  S   UNL     1     -11.323  12.545  66.674  1.00  0.00    -0.355 S  
HETATM   22  F   UNL     1     -11.981   8.547  71.944  1.00  0.00    -0.311 F  
HETATM   23  O   UNL     1     -12.166  11.970  65.651  1.00  0.00    -0.503 OA 
HETATM   24  H   UNL     1     -12.976  14.271  66.919  1.00  0.00     0.000 HD 
BRANCH  14  25
HETATM   25  C   UNL     1     -12.345  15.480  69.121  1.00  0.00    -0.064 C  
BRANCH  25  26
HETATM   26  C   UNL     1     -12.633  15.527  70.602  1.00  0.00    -0.493 A  
HETATM   27  C   UNL     1     -13.906  15.212  71.098  1.00  0.00    -0.495 A  
HETATM   28  C   UNL     1     -14.193  15.374  72.453  1.00  0.00    -0.584 A  
HETATM   29  C   UNL     1     -13.204  15.822  73.327  1.00  0.00    -0.687 A  
HETATM   30  C   UNL     1     -11.919  16.076  72.854  1.00  0.00    -0.611 A  
HETATM   31  C   UNL     1     -11.632  15.925  71.498  1.00  0.00    -0.537 A  
ENDBRANCH  25  26
ENDBRANCH  14  25
ENDBRANCH   4   7
TORSDOF 3
ENDMDL
MODEL        2
REMARK 921   NORMALIZED FREE ENERGY PREDICTED BY IDOCK:   -7.81 KCAL/MOL
REMARK 922        TOTAL FREE ENERGY PREDICTED BY IDOCK:   -9.32 KCAL/MOL
REMARK 923 INTER-LIGAND FREE ENERGY PREDICTED BY IDOCK:   -9.22 KCAL/MOL
REMARK 924 INTRA-LIGAND FREE ENERGY PREDICTED BY IDOCK:   -0.10 KCAL/MOL
REMARK 927      BINDING AFFINITY PREDICTED BY RF-SCORE:    0.00 PKD
ROOT
HETATM    1  N   UNL     1     -10.533  17.433  66.745  1.00  0.00    -0.292 N  
HETATM    2  H1  UNL     1      -9.869  17.390  67.518  1.00  0.00     0.000 HD 
HETATM    3  H2  UNL     1     -11.207  18.181  66.583  1.00  0.00     0.000 HD 
HETATM    4  S   UNL     1     -10.338  16.075  65.781  1.00  0.00    -0.391 S  
HETATM    5  O   UNL     1      -8.914  15.985  65.565  1.00  0.00    -0.270 OA 
HETATM    6  O   UNL     1     -11.276  16.134  64.691  1.00  0.00    -0.516 OA 
ENDROOT
BRANCH   4   7
HETATM    7  C   UNL     1     -10.833  14.773  66.887  1.00  0.00    -0.316 A  
HETATM    8  C   UNL     1     -11.212  15.166  68.173  1.00  0.00    -0.326 A  
HETATM    9  C   UNL     1     -11.697  14.223  69.078  1.00  0.00    -0.317 A  
HETATM   10  C   UNL     1     -11.816  12.875  68.760  1.00  0.00    -0.315 A  
HETATM   11  C   UNL     1     -11.434  12.498  67.461  1.00  0.00    -0.397 A  
HETATM   12  N   UNL     1     -12.432  11.946  69.602  1.00  0.00    -0.013 NA 
HETATM   13  H   UNL     1     -12.845  11.091  69.227  1.00  0.00     0.000 HD 
HETATM   14  C   UNL     1     -12.469  12.231  71.033  1.00  0.00    -0.263 C  
HETATM   15  C   UNL     1     -10.917  13.426  66.506  1.00  0.00    -0.299 A  
HETATM   16  N   UNL     1     -13.131  13.513  71.243  1.00  0.00    -0.298 N  
HETATM   17  O   UNL     1     -11.041  14.863  71.497  1.00  0.00    -0.205 OA 
HETATM   18  C   UNL     1     -10.511  12.858  65.164  1.00  0.00    -0.309 C  
HETATM   19  F   UNL     1     -10.092  13.732  64.215  1.00  0.00    -0.438 F  
HETATM   20  F   UNL     1      -9.499  11.951  65.294  1.00  0.00    -0.234 F  
HETATM   21  S   UNL     1     -12.212  14.785  70.653  1.00  0.00    -0.347 S  
HETATM   22  F   UNL     1     -11.534  12.170  64.580  1.00  0.00    -0.343 F  
HETATM   23  O   UNL     1     -13.104  15.909  70.488  1.00  0.00    -0.421 OA 
HETATM   24  H   UNL     1     -14.040  13.623  71.694  1.00  0.00     0.000 HD 
BRANCH  14  25
HETATM   25  C   UNL     1     -13.276  11.151  71.797  1.00  0.00    -0.486 C  
BRANCH  25  26
HETATM   26  C   UNL     1     -12.735   9.752  71.617  1.00  0.00    -0.517 A  
HETATM   27  C   UNL     1     -13.591   8.643  71.625  1.00  0.00    -0.408 A  
HETATM   28  C   UNL     1     -13.069   7.350  71.578  1.00  0.00    -0.424 A  
HETATM   29  C   UNL     1     -11.692   7.158  71.491  1.00  0.00    -0.324 A  
HETATM   30  C   UNL     1     -10.837   8.256  71.418  1.00  0.00    -0.293 A  
HETATM   31  C   UNL     1     -11.356   9.549  71.476  1.00  0.00    -0.456 A  
ENDBRANCH  25  26
ENDBRANCH  14  25
ENDBRANCH   4   7
TORSDOF 3
ENDMDL
MODEL        3
REMARK 921   NORMALIZED FREE ENERGY PREDICTED BY IDOCK:   -7.73 KCAL/MOL
REMARK 922        TOTAL FREE ENERGY PREDICTED BY IDOCK:   -9.22 KCAL/MOL
REMARK 923 INTER-LIGAND FREE ENERGY PREDICTED BY IDOCK:   -8.98 KCAL/MOL
REMARK 924 INTRA-LIGAND FREE ENERGY PREDICTED BY IDOCK:   -0.24 KCAL/MOL
REMARK 927      BINDING AFFINITY PREDICTED BY RF-SCORE:    0.00 PKD
ROOT
HETATM    1  N   UNL     1      -9.034   6.951  68.243  1.00  0.00    -0.125 N  
HETATM    2  H1  UNL     1      -8.235   7.482  68.589  1.00  0.00     0.000 HD 
HETATM    3  H2  UNL     1      -9.136   6.583  67.297  1.00  0.00     0.000 HD 
HETATM    4  S   UNL     1     -10.154   6.781  69.479  1.00  0.00    -0.184 S  
HETATM    5  O   UNL     1      -9.378   6.345  70.614  1.00  0.00    -0.160 OA 
HETATM    6  O   UNL     1     -11.282   6.033  68.990  1.00  0.00    -0.367 OA 
ENDROOT
BRANCH   4   7
HETATM    7  C   UNL     1     -10.660   8.465  69.743  1.00  0.00    -0.221 A  
HETATM    8  C   UNL     1     -10.125   9.415  68.868  1.00  0.00    -0.201 A  
HETATM    9  C   UNL     1     -10.533  10.745  68.947  1.00  0.00    -0.205 A  
HETATM   10  C   UNL     1     -11.461  11.188  69.881  1.00  0.00    -0.306 A  
HETATM   11  C   UNL     1     -11.992  10.219  70.750  1.00  0.00    -0.456 A  
HETATM   12  N   UNL     1     -11.986  12.483  69.880  1.00  0.00    -0.340 NA 
HETATM   13  H   UNL     1     -12.898  12.680  70.293  1.00  0.00     0.000 HD 
HETATM   14  C   UNL     1     -11.194  13.546  69.270  1.00  0.00    -0.231 C  
HETATM   15  C   UNL     1     -11.592   8.848  70.718  1.00  0.00    -0.301 A  
HETATM   16  N   UNL     1     -10.909  13.191  67.885  1.00  0.00    -0.237 N  
HETATM   17  O   UNL     1      -8.596  12.330  68.290  1.00  0.00    -0.174 OA 
HETATM   18  C   UNL     1     -12.223   7.935  71.746  1.00  0.00    -0.310 C  
HETATM   19  F   UNL     1     -11.919   6.616  71.683  1.00  0.00    -0.320 F  
HETATM   20  F   UNL     1     -11.904   8.322  73.015  1.00  0.00    -0.452 F  
HETATM   21  S   UNL     1      -9.873  11.877  67.786  1.00  0.00    -0.188 S  
HETATM   22  F   UNL     1     -13.586   7.985  71.692  1.00  0.00    -0.337 F  
HETATM   23  O   UNL     1     -10.012  11.328  66.457  1.00  0.00    -0.202 OA 
HETATM   24  H   UNL     1     -11.293  13.681  67.076  1.00  0.00     0.000 HD 
BRANCH  14  25
HETATM   25  C   UNL     1     -11.969  14.888  69.264  1.00  0.00    -0.326 C  
BRANCH  25  26
HETATM   26  C   UNL     1     -12.459  15.309  70.630  1.00  0.00    -0.458 A  
HETATM   27  C   UNL     1     -11.578  15.854  71.574  1.00  0.00    -0.537 A  
HETATM   28  C   UNL     1     -12.015  16.127  72.870  1.00  0.00    -0.623 A  
HETATM   29  C   UNL     1     -13.342  15.887  73.222  1.00  0.00    -0.660 A  
HETATM   30  C   UNL     1     -14.240  15.406  72.272  1.00  0.00    -0.639 A  
HETATM   31  C   UNL     1     -13.802  15.121  70.980  1.00  0.00    -0.423 A  
ENDBRANCH  25  26
ENDBRANCH  14  25
ENDBRANCH   4   7
TORSDOF 3
ENDMDL
MODEL        4
REMARK 921   NORMALIZED FREE ENERGY PREDICTED BY IDOCK:   -7.66 KCAL/MOL
REMARK 922        TOTAL FREE ENERGY PREDICTED BY IDOCK:   -9.14 KCAL/MOL
REMARK 923 INTER-LIGAND FREE ENERGY PREDICTED BY IDOCK:   -8.96 KCAL/MOL
REMARK 924 INTRA-LIGAND FREE ENERGY PREDICTED BY IDOCK:   -0.18 KCAL/MOL
REMARK 927      BINDING AFFINITY PREDICTED BY RF-SCORE:    0.00 PKD
ROOT
HETATM    1  N   UNL     1     -11.527   9.009  69.614  1.00  0.00    -0.422 N  
HETATM    2  H1  UNL     1     -10.523   9.186  69.576  1.00  0.00     0.000 HD 
HETATM    3  H2  UNL     1     -12.026   8.308  69.066  1.00  0.00     0.000 HD 
HETATM    4  S   UNL     1     -12.225  10.054  70.723  1.00  0.00    -0.310 S  
HETATM    5  O   UNL     1     -11.384   9.958  71.892  1.00  0.00    -0.076 OA 
HETATM    6  O   UNL     1     -13.641   9.804  70.776  1.00  0.00    -0.227 OA 
ENDROOT
BRANCH   4   7
HETATM    7  C   UNL     1     -11.954  11.633  69.951  1.00  0.00    -0.340 A  
HETATM    8  C   UNL     1     -11.320  11.611  68.706  1.00  0.00    -0.324 A  
HETATM    9  C   UNL     1     -11.145  12.794  67.990  1.00  0.00    -0.250 A  
HETATM   10  C   UNL     1     -11.572  14.027  68.468  1.00  0.00    -0.322 A  
HETATM   11  C   UNL     1     -12.212  14.030  69.720  1.00  0.00    -0.396 A  
HETATM   12  N   UNL     1     -11.535  15.196  67.703  1.00  0.00    -0.331 NA 
HETATM   13  H   UNL     1     -12.168  15.971  67.898  1.00  0.00     0.000 HD 
HETATM   14  C   UNL     1     -10.563  15.277  66.617  1.00  0.00    -0.304 C  
HETATM   15  C   UNL     1     -12.398  12.846  70.497  1.00  0.00    -0.362 A  
HETATM   16  N   UNL     1     -10.783  14.164  65.701  1.00  0.00    -0.301 N  
HETATM   17  O   UNL     1      -8.965  12.702  66.600  1.00  0.00    -0.217 OA 
HETATM   18  C   UNL     1     -13.067  13.019  71.843  1.00  0.00    -0.384 C  
HETATM   19  F   UNL     1     -13.326  11.900  72.562  1.00  0.00    -0.561 F  
HETATM   20  F   UNL     1     -12.326  13.817  72.666  1.00  0.00    -0.151 F  
HETATM   21  S   UNL     1     -10.398  12.696  66.410  1.00  0.00    -0.253 S  
HETATM   22  F   UNL     1     -14.272  13.649  71.727  1.00  0.00    -0.434 F  
HETATM   23  O   UNL     1     -11.055  11.667  65.638  1.00  0.00    -0.300 OA 
HETATM   24  H   UNL     1     -11.128  14.267  64.746  1.00  0.00     0.000 HD 
BRANCH  14  25
HETATM   25  C   UNL     1     -10.731  16.592  65.814  1.00  0.00    -0.232 C  
BRANCH  25  26
HETATM   26  C   UNL     1     -10.177  17.806  66.522  1.00  0.00    -0.358 A  
HETATM   27  C   UNL     1      -9.264  17.671  67.577  1.00  0.00    -0.243 A  
HETATM   28  C   UNL     1      -8.852  18.790  68.299  1.00  0.00    -0.363 A  
HETATM   29  C   UNL     1      -9.324  20.055  67.953  1.00  0.00    -0.438 A  
HETATM   30  C   UNL     1     -10.182  20.206  66.866  1.00  0.00    -0.566 A  
HETATM   31  C   UNL     1     -10.604  19.087  66.149  1.00  0.00    -0.495 A  
ENDBRANCH  25  26
ENDBRANCH  14  25
ENDBRANCH   4   7
TORSDOF 3
ENDMDL
MODEL        5
REMARK 921   NORMALIZED FREE ENERGY PREDICTED BY IDOCK:   -7.48 KCAL/MOL
REMARK 922        TOTAL FREE ENERGY PREDICTED BY IDOCK:   -8.93 KCAL/MOL
REMARK 923 INTER-LIGAND FREE ENERGY PREDICTED BY IDOCK:   -8.99 KCAL/MOL
REMARK 924 INTRA-LIGAND FREE ENERGY PREDICTED BY IDOCK:    0.06 KCAL/MOL
REMARK 927      BINDING AFFINITY PREDICTED BY RF-SCORE:    0.00 PKD
ROOT
HETATM    1  N   UNL     1      -5.710  17.710  66.056  1.00  0.00    -0.201 N  
HETATM    2  H1  UNL     1      -6.053  17.064  65.345  1.00  0.00     0.000 HD 
HETATM    3  H2  UNL     1      -4.819  17.632  66.547  1.00  0.00     0.000 HD 
HETATM    4  S   UNL     1      -6.846  18.921  66.288  1.00  0.00    -0.235 S  
HETATM    5  O   UNL     1      -7.188  19.358  64.956  1.00  0.00    -0.338 OA 
HETATM    6  O   UNL     1      -6.362  19.832  67.292  1.00  0.00    -0.189 OA 
ENDROOT
BRANCH   4   7
HETATM    7  C   UNL     1      -8.215  18.008  66.961  1.00  0.00    -0.227 A  
HETATM    8  C   UNL     1      -8.001  16.644  67.177  1.00  0.00    -0.212 A  
HETATM    9  C   UNL     1      -8.989  15.869  67.781  1.00  0.00    -0.176 A  
HETATM   10  C   UNL     1     -10.211  16.395  68.182  1.00  0.00    -0.262 A  
HETATM   11  C   UNL     1     -10.408  17.769  67.961  1.00  0.00    -0.395 A  
HETATM   12  N   UNL     1     -11.151  15.667  68.917  1.00  0.00    -0.270 NA 
HETATM   13  H   UNL     1     -11.833  16.140  69.511  1.00  0.00     0.000 HD 
HETATM   14  C   UNL     1     -11.130  14.212  68.810  1.00  0.00    -0.262 C  
HETATM   15  C   UNL     1      -9.431  18.600  67.331  1.00  0.00    -0.315 A  
HETATM   16  N   UNL     1      -9.809  13.728  69.193  1.00  0.00    -0.407 N  
HETATM   17  O   UNL     1      -8.932  13.449  66.868  1.00  0.00    -0.229 OA 
HETATM   18  C   UNL     1      -9.809  20.050  67.126  1.00  0.00    -0.426 C  
HETATM   19  F   UNL     1      -8.868  20.874  66.602  1.00  0.00    -0.198 F  
HETATM   20  F   UNL     1     -10.893  20.170  66.306  1.00  0.00    -0.501 F  
HETATM   21  S   UNL     1      -8.640  14.180  68.080  1.00  0.00    -0.183 S  
HETATM   22  F   UNL     1     -10.181  20.643  68.297  1.00  0.00    -0.464 F  
HETATM   23  O   UNL     1      -7.361  14.070  68.742  1.00  0.00    -0.120 OA 
HETATM   24  H   UNL     1      -9.620  13.181  70.034  1.00  0.00     0.000 HD 
BRANCH  14  25
HETATM   25  C   UNL     1     -12.166  13.567  69.766  1.00  0.00    -0.330 C  
BRANCH  25  26
HETATM   26  C   UNL     1     -12.535  14.445  70.938  1.00  0.00    -0.424 A  
HETATM   27  C   UNL     1     -11.558  14.897  71.835  1.00  0.00    -0.335 A  
HETATM   28  C   UNL     1     -11.925  15.606  72.978  1.00  0.00    -0.590 A  
HETATM   29  C   UNL     1     -13.267  15.895  73.217  1.00  0.00    -0.698 A  
HETATM   30  C   UNL     1     -14.239  15.506  72.298  1.00  0.00    -0.617 A  
HETATM   31  C   UNL     1     -13.876  14.787  71.160  1.00  0.00    -0.388 A  
ENDBRANCH  25  26
ENDBRANCH  14  25
ENDBRANCH   4   7
TORSDOF 3
ENDMDL
MODEL        6
REMARK 921   NORMALIZED FREE ENERGY PREDICTED BY IDOCK:   -7.44 KCAL/MOL
REMARK 922        TOTAL FREE ENERGY PREDICTED BY IDOCK:   -8.89 KCAL/MOL
REMARK 923 INTER-LIGAND FREE ENERGY PREDICTED BY IDOCK:   -8.84 KCAL/MOL
REMARK 924 INTRA-LIGAND FREE ENERGY PREDICTED BY IDOCK:   -0.04 KCAL/MOL
REMARK 927      BINDING AFFINITY PREDICTED BY RF-SCORE:    0.00 PKD
ROOT
HETATM    1  N   UNL     1     -10.466  18.859  69.169  1.00  0.00    -0.358 N  
HETATM    2  H1  UNL     1      -9.896  18.604  69.976  1.00  0.00     0.000 HD 
HETATM    3  H2  UNL     1     -11.219  19.546  69.169  1.00  0.00     0.000 HD 
HETATM    4  S   UNL     1      -9.967  17.964  67.843  1.00  0.00    -0.348 S  
HETATM    5  O   UNL     1      -8.529  18.094  67.838  1.00  0.00    -0.244 OA 
HETATM    6  O   UNL     1     -10.772  18.322  66.705  1.00  0.00    -0.330 OA 
ENDROOT
BRANCH   4   7
HETATM    7  C   UNL     1     -10.390  16.311  68.342  1.00  0.00    -0.271 A  
HETATM    8  C   UNL     1     -11.137  16.192  69.517  1.00  0.00    -0.344 A  
HETATM    9  C   UNL     1     -11.587  14.942  69.936  1.00  0.00    -0.289 A  
HETATM   10  C   UNL     1     -11.315  13.775  69.232  1.00  0.00    -0.273 A  
HETATM   11  C   UNL     1     -10.566  13.912  68.050  1.00  0.00    -0.252 A  
HETATM   12  N   UNL     1     -11.878  12.538  69.559  1.00  0.00    -0.317 NA 
HETATM   13  H   UNL     1     -11.983  11.808  68.855  1.00  0.00     0.000 HD 
HETATM   14  C   UNL     1     -12.310  12.321  70.935  1.00  0.00    -0.267 C  
HETATM   15  C   UNL     1     -10.070  15.171  67.590  1.00  0.00    -0.231 A  
HETATM   16  N   UNL     1     -13.280  13.349  71.295  1.00  0.00    -0.230 N  
HETATM   17  O   UNL     1     -11.676  14.826  72.519  1.00  0.00    -0.239 OA 
HETATM   18  C   UNL     1      -9.244  15.149  66.323  1.00  0.00    -0.301 C  
HETATM   19  F   UNL     1      -8.830  16.340  65.825  1.00  0.00    -0.350 F  
HETATM   20  F   UNL     1      -8.109  14.408  66.483  1.00  0.00    -0.052 F  
HETATM   21  S   UNL     1     -12.569  14.864  71.383  1.00  0.00    -0.364 S  
HETATM   22  F   UNL     1      -9.916  14.553  65.296  1.00  0.00    -0.352 F  
HETATM   23  O   UNL     1     -13.632  15.837  71.287  1.00  0.00    -0.561 OA 
HETATM   24  H   UNL     1     -14.269  13.168  71.472  1.00  0.00     0.000 HD 
BRANCH  14  25
HETATM   25  C   UNL     1     -13.000  10.943  71.094  1.00  0.00    -0.449 C  
BRANCH  25  26
HETATM   26  C   UNL     1     -12.046   9.827  71.449  1.00  0.00    -0.486 A  
HETATM   27  C   UNL     1     -12.432   8.800  72.322  1.00  0.00    -0.455 A  
HETATM   28  C   UNL     1     -11.507   7.843  72.735  1.00  0.00    -0.428 A  
HETATM   29  C   UNL     1     -10.199   7.885  72.257  1.00  0.00    -0.302 A  
HETATM   30  C   UNL     1      -9.824   8.864  71.339  1.00  0.00    -0.376 A  
HETATM   31  C   UNL     1     -10.744   9.829  70.933  1.00  0.00    -0.375 A  
ENDBRANCH  25  26
ENDBRANCH  14  25
ENDBRANCH   4   7
TORSDOF 3
ENDMDL
MODEL        7
REMARK 921   NORMALIZED FREE ENERGY PREDICTED BY IDOCK:   -7.40 KCAL/MOL
REMARK 922        TOTAL FREE ENERGY PREDICTED BY IDOCK:   -8.84 KCAL/MOL
REMARK 923 INTER-LIGAND FREE ENERGY PREDICTED BY IDOCK:   -8.93 KCAL/MOL
REMARK 924 INTRA-LIGAND FREE ENERGY PREDICTED BY IDOCK:    0.10 KCAL/MOL
REMARK 927      BINDING AFFINITY PREDICTED BY RF-SCORE:    0.00 PKD
ROOT
HETATM    1  N   UNL     1     -10.143  11.792  69.029  1.00  0.00    -0.416 N  
HETATM    2  H1  UNL     1     -10.851  12.326  69.532  1.00  0.00     0.000 HD 
HETATM    3  H2  UNL     1      -9.292  11.406  69.436  1.00  0.00     0.000 HD 
HETATM    4  S   UNL     1     -10.603  11.651  67.423  1.00  0.00    -0.231 S  
HETATM    5  O   UNL     1     -11.984  11.235  67.476  1.00  0.00    -0.612 OA 
HETATM    6  O   UNL     1      -9.604  10.898  66.712  1.00  0.00    -0.178 OA 
ENDROOT
BRANCH   4   7
HETATM    7  C   UNL     1     -10.535  13.342  66.878  1.00  0.00    -0.273 A  
HETATM    8  C   UNL     1     -10.127  14.282  67.828  1.00  0.00    -0.231 A  
HETATM    9  C   UNL     1      -9.962  15.617  67.465  1.00  0.00    -0.231 A  
HETATM   10  C   UNL     1     -10.198  16.075  66.174  1.00  0.00    -0.324 A  
HETATM   11  C   UNL     1     -10.605  15.116  65.230  1.00  0.00    -0.432 A  
HETATM   12  N   UNL     1      -9.900  17.376  65.760  1.00  0.00    -0.555 NA 
HETATM   13  H   UNL     1      -9.718  17.585  64.779  1.00  0.00     0.000 HD 
HETATM   14  C   UNL     1      -9.856  18.427  66.772  1.00  0.00    -0.342 C  
HETATM   15  C   UNL     1     -10.803  13.740  65.560  1.00  0.00    -0.299 A  
HETATM   16  N   UNL     1      -8.882  18.062  67.793  1.00  0.00    -0.252 N  
HETATM   17  O   UNL     1     -10.535  17.177  69.448  1.00  0.00    -0.321 OA 
HETATM   18  C   UNL     1     -11.283  12.840  64.443  1.00  0.00    -0.347 C  
HETATM   19  F   UNL     1     -11.401  11.517  64.712  1.00  0.00    -0.357 F  
HETATM   20  F   UNL     1     -12.508  13.228  63.984  1.00  0.00    -0.429 F  
HETATM   21  S   UNL     1      -9.390  16.736  68.684  1.00  0.00    -0.256 S  
HETATM   22  F   UNL     1     -10.458  12.905  63.357  1.00  0.00    -0.338 F  
HETATM   23  O   UNL     1      -8.219  16.182  69.323  1.00  0.00    -0.239 OA 
HETATM   24  H   UNL     1      -8.001  18.552  67.947  1.00  0.00     0.000 HD 
BRANCH  14  25
HETATM   25  C   UNL     1      -9.412  19.778  66.155  1.00  0.00    -0.464 C  
BRANCH  25  26
HETATM   26  C   UNL     1      -7.938  20.061  66.320  1.00  0.00    -0.323 A  
HETATM   27  C   UNL     1      -7.460  20.763  67.435  1.00  0.00    -0.374 A  
HETATM   28  C   UNL     1      -6.115  21.122  67.518  1.00  0.00    -0.420 A  
HETATM   29  C   UNL     1      -5.233  20.756  66.503  1.00  0.00    -0.210 A  
HETATM   30  C   UNL     1      -5.686  20.003  65.423  1.00  0.00    -0.206 A  
HETATM   31  C   UNL     1      -7.032  19.652  65.332  1.00  0.00    -0.273 A  
ENDBRANCH  25  26
ENDBRANCH  14  25
ENDBRANCH   4   7
TORSDOF 3
ENDMDL
MODEL        8
REMARK 921   NORMALIZED FREE ENERGY PREDICTED BY IDOCK:   -7.35 KCAL/MOL
REMARK 922        TOTAL FREE ENERGY PREDICTED BY IDOCK:   -8.77 KCAL/MOL
REMARK 923 INTER-LIGAND FREE ENERGY PREDICTED BY IDOCK:   -8.59 KCAL/MOL
REMARK 924 INTRA-LIGAND FREE ENERGY PREDICTED BY IDOCK:   -0.18 KCAL/MOL
REMARK 927      BINDING AFFINITY PREDICTED BY RF-SCORE:    0.00 PKD
ROOT
HETATM    1  N   UNL     1     -11.035  19.336  66.957  1.00  0.00    -0.408 N  
HETATM    2  H1  UNL     1     -11.873  18.864  67.299  1.00  0.00     0.000 HD 
HETATM    3  H2  UNL     1     -11.014  20.058  66.237  1.00  0.00     0.000 HD 
HETATM    4  S   UNL     1      -9.699  18.734  67.771  1.00  0.00    -0.332 S  
HETATM    5  O   UNL     1     -10.080  18.759  69.163  1.00  0.00    -0.359 OA 
HETATM    6  O   UNL     1      -8.517  19.400  67.290  1.00  0.00    -0.283 OA 
ENDROOT
BRANCH   4   7
HETATM    7  C   UNL     1      -9.667  17.046  67.216  1.00  0.00    -0.253 A  
HETATM    8  C   UNL     1     -10.704  16.656  66.364  1.00  0.00    -0.123 A  
HETATM    9  C   UNL     1     -10.711  15.377  65.812  1.00  0.00    -0.351 A  
HETATM   10  C   UNL     1      -9.719  14.441  66.080  1.00  0.00    -0.294 A  
HETATM   11  C   UNL     1      -8.682  14.851  66.936  1.00  0.00    -0.276 A  
HETATM   12  N   UNL     1      -9.634  13.210  65.424  1.00  0.00    -0.489 NA 
HETATM   13  H   UNL     1      -8.743  12.721  65.341  1.00  0.00     0.000 HD 
HETATM   14  C   UNL     1     -10.856  12.645  64.862  1.00  0.00    -0.298 C  
HETATM   15  C   UNL     1      -8.641  16.146  67.538  1.00  0.00    -0.189 A  
HETATM   16  N   UNL     1     -11.432  13.599  63.922  1.00  0.00    -0.611 N  
HETATM   17  O   UNL     1     -13.138  14.538  65.491  1.00  0.00    -0.441 OA 
HETATM   18  C   UNL     1      -7.481  16.422  68.469  1.00  0.00    -0.181 C  
HETATM   19  F   UNL     1      -7.379  17.669  68.989  1.00  0.00    -0.246 F  
HETATM   20  F   UNL     1      -7.496  15.580  69.544  1.00  0.00    -0.174 F  
HETATM   21  S   UNL     1     -12.003  14.967  64.704  1.00  0.00    -0.339 S  
HETATM   22  F   UNL     1      -6.282  16.197  67.858  1.00  0.00    -0.098 F  
HETATM   23  O   UNL     1     -12.121  16.006  63.708  1.00  0.00    -0.882 OA 
HETATM   24  H   UNL     1     -11.481  13.453  62.913  1.00  0.00     0.000 HD 
BRANCH  14  25
HETATM   25  C   UNL     1     -10.561  11.336  64.086  1.00  0.00    -0.437 C  
BRANCH  25  26
HETATM   26  C   UNL     1      -9.982  10.240  64.949  1.00  0.00    -0.393 A  
HETATM   27  C   UNL     1      -8.931   9.437  64.484  1.00  0.00    -0.227 A  
HETATM   28  C   UNL     1      -8.485   8.354  65.240  1.00  0.00    -0.189 A  
HETATM   29  C   UNL     1      -9.064   8.083  66.478  1.00  0.00    -0.213 A  
HETATM   30  C   UNL     1     -10.065   8.914  66.977  1.00  0.00    -0.331 A  
HETATM   31  C   UNL     1     -10.520   9.991  66.218  1.00  0.00    -0.172 A  
ENDBRANCH  25  26
ENDBRANCH  14  25
ENDBRANCH   4   7
TORSDOF 3
ENDMDL
MODEL        9
REMARK 921   NORMALIZED FREE ENERGY PREDICTED BY IDOCK:   -7.19 KCAL/MOL
REMARK 922        TOTAL FREE ENERGY PREDICTED BY IDOCK:   -8.59 KCAL/MOL
REMARK 923 INTER-LIGAND FREE ENERGY PREDICTED BY IDOCK:   -8.35 KCAL/MOL
REMARK 924 INTRA-LIGAND FREE ENERGY PREDICTED BY IDOCK:   -0.24 KCAL/MOL
REMARK 927      BINDING AFFINITY PREDICTED BY RF-SCORE:    0.00 PKD
ROOT
HETATM    1  N   UNL     1     -11.064  19.783  66.799  1.00  0.00    -0.220 N  
HETATM    2  H1  UNL     1     -11.807  19.303  67.308  1.00  0.00     0.000 HD 
HETATM    3  H2  UNL     1     -11.198  20.415  66.010  1.00  0.00     0.000 HD 
HETATM    4  S   UNL     1      -9.585  19.365  67.470  1.00  0.00    -0.341 S  
HETATM    5  O   UNL     1      -9.772  19.530  68.891  1.00  0.00    -0.412 OA 
HETATM    6  O   UNL     1      -8.537  20.042  66.752  1.00  0.00    -0.315 OA 
ENDROOT
BRANCH   4   7
HETATM    7  C   UNL     1      -9.499  17.628  67.101  1.00  0.00    -0.267 A  
HETATM    8  C   UNL     1     -10.521  17.115  66.299  1.00  0.00    -0.260 A  
HETATM    9  C   UNL     1     -10.487  15.784  65.889  1.00  0.00    -0.352 A  
HETATM   10  C   UNL     1      -9.465  14.915  66.254  1.00  0.00    -0.309 A  
HETATM   11  C   UNL     1      -8.443  15.449  67.058  1.00  0.00    -0.262 A  
HETATM   12  N   UNL     1      -9.341  13.624  65.735  1.00  0.00    -0.488 NA 
HETATM   13  H   UNL     1      -8.434  13.157  65.703  1.00  0.00     0.000 HD 
HETATM   14  C   UNL     1     -10.543  12.962  65.241  1.00  0.00    -0.297 C  
HETATM   15  C   UNL     1      -8.444  16.802  67.516  1.00  0.00    -0.203 A  
HETATM   16  N   UNL     1     -11.148  13.790  64.205  1.00  0.00    -0.587 N  
HETATM   17  O   UNL     1     -12.885  14.838  65.667  1.00  0.00    -0.053 OA 
HETATM   18  C   UNL     1      -7.295  17.214  68.409  1.00  0.00    -0.220 C  
HETATM   19  F   UNL     1      -7.233  18.513  68.790  1.00  0.00    -0.267 F  
HETATM   20  F   UNL     1      -7.284  16.494  69.568  1.00  0.00    -0.229 F  
HETATM   21  S   UNL     1     -11.764  15.215  64.835  1.00  0.00    -0.234 S  
HETATM   22  F   UNL     1      -6.088  16.963  67.822  1.00  0.00    -0.119 F  
HETATM   23  O   UNL     1     -11.914  16.136  63.733  1.00  0.00    -0.926 OA 
HETATM   24  H   UNL     1     -11.192  13.534  63.218  1.00  0.00     0.000 HD 
BRANCH  14  25
HETATM   25  C   UNL     1     -10.205  11.587  64.611  1.00  0.00    -0.334 C  
BRANCH  25  26
HETATM   26  C   UNL     1     -10.152  10.459  65.615  1.00  0.00    -0.337 A  
HETATM   27  C   UNL     1     -10.762  10.584  66.870  1.00  0.00    -0.281 A  
HETATM   28  C   UNL     1     -10.606   9.586  67.831  1.00  0.00    -0.299 A  
HETATM   29  C   UNL     1      -9.865   8.443  67.535  1.00  0.00    -0.235 A  
HETATM   30  C   UNL     1      -9.309   8.282  66.268  1.00  0.00    -0.267 A  
HETATM   31  C   UNL     1      -9.455   9.283  65.309  1.00  0.00    -0.234 A  
ENDBRANCH  25  26
ENDBRANCH  14  25
ENDBRANCH   4   7
TORSDOF 3
ENDMDL
MODEL       10
REMARK 921   NORMALIZED FREE ENERGY PREDICTED BY IDOCK:   -7.07 KCAL/MOL
REMARK 922        TOTAL FREE ENERGY PREDICTED BY IDOCK:   -8.45 KCAL/MOL
REMARK 923 INTER-LIGAND FREE ENERGY PREDICTED BY IDOCK:   -8.23 KCAL/MOL
REMARK 924 INTRA-LIGAND FREE ENERGY PREDICTED BY IDOCK:   -0.22 KCAL/MOL
REMARK 927      BINDING AFFINITY PREDICTED BY RF-SCORE:    0.00 PKD
ROOT
HETATM    1  N   UNL     1      -8.494   8.163  69.929  1.00  0.00    -0.123 N  
HETATM    2  H1  UNL     1      -7.809   8.842  70.262  1.00  0.00     0.000 HD 
HETATM    3  H2  UNL     1      -8.306   7.404  69.274  1.00  0.00     0.000 HD 
HETATM    4  S   UNL     1      -9.979   8.495  70.634  1.00  0.00    -0.196 S  
HETATM    5  O   UNL     1      -9.685   8.665  72.036  1.00  0.00    -0.276 OA 
HETATM    6  O   UNL     1     -10.945   7.537  70.165  1.00  0.00    -0.257 OA 
ENDROOT
BRANCH   4   7
HETATM    7  C   UNL     1     -10.364  10.083  69.933  1.00  0.00    -0.272 A  
HETATM    8  C   UNL     1      -9.416  10.619  69.057  1.00  0.00    -0.202 A  
HETATM    9  C   UNL     1      -9.674  11.817  68.396  1.00  0.00    -0.197 A  
HETATM   10  C   UNL     1     -10.854  12.530  68.574  1.00  0.00    -0.243 A  
HETATM   11  C   UNL     1     -11.798  11.976  69.455  1.00  0.00    -0.390 A  
HETATM   12  N   UNL     1     -11.189  13.654  67.813  1.00  0.00    -0.274 NA 
HETATM   13  H   UNL     1     -12.163  13.926  67.681  1.00  0.00     0.000 HD 
HETATM   14  C   UNL     1     -10.106  14.425  67.212  1.00  0.00    -0.251 C  
HETATM   15  C   UNL     1     -11.571  10.759  70.168  1.00  0.00    -0.424 A  
HETATM   16  N   UNL     1      -9.311  13.545  66.363  1.00  0.00    -0.421 N  
HETATM   17  O   UNL     1      -7.482  13.140  68.020  1.00  0.00    -0.104 OA 
HETATM   18  C   UNL     1     -12.666  10.313  71.111  1.00  0.00    -0.403 C  
HETATM   19  F   UNL     1     -12.507   9.121  71.738  1.00  0.00    -0.340 F  
HETATM   20  F   UNL     1     -12.863  11.224  72.108  1.00  0.00    -0.500 F  
HETATM   21  S   UNL     1      -8.475  12.407  67.266  1.00  0.00    -0.188 S  
HETATM   22  F   UNL     1     -13.869  10.216  70.474  1.00  0.00    -0.272 F  
HETATM   23  O   UNL     1      -8.107  11.340  66.365  1.00  0.00    -0.165 OA 
HETATM   24  H   UNL     1      -9.269  13.614  65.346  1.00  0.00     0.000 HD 
BRANCH  14  25
HETATM   25  C   UNL     1     -10.660  15.567  66.323  1.00  0.00    -0.310 C  
BRANCH  25  26
HETATM   26  C   UNL     1     -10.401  16.947  66.881  1.00  0.00    -0.304 A  
HETATM   27  C   UNL     1     -10.157  17.136  68.248  1.00  0.00    -0.314 A  
HETATM   28  C   UNL     1     -10.038  18.424  68.770  1.00  0.00    -0.393 A  
HETATM   29  C   UNL     1     -10.130  19.529  67.926  1.00  0.00    -0.531 A  
HETATM   30  C   UNL     1     -10.308  19.348  66.556  1.00  0.00    -0.564 A  
HETATM   31  C   UNL     1     -10.439  18.062  66.034  1.00  0.00    -0.317 A  
ENDBRANCH  25  26
ENDBRANCH  14  25
ENDBRANCH   4   7
TORSDOF 3
ENDMDL
MODEL       11
REMARK 921   NORMALIZED FREE ENERGY PREDICTED BY IDOCK:   -7.06 KCAL/MOL
REMARK 922        TOTAL FREE ENERGY PREDICTED BY IDOCK:   -8.44 KCAL/MOL
REMARK 923 INTER-LIGAND FREE ENERGY PREDICTED BY IDOCK:   -8.55 KCAL/MOL
REMARK 924 INTRA-LIGAND FREE ENERGY PREDICTED BY IDOCK:    0.11 KCAL/MOL
REMARK 927      BINDING AFFINITY PREDICTED BY RF-SCORE:    0.00 PKD
ROOT
HETATM    1  N   UNL     1     -12.959  15.950  70.451  1.00  0.00    -0.710 N  
HETATM    2  H1  UNL     1     -13.715  15.916  69.767  1.00  0.00     0.000 HD 
HETATM    3  H2  UNL     1     -12.360  16.756  70.633  1.00  0.00     0.000 HD 
HETATM    4  S   UNL     1     -12.859  14.468  71.229  1.00  0.00    -0.354 S  
HETATM    5  O   UNL     1     -14.219  14.163  71.602  1.00  0.00    -0.394 OA 
HETATM    6  O   UNL     1     -11.793  14.516  72.194  1.00  0.00    -0.213 OA 
ENDROOT
BRANCH   4   7
HETATM    7  C   UNL     1     -12.375  13.394  69.898  1.00  0.00    -0.195 A  
HETATM    8  C   UNL     1     -12.026  14.017  68.697  1.00  0.00    -0.389 A  
HETATM    9  C   UNL     1     -11.551  13.258  67.629  1.00  0.00    -0.346 A  
HETATM   10  C   UNL     1     -11.413  11.877  67.696  1.00  0.00    -0.317 A  
HETATM   11  C   UNL     1     -11.765  11.267  68.912  1.00  0.00    -0.409 A  
HETATM   12  N   UNL     1     -10.806  11.121  66.689  1.00  0.00    -0.268 NA 
HETATM   13  H   UNL     1     -10.379  10.219  66.896  1.00  0.00     0.000 HD 
HETATM   14  C   UNL     1     -10.800  11.660  65.333  1.00  0.00    -0.280 C  
HETATM   15  C   UNL     1     -12.272  12.001  70.028  1.00  0.00    -0.280 A  
HETATM   16  N   UNL     1     -10.155  12.967  65.345  1.00  0.00    -0.391 N  
HETATM   17  O   UNL     1     -12.261  14.315  65.376  1.00  0.00    -0.393 OA 
HETATM   18  C   UNL     1     -12.646  11.196  71.253  1.00  0.00    -0.398 C  
HETATM   19  F   UNL     1     -13.053  11.879  72.351  1.00  0.00    -0.551 F  
HETATM   20  F   UNL     1     -13.651  10.315  70.980  1.00  0.00    -0.399 F  
HETATM   21  S   UNL     1     -11.073  14.101  66.171  1.00  0.00    -0.318 S  
HETATM   22  F   UNL     1     -11.605  10.426  71.685  1.00  0.00    -0.351 F  
HETATM   23  O   UNL     1     -10.188  15.188  66.520  1.00  0.00    -0.262 OA 
HETATM   24  H   UNL     1      -9.256  13.168  64.905  1.00  0.00     0.000 HD 
BRANCH  14  25
HETATM   25  C   UNL     1     -10.000  10.746  64.372  1.00  0.00    -0.400 C  
BRANCH  25  26
HETATM   26  C   UNL     1      -8.986   9.872  65.073  1.00  0.00    -0.239 A  
HETATM   27  C   UNL     1      -9.388   8.735  65.788  1.00  0.00    -0.259 A  
HETATM   28  C   UNL     1      -8.460   8.005  66.529  1.00  0.00    -0.137 A  
HETATM   29  C   UNL     1      -7.119   8.386  66.536  1.00  0.00    -0.072 A  
HETATM   30  C   UNL     1      -6.700   9.477  65.777  1.00  0.00    -0.083 A  
HETATM   31  C   UNL     1      -7.628  10.215  65.044  1.00  0.00    -0.141 A  
ENDBRANCH  25  26
ENDBRANCH  14  25
ENDBRANCH   4   7
TORSDOF 3
ENDMDL
MODEL       12
REMARK 921   NORMALIZED FREE ENERGY PREDICTED BY IDOCK:   -6.91 KCAL/MOL
REMARK 922        TOTAL FREE ENERGY PREDICTED BY IDOCK:   -8.26 KCAL/MOL
REMARK 923 INTER-LIGAND FREE ENERGY PREDICTED BY IDOCK:   -8.05 KCAL/MOL
REMARK 924 INTRA-LIGAND FREE ENERGY PREDICTED BY IDOCK:   -0.21 KCAL/MOL
REMARK 927      BINDING AFFINITY PREDICTED BY RF-SCORE:    0.00 PKD
ROOT
HETATM    1  N   UNL     1     -11.109  11.035  63.269  1.00  0.00    -0.714 N  
HETATM    2  H1  UNL     1     -11.793  10.335  63.556  1.00  0.00     0.000 HD 
HETATM    3  H2  UNL     1     -10.371  10.895  62.580  1.00  0.00     0.000 HD 
HETATM    4  S   UNL     1     -11.396  12.456  64.113  1.00  0.00    -0.416 S  
HETATM    5  O   UNL     1     -12.817  12.672  63.986  1.00  0.00    -0.700 OA 
HETATM    6  O   UNL     1     -10.431  13.444  63.708  1.00  0.00    -0.160 OA 
ENDROOT
BRANCH   4   7
HETATM    7  C   UNL     1     -11.038  11.962  65.783  1.00  0.00    -0.317 A  
HETATM    8  C   UNL     1     -10.625  10.639  65.962  1.00  0.00    -0.195 A  
HETATM    9  C   UNL     1     -10.242  10.191  67.224  1.00  0.00    -0.222 A  
HETATM   10  C   UNL     1     -10.259  11.011  68.346  1.00  0.00    -0.185 A  
HETATM   11  C   UNL     1     -10.673  12.340  68.148  1.00  0.00    -0.241 A  
HETATM   12  N   UNL     1      -9.742  10.621  69.584  1.00  0.00    -0.433 NA 
HETATM   13  H   UNL     1      -9.418  11.313  70.259  1.00  0.00     0.000 HD 
HETATM   14  C   UNL     1      -9.681   9.194  69.885  1.00  0.00    -0.191 C  
HETATM   15  C   UNL     1     -11.091  12.839  66.876  1.00  0.00    -0.308 A  
HETATM   16  N   UNL     1      -8.893   8.526  68.855  1.00  0.00    -0.138 N  
HETATM   17  O   UNL     1     -10.836   7.690  67.521  1.00  0.00    -0.223 OA 
HETATM   18  C   UNL     1     -11.548  14.281  66.833  1.00  0.00    -0.387 C  
HETATM   19  F   UNL     1     -11.874  14.799  65.624  1.00  0.00    -0.350 F  
HETATM   20  F   UNL     1     -12.647  14.476  67.619  1.00  0.00    -0.226 F  
HETATM   21  S   UNL     1      -9.676   8.541  67.374  1.00  0.00    -0.184 S  
HETATM   22  F   UNL     1     -10.599  15.124  67.333  1.00  0.00    -0.252 F  
HETATM   23  O   UNL     1      -8.675   8.289  66.364  1.00  0.00    -0.128 OA 
HETATM   24  H   UNL     1      -7.979   8.102  69.017  1.00  0.00     0.000 HD 
BRANCH  14  25
HETATM   25  C   UNL     1      -8.990   8.940  71.249  1.00  0.00    -0.312 C  
BRANCH  25  26
HETATM   26  C   UNL     1      -9.682   7.894  72.091  1.00  0.00    -0.257 A  
HETATM   27  C   UNL     1      -9.326   7.700  73.432  1.00  0.00    -0.324 A  
HETATM   28  C   UNL     1      -9.887   6.654  74.165  1.00  0.00    -0.335 A  
HETATM   29  C   UNL     1     -10.829   5.815  73.572  1.00  0.00    -0.272 A  
HETATM   30  C   UNL     1     -11.236   6.040  72.259  1.00  0.00    -0.341 A  
HETATM   31  C   UNL     1     -10.668   7.079  71.521  1.00  0.00    -0.244 A  
ENDBRANCH  25  26
ENDBRANCH  14  25
ENDBRANCH   4   7
TORSDOF 3
ENDMDL
MODEL       13
REMARK 921   NORMALIZED FREE ENERGY PREDICTED BY IDOCK:   -6.84 KCAL/MOL
REMARK 922        TOTAL FREE ENERGY PREDICTED BY IDOCK:   -8.18 KCAL/MOL
REMARK 923 INTER-LIGAND FREE ENERGY PREDICTED BY IDOCK:   -8.12 KCAL/MOL
REMARK 924 INTRA-LIGAND FREE ENERGY PREDICTED BY IDOCK:   -0.06 KCAL/MOL
REMARK 927      BINDING AFFINITY PREDICTED BY RF-SCORE:    0.00 PKD
ROOT
HETATM    1  N   UNL     1      -5.540  18.085  66.747  1.00  0.00    -0.138 N  
HETATM    2  H1  UNL     1      -5.626  17.157  66.333  1.00  0.00     0.000 HD 
HETATM    3  H2  UNL     1      -4.813  18.377  67.402  1.00  0.00     0.000 HD 
HETATM    4  S   UNL     1      -6.783  19.056  66.178  1.00  0.00    -0.237 S  
HETATM    5  O   UNL     1      -6.780  18.849  64.750  1.00  0.00    -0.461 OA 
HETATM    6  O   UNL     1      -6.660  20.366  66.762  1.00  0.00    -0.211 OA 
ENDROOT
BRANCH   4   7
HETATM    7  C   UNL     1      -8.211  18.255  66.870  1.00  0.00    -0.247 A  
HETATM    8  C   UNL     1      -7.979  17.059  67.555  1.00  0.00    -0.189 A  
HETATM    9  C   UNL     1      -9.027  16.409  68.202  1.00  0.00    -0.197 A  
HETATM   10  C   UNL     1     -10.329  16.897  68.193  1.00  0.00    -0.336 A  
HETATM   11  C   UNL     1     -10.544  18.103  67.504  1.00  0.00    -0.419 A  
HETATM   12  N   UNL     1     -11.358  16.338  68.955  1.00  0.00    -0.339 NA 
HETATM   13  H   UNL     1     -12.165  16.895  69.236  1.00  0.00     0.000 HD 
HETATM   14  C   UNL     1     -11.246  14.934  69.337  1.00  0.00    -0.283 C  
HETATM   15  C   UNL     1      -9.504  18.796  66.812  1.00  0.00    -0.335 A  
HETATM   16  N   UNL     1     -10.005  14.741  70.077  1.00  0.00    -0.402 N  
HETATM   17  O   UNL     1      -8.675  13.846  68.157  1.00  0.00    -0.168 OA 
HETATM   18  C   UNL     1      -9.903  20.059  66.081  1.00  0.00    -0.443 C  
HETATM   19  F   UNL     1      -8.919  20.775  65.484  1.00  0.00     0.145 F  
HETATM   20  F   UNL     1     -10.810  19.797  65.095  1.00  0.00    -0.528 F  
HETATM   21  S   UNL     1      -8.663  14.947  69.094  1.00  0.00    -0.103 S  
HETATM   22  F   UNL     1     -10.527  20.944  66.912  1.00  0.00    -0.280 F  
HETATM   23  O   UNL     1      -7.535  15.191  69.962  1.00  0.00    -0.135 OA 
HETATM   24  H   UNL     1      -9.958  14.510  71.069  1.00  0.00     0.000 HD 
BRANCH  14  25
HETATM   25  C   UNL     1     -12.417  14.511  70.260  1.00  0.00    -0.405 C  
BRANCH  25  26
HETATM   26  C   UNL     1     -12.496  13.020  70.491  1.00  0.00    -0.306 A  
HETATM   27  C   UNL     1     -13.029  12.503  71.680  1.00  0.00    -0.405 A  
HETATM   28  C   UNL     1     -12.987  11.132  71.932  1.00  0.00    -0.477 A  
HETATM   29  C   UNL     1     -12.443  10.266  70.986  1.00  0.00    -0.484 A  
HETATM   30  C   UNL     1     -11.970  10.764  69.774  1.00  0.00    -0.397 A  
HETATM   31  C   UNL     1     -12.000  12.136  69.525  1.00  0.00    -0.338 A  
ENDBRANCH  25  26
ENDBRANCH  14  25
ENDBRANCH   4   7
TORSDOF 3
ENDMDL
MODEL       14
REMARK 921   NORMALIZED FREE ENERGY PREDICTED BY IDOCK:   -6.80 KCAL/MOL
REMARK 922        TOTAL FREE ENERGY PREDICTED BY IDOCK:   -8.14 KCAL/MOL
REMARK 923 INTER-LIGAND FREE ENERGY PREDICTED BY IDOCK:   -8.08 KCAL/MOL
REMARK 924 INTRA-LIGAND FREE ENERGY PREDICTED BY IDOCK:   -0.06 KCAL/MOL
REMARK 927      BINDING AFFINITY PREDICTED BY RF-SCORE:    0.00 PKD
ROOT
HETATM    1  N   UNL     1     -13.680  13.499  72.775  1.00  0.00    -0.393 N  
HETATM    2  H1  UNL     1     -13.023  13.083  73.435  1.00  0.00     0.000 HD 
HETATM    3  H2  UNL     1     -14.689  13.571  72.908  1.00  0.00     0.000 HD 
HETATM    4  S   UNL     1     -12.835  14.047  71.435  1.00  0.00    -0.374 S  
HETATM    5  O   UNL     1     -11.726  14.789  71.984  1.00  0.00    -0.330 OA 
HETATM    6  O   UNL     1     -13.762  14.634  70.503  1.00  0.00    -0.001 OA 
ENDROOT
BRANCH   4   7
HETATM    7  C   UNL     1     -12.223  12.526  70.747  1.00  0.00    -0.240 A  
HETATM    8  C   UNL     1     -12.584  11.355  71.418  1.00  0.00    -0.439 A  
HETATM    9  C   UNL     1     -12.222  10.113  70.901  1.00  0.00    -0.356 A  
HETATM   10  C   UNL     1     -11.492   9.977  69.726  1.00  0.00    -0.184 A  
HETATM   11  C   UNL     1     -11.140  11.164  69.062  1.00  0.00    -0.299 A  
HETATM   12  N   UNL     1     -11.245   8.741  69.121  1.00  0.00    -0.413 NA 
HETATM   13  H   UNL     1     -11.061   8.676  68.120  1.00  0.00     0.000 HD 
HETATM   14  C   UNL     1     -11.260   7.548  69.960  1.00  0.00    -0.157 C  
HETATM   15  C   UNL     1     -11.475  12.460  69.562  1.00  0.00    -0.309 A  
HETATM   16  N   UNL     1     -12.552   7.455  70.629  1.00  0.00    -0.576 N  
HETATM   17  O   UNL     1     -11.805   8.419  72.812  1.00  0.00    -0.371 OA 
HETATM   18  C   UNL     1     -10.989  13.643  68.755  1.00  0.00    -0.264 C  
HETATM   19  F   UNL     1     -11.362  14.879  69.167  1.00  0.00    -0.243 F  
HETATM   20  F   UNL     1      -9.626  13.677  68.695  1.00  0.00    -0.213 F  
HETATM   21  S   UNL     1     -12.755   8.680  71.754  1.00  0.00    -0.378 S  
HETATM   22  F   UNL     1     -11.400  13.567  67.456  1.00  0.00    -0.279 F  
HETATM   23  O   UNL     1     -14.171   8.784  72.016  1.00  0.00    -0.428 OA 
HETATM   24  H   UNL     1     -13.247   6.733  70.436  1.00  0.00     0.000 HD 
BRANCH  14  25
HETATM   25  C   UNL     1     -11.072   6.265  69.112  1.00  0.00    -0.457 C  
BRANCH  25  26
HETATM   26  C   UNL     1     -10.389   5.143  69.857  1.00  0.00    -0.347 A  
HETATM   27  C   UNL     1      -9.797   4.076  69.166  1.00  0.00    -0.072 A  
HETATM   28  C   UNL     1      -9.275   2.988  69.866  1.00  0.00    -0.225 A  
HETATM   29  C   UNL     1      -9.314   2.972  71.258  1.00  0.00    -0.208 A  
HETATM   30  C   UNL     1      -9.843   4.056  71.954  1.00  0.00    -0.247 A  
HETATM   31  C   UNL     1     -10.375   5.140  71.258  1.00  0.00    -0.276 A  
ENDBRANCH  25  26
ENDBRANCH  14  25
ENDBRANCH   4   7
TORSDOF 3
ENDMDL
MODEL       15
REMARK 921   NORMALIZED FREE ENERGY PREDICTED BY IDOCK:   -6.77 KCAL/MOL
REMARK 922        TOTAL FREE ENERGY PREDICTED BY IDOCK:   -8.09 KCAL/MOL
REMARK 923 INTER-LIGAND FREE ENERGY PREDICTED BY IDOCK:   -8.02 KCAL/MOL
REMARK 924 INTRA-LIGAND FREE ENERGY PREDICTED BY IDOCK:   -0.08 KCAL/MOL
REMARK 927      BINDING AFFINITY PREDICTED BY RF-SCORE:    0.00 PKD
ROOT
HETATM    1  N   UNL     1      -5.671  17.850  66.836  1.00  0.00    -0.138 N  
HETATM    2  H1  UNL     1      -5.591  17.121  66.127  1.00  0.00     0.000 HD 
HETATM    3  H2  UNL     1      -5.014  18.009  67.599  1.00  0.00     0.000 HD 
HETATM    4  S   UNL     1      -7.057  18.746  66.542  1.00  0.00    -0.228 S  
HETATM    5  O   UNL     1      -7.003  19.048  65.132  1.00  0.00    -0.482 OA 
HETATM    6  O   UNL     1      -7.171  19.776  67.542  1.00  0.00    -0.232 OA 
ENDROOT
BRANCH   4   7
HETATM    7  C   UNL     1      -8.333  17.539  66.821  1.00  0.00    -0.251 A  
HETATM    8  C   UNL     1      -7.907  16.275  67.237  1.00  0.00    -0.203 A  
HETATM    9  C   UNL     1      -8.843  15.295  67.562  1.00  0.00    -0.179 A  
HETATM   10  C   UNL     1     -10.213  15.513  67.481  1.00  0.00    -0.254 A  
HETATM   11  C   UNL     1     -10.624  16.791  67.064  1.00  0.00    -0.234 A  
HETATM   12  N   UNL     1     -11.160  14.593  67.938  1.00  0.00    -0.280 NA 
HETATM   13  H   UNL     1     -12.092  14.896  68.222  1.00  0.00     0.000 HD 
HETATM   14  C   UNL     1     -10.779  13.186  67.999  1.00  0.00    -0.233 C  
HETATM   15  C   UNL     1      -9.702  17.822  66.705  1.00  0.00    -0.309 A  
HETATM   16  N   UNL     1      -9.598  13.050  68.843  1.00  0.00    -0.397 N  
HETATM   17  O   UNL     1      -7.935  12.943  66.978  1.00  0.00    -0.131 OA 
HETATM   18  C   UNL     1     -10.300  19.130  66.236  1.00  0.00    -0.474 C  
HETATM   19  F   UNL     1      -9.446  20.148  65.967  1.00  0.00    -0.440 F  
HETATM   20  F   UNL     1     -11.033  18.960  65.098  1.00  0.00    -0.430 F  
HETATM   21  S   UNL     1      -8.250  13.751  68.135  1.00  0.00    -0.169 S  
HETATM   22  F   UNL     1     -11.175  19.639  67.151  1.00  0.00    -0.567 F  
HETATM   23  O   UNL     1      -7.287  13.974  69.188  1.00  0.00    -0.110 OA 
HETATM   24  H   UNL     1      -9.592  12.586  69.752  1.00  0.00     0.000 HD 
BRANCH  14  25
HETATM   25  C   UNL     1     -11.908  12.327  68.623  1.00  0.00    -0.354 C  
BRANCH  25  26
HETATM   26  C   UNL     1     -11.439  10.979  69.118  1.00  0.00    -0.370 A  
HETATM   27  C   UNL     1     -10.829  10.065  68.248  1.00  0.00    -0.286 A  
HETATM   28  C   UNL     1     -10.509   8.781  68.687  1.00  0.00    -0.213 A  
HETATM   29  C   UNL     1     -10.766   8.412  70.006  1.00  0.00    -0.236 A  
HETATM   30  C   UNL     1     -11.312   9.334  70.895  1.00  0.00    -0.373 A  
HETATM   31  C   UNL     1     -11.644  10.615  70.455  1.00  0.00    -0.444 A  
ENDBRANCH  25  26
ENDBRANCH  14  25
ENDBRANCH   4   7
TORSDOF 3
ENDMDL
MODEL       16
REMARK 921   NORMALIZED FREE ENERGY PREDICTED BY IDOCK:   -6.77 KCAL/MOL
REMARK 922        TOTAL FREE ENERGY PREDICTED BY IDOCK:   -8.09 KCAL/MOL
REMARK 923 INTER-LIGAND FREE ENERGY PREDICTED BY IDOCK:   -7.87 KCAL/MOL
REMARK 924 INTRA-LIGAND FREE ENERGY PREDICTED BY IDOCK:   -0.22 KCAL/MOL
REMARK 927      BINDING AFFINITY PREDICTED BY RF-SCORE:    0.00 PKD
ROOT
HETATM    1  N   UNL     1     -11.552  11.523  63.450  1.00  0.00    -0.807 N  
HETATM    2  H1  UNL     1     -12.226  10.804  63.712  1.00  0.00     0.000 HD 
HETATM    3  H2  UNL     1     -10.903  11.470  62.666  1.00  0.00     0.000 HD 
HETATM    4  S   UNL     1     -11.683  12.809  64.519  1.00  0.00    -0.393 S  
HETATM    5  O   UNL     1     -13.100  13.075  64.593  1.00  0.00    -0.723 OA 
HETATM    6  O   UNL     1     -10.732  13.824  64.150  1.00  0.00    -0.289 OA 
ENDROOT
BRANCH   4   7
HETATM    7  C   UNL     1     -11.159  12.064  66.046  1.00  0.00    -0.320 A  
HETATM    8  C   UNL     1     -10.764  10.726  65.977  1.00  0.00    -0.168 A  
HETATM    9  C   UNL     1     -10.257  10.088  67.107  1.00  0.00    -0.228 A  
HETATM   10  C   UNL     1     -10.130  10.729  68.334  1.00  0.00    -0.169 A  
HETATM   11  C   UNL     1     -10.528  12.077  68.384  1.00  0.00    -0.231 A  
HETATM   12  N   UNL     1      -9.492  10.151  69.434  1.00  0.00    -0.216 NA 
HETATM   13  H   UNL     1      -9.077  10.730  70.164  1.00  0.00     0.000 HD 
HETATM   14  C   UNL     1      -9.436   8.695  69.510  1.00  0.00    -0.162 C  
HETATM   15  C   UNL     1     -11.068  12.767  67.256  1.00  0.00    -0.314 A  
HETATM   16  N   UNL     1      -8.783   8.182  68.310  1.00  0.00    -0.133 N  
HETATM   17  O   UNL     1     -10.882   7.577  67.092  1.00  0.00    -0.324 OA 
HETATM   18  C   UNL     1     -11.490  14.202  67.481  1.00  0.00    -0.340 C  
HETATM   19  F   UNL     1     -11.931  14.901  66.406  1.00  0.00    -0.328 F  
HETATM   20  F   UNL     1     -12.490  14.287  68.405  1.00  0.00    -0.295 F  
HETATM   21  S   UNL     1      -9.723   8.429  66.945  1.00  0.00    -0.252 S  
HETATM   22  F   UNL     1     -10.469  14.951  67.991  1.00  0.00    -0.236 F  
HETATM   23  O   UNL     1      -8.845   8.324  65.803  1.00  0.00    -0.162 OA 
HETATM   24  H   UNL     1      -7.869   7.730  68.303  1.00  0.00     0.000 HD 
BRANCH  14  25
HETATM   25  C   UNL     1      -8.607   8.230  70.734  1.00  0.00    -0.147 C  
BRANCH  25  26
HETATM   26  C   UNL     1      -9.359   7.296  71.653  1.00  0.00    -0.160 A  
HETATM   27  C   UNL     1      -9.939   6.118  71.164  1.00  0.00    -0.218 A  
HETATM   28  C   UNL     1     -10.730   5.325  71.995  1.00  0.00    -0.261 A  
HETATM   29  C   UNL     1     -10.922   5.687  73.327  1.00  0.00    -0.316 A  
HETATM   30  C   UNL     1     -10.297   6.822  73.838  1.00  0.00    -0.397 A  
HETATM   31  C   UNL     1      -9.514   7.622  73.007  1.00  0.00    -0.282 A  
ENDBRANCH  25  26
ENDBRANCH  14  25
ENDBRANCH   4   7
TORSDOF 3
ENDMDL
MODEL       17
REMARK 921   NORMALIZED FREE ENERGY PREDICTED BY IDOCK:   -6.73 KCAL/MOL
REMARK 922        TOTAL FREE ENERGY PREDICTED BY IDOCK:   -8.05 KCAL/MOL
REMARK 923 INTER-LIGAND FREE ENERGY PREDICTED BY IDOCK:   -7.82 KCAL/MOL
REMARK 924 INTRA-LIGAND FREE ENERGY PREDICTED BY IDOCK:   -0.23 KCAL/MOL
REMARK 927      BINDING AFFINITY PREDICTED BY RF-SCORE:    0.00 PKD
ROOT
HETATM    1  N   UNL     1     -12.268  14.602  68.047  1.00  0.00    -0.601 N  
HETATM    2  H1  UNL     1     -11.416  14.579  68.607  1.00  0.00     0.000 HD 
HETATM    3  H2  UNL     1     -13.195  14.856  68.389  1.00  0.00     0.000 HD 
HETATM    4  S   UNL     1     -11.900  14.155  66.474  1.00  0.00    -0.432 S  
HETATM    5  O   UNL     1     -10.738  14.942  66.135  1.00  0.00    -0.301 OA 
HETATM    6  O   UNL     1     -13.103  14.187  65.683  1.00  0.00    -0.617 OA 
ENDROOT
BRANCH   4   7
HETATM    7  C   UNL     1     -11.403  12.461  66.686  1.00  0.00    -0.339 A  
HETATM    8  C   UNL     1     -11.469  11.957  67.987  1.00  0.00    -0.389 A  
HETATM    9  C   UNL     1     -11.181  10.615  68.232  1.00  0.00    -0.301 A  
HETATM   10  C   UNL     1     -10.813   9.734  67.223  1.00  0.00    -0.177 A  
HETATM   11  C   UNL     1     -10.757  10.256  65.919  1.00  0.00     0.019 A  
HETATM   12  N   UNL     1     -10.663   8.360  67.428  1.00  0.00    -0.479 NA 
HETATM   13  H   UNL     1     -10.771   7.699  66.658  1.00  0.00     0.000 HD 
HETATM   14  C   UNL     1     -10.347   7.896  68.775  1.00  0.00    -0.203 C  
HETATM   15  C   UNL     1     -11.027  11.628  65.623  1.00  0.00    -0.322 A  
HETATM   16  N   UNL     1     -11.380   8.362  69.692  1.00  0.00    -0.430 N  
HETATM   17  O   UNL     1     -10.107  10.328  70.568  1.00  0.00    -0.035 OA 
HETATM   18  C   UNL     1     -10.883  12.048  64.176  1.00  0.00    -0.352 C  
HETATM   19  F   UNL     1     -11.211  13.324  63.859  1.00  0.00    -0.383 F  
HETATM   20  F   UNL     1      -9.601  11.882  63.737  1.00  0.00    -0.259 F  
HETATM   21  S   UNL     1     -11.338  10.027  69.873  1.00  0.00    -0.231 S  
HETATM   22  F   UNL     1     -11.645  11.273  63.351  1.00  0.00    -0.447 F  
HETATM   23  O   UNL     1     -12.622  10.428  70.399  1.00  0.00    -0.305 OA 
HETATM   24  H   UNL     1     -12.046   7.750  70.165  1.00  0.00     0.000 HD 
BRANCH  14  25
HETATM   25  C   UNL     1     -10.319   6.348  68.841  1.00  0.00    -0.237 C  
BRANCH  25  26
HETATM   26  C   UNL     1      -9.470   5.806  69.967  1.00  0.00    -0.193 A  
HETATM   27  C   UNL     1      -9.763   4.570  70.559  1.00  0.00    -0.290 A  
HETATM   28  C   UNL     1      -9.048   4.136  71.675  1.00  0.00    -0.172 A  
HETATM   29  C   UNL     1      -8.015   4.919  72.187  1.00  0.00    -0.110 A  
HETATM   30  C   UNL     1      -7.675   6.119  71.567  1.00  0.00    -0.101 A  
HETATM   31  C   UNL     1      -8.396   6.560  70.458  1.00  0.00    -0.133 A  
ENDBRANCH  25  26
ENDBRANCH  14  25
ENDBRANCH   4   7
TORSDOF 3
ENDMDL
MODEL       18
REMARK 921   NORMALIZED FREE ENERGY PREDICTED BY IDOCK:   -6.71 KCAL/MOL
REMARK 922        TOTAL FREE ENERGY PREDICTED BY IDOCK:   -8.03 KCAL/MOL
REMARK 923 INTER-LIGAND FREE ENERGY PREDICTED BY IDOCK:   -7.80 KCAL/MOL
REMARK 924 INTRA-LIGAND FREE ENERGY PREDICTED BY IDOCK:   -0.23 KCAL/MOL
REMARK 927      BINDING AFFINITY PREDICTED BY RF-SCORE:    0.00 PKD
ROOT
HETATM    1  N   UNL     1     -12.809   7.719  72.519  1.00  0.00    -0.518 N  
HETATM    2  H1  UNL     1     -13.263   7.659  71.607  1.00  0.00     0.000 HD 
HETATM    3  H2  UNL     1     -13.222   8.120  73.361  1.00  0.00     0.000 HD 
HETATM    4  S   UNL     1     -11.275   7.052  72.410  1.00  0.00    -0.275 S  
HETATM    5  O   UNL     1     -11.474   5.793  71.733  1.00  0.00    -0.236 OA 
HETATM    6  O   UNL     1     -10.635   7.136  73.697  1.00  0.00    -0.372 OA 
ENDROOT
BRANCH   4   7
HETATM    7  C   UNL     1     -10.468   8.179  71.298  1.00  0.00    -0.209 A  
HETATM    8  C   UNL     1     -11.235   9.257  70.847  1.00  0.00    -0.372 A  
HETATM    9  C   UNL     1     -10.658  10.237  70.041  1.00  0.00    -0.269 A  
HETATM   10  C   UNL     1      -9.326  10.190  69.646  1.00  0.00    -0.190 A  
HETATM   11  C   UNL     1      -8.568   9.101  70.111  1.00  0.00    -0.195 A  
HETATM   12  N   UNL     1      -8.697  11.234  68.961  1.00  0.00    -0.369 NA 
HETATM   13  H   UNL     1      -7.686  11.360  69.013  1.00  0.00     0.000 HD 
HETATM   14  C   UNL     1      -9.527  12.137  68.171  1.00  0.00    -0.205 C  
HETATM   15  C   UNL     1      -9.121   8.065  70.925  1.00  0.00    -0.161 A  
HETATM   16  N   UNL     1     -10.537  12.732  69.038  1.00  0.00    -0.431 N  
HETATM   17  O   UNL     1     -12.400  11.195  68.386  1.00  0.00    -0.556 OA 
HETATM   18  C   UNL     1      -8.187   6.939  71.311  1.00  0.00    -0.114 C  
HETATM   19  F   UNL     1      -8.668   5.986  72.147  1.00  0.00    -0.130 F  
HETATM   20  F   UNL     1      -7.742   6.265  70.211  1.00  0.00    -0.088 F  
HETATM   21  S   UNL     1     -11.652  11.594  69.557  1.00  0.00    -0.346 S  
HETATM   22  F   UNL     1      -7.061   7.407  71.922  1.00  0.00    -0.060 F  
HETATM   23  O   UNL     1     -12.305  12.142  70.723  1.00  0.00    -0.376 OA 
HETATM   24  H   UNL     1     -10.563  13.719  69.295  1.00  0.00     0.000 HD 
BRANCH  14  25
HETATM   25  C   UNL     1      -8.682  13.288  67.569  1.00  0.00    -0.202 C  
BRANCH  25  26
HETATM   26  C   UNL     1      -9.447  14.153  66.595  1.00  0.00    -0.303 A  
HETATM   27  C   UNL     1      -9.385  15.552  66.672  1.00  0.00    -0.291 A  
HETATM   28  C   UNL     1     -10.187  16.338  65.846  1.00  0.00    -0.384 A  
HETATM   29  C   UNL     1     -11.034  15.736  64.918  1.00  0.00    -0.443 A  
HETATM   30  C   UNL     1     -11.055  14.348  64.791  1.00  0.00    -0.402 A  
HETATM   31  C   UNL     1     -10.262  13.560  65.623  1.00  0.00    -0.306 A  
ENDBRANCH  25  26
ENDBRANCH  14  25
ENDBRANCH   4   7
TORSDOF 3
ENDMDL
MODEL       19
REMARK 921   NORMALIZED FREE ENERGY PREDICTED BY IDOCK:   -6.68 KCAL/MOL
REMARK 922        TOTAL FREE ENERGY PREDICTED BY IDOCK:   -7.99 KCAL/MOL
REMARK 923 INTER-LIGAND FREE ENERGY PREDICTED BY IDOCK:   -7.79 KCAL/MOL
REMARK 924 INTRA-LIGAND FREE ENERGY PREDICTED BY IDOCK:   -0.20 KCAL/MOL
REMARK 927      BINDING AFFINITY PREDICTED BY RF-SCORE:    0.00 PKD
ROOT
HETATM    1  N   UNL     1     -12.362  14.654  67.874  1.00  0.00    -0.588 N  
HETATM    2  H1  UNL     1     -11.517  14.651  68.444  1.00  0.00     0.000 HD 
HETATM    3  H2  UNL     1     -13.298  14.891  68.202  1.00  0.00     0.000 HD 
HETATM    4  S   UNL     1     -11.966  14.205  66.308  1.00  0.00    -0.433 S  
HETATM    5  O   UNL     1     -10.816  15.012  65.979  1.00  0.00    -0.319 OA 
HETATM    6  O   UNL     1     -13.159  14.209  65.502  1.00  0.00    -0.691 OA 
ENDROOT
BRANCH   4   7
HETATM    7  C   UNL     1     -11.439  12.523  66.536  1.00  0.00    -0.362 A  
HETATM    8  C   UNL     1     -11.524  12.020  67.837  1.00  0.00    -0.396 A  
HETATM    9  C   UNL     1     -11.214  10.685  68.093  1.00  0.00    -0.302 A  
HETATM   10  C   UNL     1     -10.805   9.809  67.094  1.00  0.00    -0.136 A  
HETATM   11  C   UNL     1     -10.728  10.330  65.791  1.00  0.00     0.044 A  
HETATM   12  N   UNL     1     -10.630   8.439  67.307  1.00  0.00    -0.418 NA 
HETATM   13  H   UNL     1     -10.707   7.775  66.537  1.00  0.00     0.000 HD 
HETATM   14  C   UNL     1     -10.336   7.985  68.662  1.00  0.00    -0.200 C  
HETATM   15  C   UNL     1     -11.020  11.695  65.485  1.00  0.00    -0.327 A  
HETATM   16  N   UNL     1     -11.400   8.432  69.554  1.00  0.00    -0.412 N  
HETATM   17  O   UNL     1     -10.188  10.426  70.454  1.00  0.00    -0.061 OA 
HETATM   18  C   UNL     1     -10.851  12.114  64.041  1.00  0.00    -0.383 C  
HETATM   19  F   UNL     1     -11.199  13.382  63.712  1.00  0.00    -0.385 F  
HETATM   20  F   UNL     1      -9.557  11.974  63.632  1.00  0.00    -0.282 F  
HETATM   21  S   UNL     1     -11.397  10.098  69.731  1.00  0.00    -0.240 S  
HETATM   22  F   UNL     1     -11.578  11.322  63.200  1.00  0.00    -0.371 F  
HETATM   23  O   UNL     1     -12.701  10.473  70.226  1.00  0.00    -0.310 OA 
HETATM   24  H   UNL     1     -12.064   7.807  70.013  1.00  0.00     0.000 HD 
BRANCH  14  25
HETATM   25  C   UNL     1     -10.277   6.438  68.733  1.00  0.00    -0.206 C  
BRANCH  25  26
HETATM   26  C   UNL     1      -9.713   5.797  67.487  1.00  0.00    -0.128 A  
HETATM   27  C   UNL     1     -10.555   5.198  66.541  1.00  0.00    -0.320 A  
HETATM   28  C   UNL     1     -10.017   4.507  65.456  1.00  0.00    -0.230 A  
HETATM   29  C   UNL     1      -8.635   4.435  65.292  1.00  0.00    -0.124 A  
HETATM   30  C   UNL     1      -7.791   5.082  66.193  1.00  0.00    -0.099 A  
HETATM   31  C   UNL     1      -8.327   5.765  67.284  1.00  0.00    -0.104 A  
ENDBRANCH  25  26
ENDBRANCH  14  25
ENDBRANCH   4   7
TORSDOF 3
ENDMDL
MODEL       20
REMARK 921   NORMALIZED FREE ENERGY PREDICTED BY IDOCK:   -6.67 KCAL/MOL
REMARK 922        TOTAL FREE ENERGY PREDICTED BY IDOCK:   -7.98 KCAL/MOL
REMARK 923 INTER-LIGAND FREE ENERGY PREDICTED BY IDOCK:   -7.97 KCAL/MOL
REMARK 924 INTRA-LIGAND FREE ENERGY PREDICTED BY IDOCK:   -0.02 KCAL/MOL
REMARK 927      BINDING AFFINITY PREDICTED BY RF-SCORE:    0.00 PKD
ROOT
HETATM    1  N   UNL     1      -9.107   6.844  71.949  1.00  0.00    -0.141 N  
HETATM    2  H1  UNL     1      -8.458   7.525  72.343  1.00  0.00     0.000 HD 
HETATM    3  H2  UNL     1      -8.844   5.970  71.495  1.00  0.00     0.000 HD 
HETATM    4  S   UNL     1     -10.676   7.393  72.168  1.00  0.00    -0.237 S  
HETATM    5  O   UNL     1     -10.730   7.792  73.554  1.00  0.00    -0.292 OA 
HETATM    6  O   UNL     1     -11.592   6.433  71.612  1.00  0.00    -0.288 OA 
ENDROOT
BRANCH   4   7
HETATM    7  C   UNL     1     -10.693   8.852  71.152  1.00  0.00    -0.263 A  
HETATM    8  C   UNL     1      -9.527   9.115  70.428  1.00  0.00    -0.269 A  
HETATM    9  C   UNL     1      -9.483  10.187  69.540  1.00  0.00    -0.214 A  
HETATM   10  C   UNL     1     -10.564  11.037  69.339  1.00  0.00    -0.174 A  
HETATM   11  C   UNL     1     -11.731  10.756  70.072  1.00  0.00    -0.417 A  
HETATM   12  N   UNL     1     -10.585  12.025  68.351  1.00  0.00    -0.210 NA 
HETATM   13  H   UNL     1     -11.467  12.365  67.968  1.00  0.00     0.000 HD 
HETATM   14  C   UNL     1      -9.309  12.556  67.882  1.00  0.00    -0.200 C  
HETATM   15  C   UNL     1     -11.817   9.678  71.006  1.00  0.00    -0.428 A  
HETATM   16  N   UNL     1      -8.493  11.457  67.381  1.00  0.00    -0.139 N  
HETATM   17  O   UNL     1      -7.098  11.187  69.440  1.00  0.00    -0.117 OA 
HETATM   18  C   UNL     1     -13.127   9.531  71.748  1.00  0.00    -0.418 C  
HETATM   19  F   UNL     1     -13.260   8.469  72.580  1.00  0.00    -0.351 F  
HETATM   20  F   UNL     1     -13.388  10.628  72.517  1.00  0.00    -0.449 F  
HETATM   21  S   UNL     1      -8.015  10.430  68.617  1.00  0.00    -0.123 S  
HETATM   22  F   UNL     1     -14.183   9.438  70.889  1.00  0.00    -0.318 F  
HETATM   23  O   UNL     1      -7.629   9.181  68.004  1.00  0.00    -0.084 OA 
HETATM   24  H   UNL     1      -8.243  11.328  66.400  1.00  0.00     0.000 HD 
BRANCH  14  25
HETATM   25  C   UNL     1      -9.515  13.560  66.720  1.00  0.00    -0.272 C  
BRANCH  25  26
HETATM   26  C   UNL     1     -10.483  13.076  65.667  1.00  0.00    -0.291 A  
HETATM   27  C   UNL     1     -10.038  12.317  64.575  1.00  0.00    -0.280 A  
HETATM   28  C   UNL     1     -10.919  11.977  63.549  1.00  0.00    -0.514 A  
HETATM   29  C   UNL     1     -12.255  12.365  63.621  1.00  0.00    -0.653 A  
HETATM   30  C   UNL     1     -12.720  13.064  64.733  1.00  0.00    -0.409 A  
HETATM   31  C   UNL     1     -11.839  13.414  65.755  1.00  0.00    -0.412 A  
ENDBRANCH  25  26
ENDBRANCH  14  25
ENDBRANCH   4   7
TORSDOF 3
ENDMDL
MODEL       21
REMARK 921   NORMALIZED FREE ENERGY PREDICTED BY IDOCK:   -6.67 KCAL/MOL
REMARK 922        TOTAL FREE ENERGY PREDICTED BY IDOCK:   -7.98 KCAL/MOL
REMARK 923 INTER-LIGAND FREE ENERGY PREDICTED BY IDOCK:   -8.91 KCAL/MOL
REMARK 924 INTRA-LIGAND FREE ENERGY PREDICTED BY IDOCK:    0.93 KCAL/MOL
REMARK 927      BINDING AFFINITY PREDICTED BY RF-SCORE:    0.00 PKD
ROOT
HETATM    1  N   UNL     1     -11.324  12.817  63.032  1.00  0.00    -0.672 N  
HETATM    2  H1  UNL     1     -10.942  11.951  63.411  1.00  0.00     0.000 HD 
HETATM    3  H2  UNL     1     -11.243  13.126  62.063  1.00  0.00     0.000 HD 
HETATM    4  S   UNL     1     -12.108  13.651  64.257  1.00  0.00    -0.416 S  
HETATM    5  O   UNL     1     -12.940  12.660  64.895  1.00  0.00    -0.830 OA 
HETATM    6  O   UNL     1     -12.648  14.873  63.721  1.00  0.00    -0.791 OA 
ENDROOT
BRANCH   4   7
HETATM    7  C   UNL     1     -10.759  14.052  65.342  1.00  0.00    -0.337 A  
HETATM    8  C   UNL     1     -10.578  15.407  65.629  1.00  0.00    -0.379 A  
HETATM    9  C   UNL     1      -9.599  15.805  66.538  1.00  0.00    -0.265 A  
HETATM   10  C   UNL     1      -8.766  14.899  67.183  1.00  0.00    -0.219 A  
HETATM   11  C   UNL     1      -8.964  13.539  66.887  1.00  0.00    -0.219 A  
HETATM   12  N   UNL     1      -7.882  15.267  68.201  1.00  0.00    -0.117 NA 
HETATM   13  H   UNL     1      -7.575  14.590  68.900  1.00  0.00     0.000 HD 
HETATM   14  C   UNL     1      -7.409  16.647  68.236  1.00  0.00    -0.179 C  
HETATM   15  C   UNL     1      -9.943  13.086  65.950  1.00  0.00    -0.270 A  
HETATM   16  N   UNL     1      -8.559  17.540  68.315  1.00  0.00    -0.259 N  
HETATM   17  O   UNL     1      -8.632  18.113  65.881  1.00  0.00    -0.507 OA 
HETATM   18  C   UNL     1     -10.006  11.594  65.707  1.00  0.00    -0.237 C  
HETATM   19  F   UNL     1     -10.979  11.134  64.882  1.00  0.00    -0.352 F  
HETATM   20  F   UNL     1      -8.835  11.127  65.183  1.00  0.00    -0.193 F  
HETATM   21  S   UNL     1      -9.461  17.511  66.902  1.00  0.00    -0.285 S  
HETATM   22  F   UNL     1     -10.176  10.902  66.871  1.00  0.00    -0.226 F  
HETATM   23  O   UNL     1     -10.768  18.035  67.224  1.00  0.00    -0.372 OA 
HETATM   24  H   UNL     1      -8.787  18.112  69.129  1.00  0.00     0.000 HD 
BRANCH  14  25
HETATM   25  C   UNL     1      -6.524  16.903  69.482  1.00  0.00    -0.223 C  
BRANCH  25  26
HETATM   26  C   UNL     1      -5.991  18.314  69.564  1.00  0.00    -0.252 A  
HETATM   27  C   UNL     1      -5.779  18.932  70.804  1.00  0.00    -0.121 A  
HETATM   28  C   UNL     1      -5.400  20.273  70.866  1.00  0.00    -0.313 A  
HETATM   29  C   UNL     1      -5.202  20.996  69.692  1.00  0.00    -0.395 A  
HETATM   30  C   UNL     1      -5.349  20.373  68.455  1.00  0.00    -0.273 A  
HETATM   31  C   UNL     1      -5.737  19.035  68.390  1.00  0.00    -0.210 A  
ENDBRANCH  25  26
ENDBRANCH  14  25
ENDBRANCH   4   7
TORSDOF 3
ENDMDL
MODEL       22
REMARK 921   NORMALIZED FREE ENERGY PREDICTED BY IDOCK:   -6.65 KCAL/MOL
REMARK 922        TOTAL FREE ENERGY PREDICTED BY IDOCK:   -7.96 KCAL/MOL
REMARK 923 INTER-LIGAND FREE ENERGY PREDICTED BY IDOCK:   -7.94 KCAL/MOL
REMARK 924 INTRA-LIGAND FREE ENERGY PREDICTED BY IDOCK:   -0.01 KCAL/MOL
REMARK 927      BINDING AFFINITY PREDICTED BY RF-SCORE:    0.00 PKD
ROOT
HETATM    1  N   UNL     1     -13.828   9.110  72.984  1.00  0.00    -0.877 N  
HETATM    2  H1  UNL     1     -14.652   9.520  72.545  1.00  0.00     0.000 HD 
HETATM    3  H2  UNL     1     -13.665   9.038  73.988  1.00  0.00     0.000 HD 
HETATM    4  S   UNL     1     -12.782   8.574  71.788  1.00  0.00    -0.364 S  
HETATM    5  O   UNL     1     -13.621   7.827  70.881  1.00  0.00    -0.016 OA 
HETATM    6  O   UNL     1     -11.619   7.995  72.407  1.00  0.00    -0.339 OA 
ENDROOT
BRANCH   4   7
HETATM    7  C   UNL     1     -12.312  10.100  71.008  1.00  0.00    -0.373 A  
HETATM    8  C   UNL     1     -12.844  11.267  71.562  1.00  0.00    -0.519 A  
HETATM    9  C   UNL     1     -12.461  12.513  71.068  1.00  0.00    -0.258 A  
HETATM   10  C   UNL     1     -11.561  12.657  70.020  1.00  0.00    -0.123 A  
HETATM   11  C   UNL     1     -11.032  11.473  69.477  1.00  0.00    -0.186 A  
HETATM   12  N   UNL     1     -11.058  13.895  69.611  1.00  0.00    -0.443 NA 
HETATM   13  H   UNL     1     -10.159  13.965  69.134  1.00  0.00     0.000 HD 
HETATM   14  C   UNL     1     -11.856  15.086  69.885  1.00  0.00    -0.324 C  
HETATM   15  C   UNL     1     -11.407  10.174  69.938  1.00  0.00    -0.335 A  
HETATM   16  N   UNL     1     -12.105  15.170  71.319  1.00  0.00    -0.312 N  
HETATM   17  O   UNL     1     -14.411  14.204  71.256  1.00  0.00    -0.193 OA 
HETATM   18  C   UNL     1     -10.782   8.996  69.224  1.00  0.00    -0.174 C  
HETATM   19  F   UNL     1     -11.062   7.757  69.696  1.00  0.00    -0.240 F  
HETATM   20  F   UNL     1     -11.135   8.971  67.906  1.00  0.00    -0.222 F  
HETATM   21  S   UNL     1     -13.116  13.940  71.843  1.00  0.00    -0.400 S  
HETATM   22  F   UNL     1      -9.419   9.074  69.226  1.00  0.00    -0.150 F  
HETATM   23  O   UNL     1     -12.940  13.827  73.272  1.00  0.00    -0.372 OA 
HETATM   24  H   UNL     1     -11.713  15.888  71.929  1.00  0.00     0.000 HD 
BRANCH  14  25
HETATM   25  C   UNL     1     -11.104  16.372  69.459  1.00  0.00    -0.293 C  
BRANCH  25  26
HETATM   26  C   UNL     1      -9.845  16.103  68.669  1.00  0.00    -0.226 A  
HETATM   27  C   UNL     1      -9.842  16.186  67.269  1.00  0.00    -0.241 A  
HETATM   28  C   UNL     1      -8.708  15.820  66.545  1.00  0.00    -0.354 A  
HETATM   29  C   UNL     1      -7.561  15.398  67.214  1.00  0.00    -0.246 A  
HETATM   30  C   UNL     1      -7.534  15.373  68.606  1.00  0.00    -0.130 A  
HETATM   31  C   UNL     1      -8.670  15.728  69.332  1.00  0.00    -0.230 A  
ENDBRANCH  25  26
ENDBRANCH  14  25
ENDBRANCH   4   7
TORSDOF 3
ENDMDL
MODEL       23
REMARK 921   NORMALIZED FREE ENERGY PREDICTED BY IDOCK:   -6.64 KCAL/MOL
REMARK 922        TOTAL FREE ENERGY PREDICTED BY IDOCK:   -7.95 KCAL/MOL
REMARK 923 INTER-LIGAND FREE ENERGY PREDICTED BY IDOCK:   -7.73 KCAL/MOL
REMARK 924 INTRA-LIGAND FREE ENERGY PREDICTED BY IDOCK:   -0.22 KCAL/MOL
REMARK 927      BINDING AFFINITY PREDICTED BY RF-SCORE:    0.00 PKD
ROOT
HETATM    1  N   UNL     1     -12.339  14.311  68.725  1.00  0.00    -0.573 N  
HETATM    2  H1  UNL     1     -11.605  14.249  69.430  1.00  0.00     0.000 HD 
HETATM    3  H2  UNL     1     -13.305  14.590  68.898  1.00  0.00     0.000 HD 
HETATM    4  S   UNL     1     -11.702  13.883  67.234  1.00  0.00    -0.407 S  
HETATM    5  O   UNL     1     -10.475  14.637  67.134  1.00  0.00    -0.263 OA 
HETATM    6  O   UNL     1     -12.738  13.971  66.239  1.00  0.00    -0.414 OA 
ENDROOT
BRANCH   4   7
HETATM    7  C   UNL     1     -11.303  12.170  67.491  1.00  0.00    -0.326 A  
HETATM    8  C   UNL     1     -11.607  11.647  68.750  1.00  0.00    -0.374 A  
HETATM    9  C   UNL     1     -11.408  10.292  69.011  1.00  0.00    -0.180 A  
HETATM   10  C   UNL     1     -10.900   9.415  68.060  1.00  0.00    -0.139 A  
HETATM   11  C   UNL     1     -10.603   9.957  66.798  1.00  0.00    -0.214 A  
HETATM   12  N   UNL     1     -10.830   8.033  68.258  1.00  0.00    -0.436 NA 
HETATM   13  H   UNL     1     -10.825   7.390  67.466  1.00  0.00     0.000 HD 
HETATM   14  C   UNL     1     -10.765   7.536  69.628  1.00  0.00    -0.230 C  
HETATM   15  C   UNL     1     -10.775  11.341  66.490  1.00  0.00    -0.323 A  
HETATM   16  N   UNL     1     -11.926   8.023  70.364  1.00  0.00    -0.468 N  
HETATM   17  O   UNL     1     -10.761   9.928  71.490  1.00  0.00    -0.099 OA 
HETATM   18  C   UNL     1     -10.371  11.780  65.099  1.00  0.00    -0.279 C  
HETATM   19  F   UNL     1     -10.599  13.072  64.759  1.00  0.00    -0.295 F  
HETATM   20  F   UNL     1      -9.039  11.577  64.883  1.00  0.00    -0.177 F  
HETATM   21  S   UNL     1     -11.864   9.683  70.587  1.00  0.00    -0.228 S  
HETATM   22  F   UNL     1     -11.004  11.047  64.138  1.00  0.00    -0.434 F  
HETATM   23  O   UNL     1     -13.206  10.119  70.894  1.00  0.00    -0.395 OA 
HETATM   24  H   UNL     1     -12.683   7.427  70.702  1.00  0.00     0.000 HD 
BRANCH  14  25
HETATM   25  C   UNL     1     -10.798   5.987  69.663  1.00  0.00    -0.439 C  
BRANCH  25  26
HETATM   26  C   UNL     1      -9.913   5.389  70.731  1.00  0.00    -0.269 A  
HETATM   27  C   UNL     1      -9.901   4.007  70.965  1.00  0.00    -0.230 A  
HETATM   28  C   UNL     1      -9.172   3.479  72.030  1.00  0.00    -0.171 A  
HETATM   29  C   UNL     1      -8.426   4.324  72.850  1.00  0.00    -0.101 A  
HETATM   30  C   UNL     1      -8.381   5.691  72.587  1.00  0.00    -0.117 A  
HETATM   31  C   UNL     1      -9.118   6.222  71.529  1.00  0.00    -0.145 A  
ENDBRANCH  25  26
ENDBRANCH  14  25
ENDBRANCH   4   7
TORSDOF 3
ENDMDL
MODEL       24
REMARK 921   NORMALIZED FREE ENERGY PREDICTED BY IDOCK:   -6.58 KCAL/MOL
REMARK 922        TOTAL FREE ENERGY PREDICTED BY IDOCK:   -7.87 KCAL/MOL
REMARK 923 INTER-LIGAND FREE ENERGY PREDICTED BY IDOCK:   -7.78 KCAL/MOL
REMARK 924 INTRA-LIGAND FREE ENERGY PREDICTED BY IDOCK:   -0.09 KCAL/MOL
REMARK 927      BINDING AFFINITY PREDICTED BY RF-SCORE:    0.00 PKD
ROOT
HETATM    1  N   UNL     1     -13.386  11.222  72.294  1.00  0.00    -0.538 N  
HETATM    2  H1  UNL     1     -14.083  11.733  71.754  1.00  0.00     0.000 HD 
HETATM    3  H2  UNL     1     -13.180  11.365  73.283  1.00  0.00     0.000 HD 
HETATM    4  S   UNL     1     -12.630  10.108  71.295  1.00  0.00    -0.440 S  
HETATM    5  O   UNL     1     -13.712   9.440  70.613  1.00  0.00     0.040 OA 
HETATM    6  O   UNL     1     -11.645   9.386  72.058  1.00  0.00    -0.342 OA 
ENDROOT
BRANCH   4   7
HETATM    7  C   UNL     1     -11.792  11.168  70.141  1.00  0.00    -0.365 A  
HETATM    8  C   UNL     1     -11.980  12.542  70.314  1.00  0.00    -0.364 A  
HETATM    9  C   UNL     1     -11.292  13.448  69.509  1.00  0.00    -0.183 A  
HETATM   10  C   UNL     1     -10.414  13.045  68.511  1.00  0.00    -0.249 A  
HETATM   11  C   UNL     1     -10.233  11.660  68.352  1.00  0.00    -0.211 A  
HETATM   12  N   UNL     1      -9.611  13.937  67.795  1.00  0.00    -0.216 NA 
HETATM   13  H   UNL     1      -8.739  13.629  67.365  1.00  0.00     0.000 HD 
HETATM   14  C   UNL     1     -10.056  15.322  67.680  1.00  0.00    -0.235 C  
HETATM   15  C   UNL     1     -10.928  10.693  69.142  1.00  0.00    -0.296 A  
HETATM   16  N   UNL     1     -10.236  15.875  69.017  1.00  0.00    -0.214 N  
HETATM   17  O   UNL     1     -12.716  15.571  69.110  1.00  0.00     0.120 OA 
HETATM   18  C   UNL     1     -10.658   9.239  68.823  1.00  0.00    -0.193 C  
HETATM   19  F   UNL     1     -11.245   8.305  69.612  1.00  0.00    -0.202 F  
HETATM   20  F   UNL     1     -11.040   8.931  67.550  1.00  0.00    -0.278 F  
HETATM   21  S   UNL     1     -11.523  15.156  69.813  1.00  0.00    -0.321 S  
HETATM   22  F   UNL     1      -9.324   8.954  68.874  1.00  0.00    -0.139 F  
HETATM   23  O   UNL     1     -11.345  15.415  71.223  1.00  0.00    -0.343 OA 
HETATM   24  H   UNL     1      -9.651  16.609  69.418  1.00  0.00     0.000 HD 
BRANCH  14  25
HETATM   25  C   UNL     1      -9.001  16.189  66.947  1.00  0.00    -0.248 C  
BRANCH  25  26
HETATM   26  C   UNL     1      -9.294  17.669  66.998  1.00  0.00    -0.258 A  
HETATM   27  C   UNL     1     -10.289  18.235  66.189  1.00  0.00    -0.414 A  
HETATM   28  C   UNL     1     -10.469  19.618  66.158  1.00  0.00    -0.624 A  
HETATM   29  C   UNL     1      -9.679  20.441  66.957  1.00  0.00    -0.588 A  
HETATM   30  C   UNL     1      -8.731  19.883  67.812  1.00  0.00    -0.377 A  
HETATM   31  C   UNL     1      -8.541  18.502  67.836  1.00  0.00    -0.304 A  
ENDBRANCH  25  26
ENDBRANCH  14  25
ENDBRANCH   4   7
TORSDOF 3
ENDMDL
MODEL       25
REMARK 921   NORMALIZED FREE ENERGY PREDICTED BY IDOCK:   -6.57 KCAL/MOL
REMARK 922        TOTAL FREE ENERGY PREDICTED BY IDOCK:   -7.86 KCAL/MOL
REMARK 923 INTER-LIGAND FREE ENERGY PREDICTED BY IDOCK:   -7.65 KCAL/MOL
REMARK 924 INTRA-LIGAND FREE ENERGY PREDICTED BY IDOCK:   -0.21 KCAL/MOL
REMARK 927      BINDING AFFINITY PREDICTED BY RF-SCORE:    0.00 PKD
ROOT
HETATM    1  N   UNL     1     -10.782  18.948  66.491  1.00  0.00    -0.358 N  
HETATM    2  H1  UNL     1     -11.452  18.850  67.255  1.00  0.00     0.000 HD 
HETATM    3  H2  UNL     1     -11.020  19.067  65.507  1.00  0.00     0.000 HD 
HETATM    4  S   UNL     1      -9.228  18.883  67.116  1.00  0.00    -0.296 S  
HETATM    5  O   UNL     1      -9.249  19.789  68.238  1.00  0.00    -0.340 OA 
HETATM    6  O   UNL     1      -8.283  19.020  66.038  1.00  0.00    -0.431 OA 
ENDROOT
BRANCH   4   7
HETATM    7  C   UNL     1      -9.154  17.215  67.727  1.00  0.00    -0.233 A  
HETATM    8  C   UNL     1     -10.303  16.440  67.547  1.00  0.00    -0.288 A  
HETATM    9  C   UNL     1     -10.305  15.096  67.918  1.00  0.00    -0.241 A  
HETATM   10  C   UNL     1      -9.196  14.475  68.481  1.00  0.00    -0.195 A  
HETATM   11  C   UNL     1      -8.048  15.268  68.651  1.00  0.00    -0.156 A  
HETATM   12  N   UNL     1      -9.134  13.100  68.723  1.00  0.00    -0.390 NA 
HETATM   13  H   UNL     1      -8.237  12.615  68.768  1.00  0.00     0.000 HD 
HETATM   14  C   UNL     1     -10.387  12.377  68.911  1.00  0.00    -0.049 C  
HETATM   15  C   UNL     1      -8.005  16.653  68.302  1.00  0.00    -0.192 A  
HETATM   16  N   UNL     1     -11.229  12.574  67.737  1.00  0.00    -0.252 N  
HETATM   17  O   UNL     1     -12.657  14.377  68.719  1.00  0.00    -0.004 OA 
HETATM   18  C   UNL     1      -6.710  17.381  68.585  1.00  0.00    -0.201 C  
HETATM   19  F   UNL     1      -6.619  18.674  68.189  1.00  0.00    -0.206 F  
HETATM   20  F   UNL     1      -6.426  17.389  69.920  1.00  0.00    -0.239 F  
HETATM   21  S   UNL     1     -11.752  14.161  67.612  1.00  0.00    -0.401 S  
HETATM   22  F   UNL     1      -5.646  16.759  67.999  1.00  0.00    -0.105 F  
HETATM   23  O   UNL     1     -12.167  14.363  66.244  1.00  0.00    -0.412 OA 
HETATM   24  H   UNL     1     -11.470  11.837  67.074  1.00  0.00     0.000 HD 
BRANCH  14  25
HETATM   25  C   UNL     1     -10.137  10.855  69.065  1.00  0.00    -0.212 C  
BRANCH  25  26
HETATM   26  C   UNL     1     -10.966  10.214  70.152  1.00  0.00    -0.376 A  
HETATM   27  C   UNL     1     -10.750   8.881  70.531  1.00  0.00    -0.271 A  
HETATM   28  C   UNL     1     -11.598   8.264  71.450  1.00  0.00    -0.322 A  
HETATM   29  C   UNL     1     -12.648   8.982  72.020  1.00  0.00    -0.464 A  
HETATM   30  C   UNL     1     -12.831  10.325  71.698  1.00  0.00    -0.568 A  
HETATM   31  C   UNL     1     -11.991  10.941  70.771  1.00  0.00    -0.449 A  
ENDBRANCH  25  26
ENDBRANCH  14  25
ENDBRANCH   4   7
TORSDOF 3
ENDMDL
MODEL       26
REMARK 921   NORMALIZED FREE ENERGY PREDICTED BY IDOCK:   -6.53 KCAL/MOL
REMARK 922        TOTAL FREE ENERGY PREDICTED BY IDOCK:   -7.81 KCAL/MOL
REMARK 923 INTER-LIGAND FREE ENERGY PREDICTED BY IDOCK:   -7.64 KCAL/MOL
REMARK 924 INTRA-LIGAND FREE ENERGY PREDICTED BY IDOCK:   -0.17 KCAL/MOL
REMARK 927      BINDING AFFINITY PREDICTED BY RF-SCORE:    0.00 PKD
ROOT
HETATM    1  N   UNL     1     -13.361  14.096  72.775  1.00  0.00    -0.533 N  
HETATM    2  H1  UNL     1     -12.507  13.789  73.241  1.00  0.00     0.000 HD 
HETATM    3  H2  UNL     1     -14.307  13.985  73.139  1.00  0.00     0.000 HD 
HETATM    4  S   UNL     1     -12.958  14.814  71.315  1.00  0.00    -0.373 S  
HETATM    5  O   UNL     1     -11.890  15.728  71.643  1.00  0.00    -0.376 OA 
HETATM    6  O   UNL     1     -14.162  15.248  70.657  1.00  0.00    -0.115 OA 
ENDROOT
BRANCH   4   7
HETATM    7  C   UNL     1     -12.279  13.441  70.412  1.00  0.00    -0.345 A  
HETATM    8  C   UNL     1     -12.299  12.204  71.062  1.00  0.00    -0.331 A  
HETATM    9  C   UNL     1     -11.867  11.058  70.397  1.00  0.00    -0.367 A  
HETATM   10  C   UNL     1     -11.397  11.086  69.089  1.00  0.00    -0.280 A  
HETATM   11  C   UNL     1     -11.387  12.337  68.449  1.00  0.00    -0.340 A  
HETATM   12  N   UNL     1     -11.098   9.930  68.363  1.00  0.00    -0.461 NA 
HETATM   13  H   UNL     1     -11.126   9.930  67.343  1.00  0.00     0.000 HD 
HETATM   14  C   UNL     1     -10.744   8.724  69.103  1.00  0.00    -0.131 C  
HETATM   15  C   UNL     1     -11.804  13.540  69.096  1.00  0.00    -0.386 A  
HETATM   16  N   UNL     1     -11.830   8.393  70.018  1.00  0.00    -0.287 N  
HETATM   17  O   UNL     1     -10.788   9.395  72.058  1.00  0.00    -0.225 OA 
HETATM   18  C   UNL     1     -11.695  14.815  68.288  1.00  0.00    -0.311 C  
HETATM   19  F   UNL     1     -12.159  15.956  68.853  1.00  0.00    -0.382 F  
HETATM   20  F   UNL     1     -10.400  15.078  67.949  1.00  0.00    -0.233 F  
HETATM   21  S   UNL     1     -11.973   9.529  71.242  1.00  0.00    -0.390 S  
HETATM   22  F   UNL     1     -12.361  14.715  67.101  1.00  0.00    -0.392 F  
HETATM   23  O   UNL     1     -13.298   9.385  71.799  1.00  0.00    -0.367 OA 
HETATM   24  H   UNL     1     -12.428   7.571  69.925  1.00  0.00     0.000 HD 
BRANCH  14  25
HETATM   25  C   UNL     1     -10.546   7.519  68.148  1.00  0.00    -0.201 C  
BRANCH  25  26
HETATM   26  C   UNL     1      -9.356   7.666  67.229  1.00  0.00    -0.174 A  
HETATM   27  C   UNL     1      -8.076   7.273  67.640  1.00  0.00    -0.114 A  
HETATM   28  C   UNL     1      -6.968   7.523  66.830  1.00  0.00    -0.079 A  
HETATM   29  C   UNL     1      -7.135   8.139  65.592  1.00  0.00    -0.067 A  
HETATM   30  C   UNL     1      -8.412   8.476  65.147  1.00  0.00    -0.193 A  
HETATM   31  C   UNL     1      -9.519   8.237  65.959  1.00  0.00    -0.189 A  
ENDBRANCH  25  26
ENDBRANCH  14  25
ENDBRANCH   4   7
TORSDOF 3
ENDMDL
MODEL       27
REMARK 921   NORMALIZED FREE ENERGY PREDICTED BY IDOCK:   -6.47 KCAL/MOL
REMARK 922        TOTAL FREE ENERGY PREDICTED BY IDOCK:   -7.75 KCAL/MOL
REMARK 923 INTER-LIGAND FREE ENERGY PREDICTED BY IDOCK:   -7.49 KCAL/MOL
REMARK 924 INTRA-LIGAND FREE ENERGY PREDICTED BY IDOCK:   -0.26 KCAL/MOL
REMARK 927      BINDING AFFINITY PREDICTED BY RF-SCORE:    0.00 PKD
ROOT
HETATM    1  N   UNL     1      -9.696   6.055  71.697  1.00  0.00    -0.159 N  
HETATM    2  H1  UNL     1      -8.805   6.543  71.607  1.00  0.00     0.000 HD 
HETATM    3  H2  UNL     1      -9.846   5.060  71.533  1.00  0.00     0.000 HD 
HETATM    4  S   UNL     1     -10.876   7.154  72.160  1.00  0.00    -0.232 S  
HETATM    5  O   UNL     1     -10.284   7.881  73.257  1.00  0.00    -0.324 OA 
HETATM    6  O   UNL     1     -12.134   6.465  72.288  1.00  0.00    -0.292 OA 
ENDROOT
BRANCH   4   7
HETATM    7  C   UNL     1     -10.952   8.221  70.740  1.00  0.00    -0.243 A  
HETATM    8  C   UNL     1     -10.097   7.903  69.682  1.00  0.00    -0.197 A  
HETATM    9  C   UNL     1     -10.151   8.633  68.496  1.00  0.00    -0.190 A  
HETATM   10  C   UNL     1     -11.030   9.695  68.311  1.00  0.00    -0.121 A  
HETATM   11  C   UNL     1     -11.886   9.998  69.384  1.00  0.00     0.064 A  
HETATM   12  N   UNL     1     -11.197  10.341  67.083  1.00  0.00    -0.256 NA 
HETATM   13  H   UNL     1     -12.066  10.827  66.861  1.00  0.00     0.000 HD 
HETATM   14  C   UNL     1     -10.094  10.301  66.129  1.00  0.00    -0.242 C  
HETATM   15  C   UNL     1     -11.854   9.289  70.624  1.00  0.00    -0.246 A  
HETATM   16  N   UNL     1      -9.762   8.910  65.846  1.00  0.00    -0.423 N  
HETATM   17  O   UNL     1      -7.810   8.770  67.404  1.00  0.00    -0.096 OA 
HETATM   18  C   UNL     1     -12.809   9.762  71.697  1.00  0.00    -0.421 C  
HETATM   19  F   UNL     1     -12.853   9.054  72.853  1.00  0.00    -0.442 F  
HETATM   20  F   UNL     1     -12.541  11.047  72.069  1.00  0.00    -0.427 F  
HETATM   21  S   UNL     1      -9.098   8.150  67.184  1.00  0.00    -0.144 S  
HETATM   22  F   UNL     1     -14.098   9.782  71.249  1.00  0.00    -0.267 F  
HETATM   23  O   UNL     1      -9.228   6.728  66.971  1.00  0.00    -0.129 OA 
HETATM   24  H   UNL     1      -9.914   8.455  64.945  1.00  0.00     0.000 HD 
BRANCH  14  25
HETATM   25  C   UNL     1     -10.489  10.975  64.791  1.00  0.00    -0.384 C  
BRANCH  25  26
HETATM   26  C   UNL     1     -10.809  12.445  64.926  1.00  0.00    -0.333 A  
HETATM   27  C   UNL     1     -11.963  12.988  64.343  1.00  0.00    -0.457 A  
HETATM   28  C   UNL     1     -12.186  14.364  64.373  1.00  0.00    -0.481 A  
HETATM   29  C   UNL     1     -11.275  15.204  65.010  1.00  0.00    -0.414 A  
HETATM   30  C   UNL     1     -10.158  14.667  65.647  1.00  0.00    -0.389 A  
HETATM   31  C   UNL     1      -9.927  13.293  65.609  1.00  0.00    -0.242 A  
ENDBRANCH  25  26
ENDBRANCH  14  25
ENDBRANCH   4   7
TORSDOF 3
ENDMDL
MODEL       28
REMARK 921   NORMALIZED FREE ENERGY PREDICTED BY IDOCK:   -6.43 KCAL/MOL
REMARK 922        TOTAL FREE ENERGY PREDICTED BY IDOCK:   -7.70 KCAL/MOL
REMARK 923 INTER-LIGAND FREE ENERGY PREDICTED BY IDOCK:   -7.50 KCAL/MOL
REMARK 924 INTRA-LIGAND FREE ENERGY PREDICTED BY IDOCK:   -0.20 KCAL/MOL
REMARK 927      BINDING AFFINITY PREDICTED BY RF-SCORE:    0.00 PKD
ROOT
HETATM    1  N   UNL     1     -10.994  11.178  63.312  1.00  0.00    -0.794 N  
HETATM    2  H1  UNL     1     -11.697  10.457  63.476  1.00  0.00     0.000 HD 
HETATM    3  H2  UNL     1     -10.230  11.119  62.639  1.00  0.00     0.000 HD 
HETATM    4  S   UNL     1     -11.296  12.476  64.329  1.00  0.00    -0.392 S  
HETATM    5  O   UNL     1     -12.708  12.734  64.179  1.00  0.00    -0.658 OA 
HETATM    6  O   UNL     1     -10.304  13.494  64.099  1.00  0.00    -0.340 OA 
ENDROOT
BRANCH   4   7
HETATM    7  C   UNL     1     -11.012  11.756  65.929  1.00  0.00    -0.304 A  
HETATM    8  C   UNL     1     -10.625  10.413  65.943  1.00  0.00    -0.114 A  
HETATM    9  C   UNL     1     -10.298   9.792  67.147  1.00  0.00    -0.248 A  
HETATM   10  C   UNL     1     -10.348  10.455  68.367  1.00  0.00    -0.174 A  
HETATM   11  C   UNL     1     -10.735  11.806  68.335  1.00  0.00    -0.249 A  
HETATM   12  N   UNL     1      -9.887   9.891  69.560  1.00  0.00    -0.210 NA 
HETATM   13  H   UNL     1      -9.579  10.481  70.334  1.00  0.00     0.000 HD 
HETATM   14  C   UNL     1      -9.857   8.437  69.667  1.00  0.00    -0.184 C  
HETATM   15  C   UNL     1     -11.095  12.480  67.128  1.00  0.00    -0.321 A  
HETATM   16  N   UNL     1      -9.039   7.898  68.587  1.00  0.00    -0.137 N  
HETATM   17  O   UNL     1     -10.939   7.286  67.080  1.00  0.00    -0.327 OA 
HETATM   18  C   UNL     1     -11.531  13.922  67.263  1.00  0.00    -0.344 C  
HETATM   19  F   UNL     1     -11.801  14.604  66.123  1.00  0.00    -0.362 F  
HETATM   20  F   UNL     1     -12.657  14.031  68.027  1.00  0.00    -0.241 F  
HETATM   21  S   UNL     1      -9.763   8.127  67.093  1.00  0.00    -0.221 S  
HETATM   22  F   UNL     1     -10.590  14.672  67.907  1.00  0.00    -0.236 F  
HETATM   23  O   UNL     1      -8.726   7.994  66.096  1.00  0.00    -0.138 OA 
HETATM   24  H   UNL     1      -8.138   7.438  68.724  1.00  0.00     0.000 HD 
BRANCH  14  25
HETATM   25  C   UNL     1      -9.224   7.988  71.009  1.00  0.00    -0.169 C  
BRANCH  25  26
HETATM   26  C   UNL     1      -9.784   6.688  71.536  1.00  0.00    -0.172 A  
HETATM   27  C   UNL     1     -10.962   6.665  72.295  1.00  0.00    -0.278 A  
HETATM   28  C   UNL     1     -11.403   5.477  72.875  1.00  0.00    -0.348 A  
HETATM   29  C   UNL     1     -10.689   4.297  72.676  1.00  0.00    -0.172 A  
HETATM   30  C   UNL     1      -9.552   4.297  71.871  1.00  0.00    -0.212 A  
HETATM   31  C   UNL     1      -9.102   5.487  71.299  1.00  0.00    -0.158 A  
ENDBRANCH  25  26
ENDBRANCH  14  25
ENDBRANCH   4   7
TORSDOF 3
ENDMDL
MODEL       29
REMARK 921   NORMALIZED FREE ENERGY PREDICTED BY IDOCK:   -6.40 KCAL/MOL
REMARK 922        TOTAL FREE ENERGY PREDICTED BY IDOCK:   -7.66 KCAL/MOL
REMARK 923 INTER-LIGAND FREE ENERGY PREDICTED BY IDOCK:   -7.46 KCAL/MOL
REMARK 924 INTRA-LIGAND FREE ENERGY PREDICTED BY IDOCK:   -0.20 KCAL/MOL
REMARK 927      BINDING AFFINITY PREDICTED BY RF-SCORE:    0.00 PKD
ROOT
HETATM    1  N   UNL     1     -10.720  17.412  65.414  1.00  0.00    -0.178 N  
HETATM    2  H1  UNL     1     -11.544  17.059  65.902  1.00  0.00     0.000 HD 
HETATM    3  H2  UNL     1     -10.706  17.771  64.460  1.00  0.00     0.000 HD 
HETATM    4  S   UNL     1      -9.394  17.305  66.434  1.00  0.00    -0.238 S  
HETATM    5  O   UNL     1      -9.848  17.872  67.681  1.00  0.00    -0.286 OA 
HETATM    6  O   UNL     1      -8.232  17.802  65.745  1.00  0.00    -0.538 OA 
ENDROOT
BRANCH   4   7
HETATM    7  C   UNL     1      -9.230  15.546  66.630  1.00  0.00    -0.271 A  
HETATM    8  C   UNL     1     -10.162  14.758  65.950  1.00  0.00    -0.331 A  
HETATM    9  C   UNL     1     -10.056  13.369  65.977  1.00  0.00    -0.304 A  
HETATM   10  C   UNL     1      -9.050  12.710  66.673  1.00  0.00    -0.193 A  
HETATM   11  C   UNL     1      -8.118  13.517  67.349  1.00  0.00    -0.184 A  
HETATM   12  N   UNL     1      -8.846  11.330  66.592  1.00  0.00    -0.169 NA 
HETATM   13  H   UNL     1      -7.928  10.924  66.778  1.00  0.00     0.000 HD 
HETATM   14  C   UNL     1      -9.981  10.485  66.235  1.00  0.00    -0.221 C  
HETATM   15  C   UNL     1      -8.196  14.943  67.363  1.00  0.00    -0.217 A  
HETATM   16  N   UNL     1     -10.510  10.922  64.949  1.00  0.00    -0.305 N  
HETATM   17  O   UNL     1     -12.399  12.276  65.873  1.00  0.00    -0.618 OA 
HETATM   18  C   UNL     1      -7.144  15.670  68.171  1.00  0.00    -0.118 C  
HETATM   19  F   UNL     1      -7.150  17.025  68.134  1.00  0.00    -0.159 F  
HETATM   20  F   UNL     1      -7.219  15.342  69.494  1.00  0.00    -0.152 F  
HETATM   21  S   UNL     1     -11.217  12.438  65.056  1.00  0.00    -0.323 S  
HETATM   22  F   UNL     1      -5.883  15.314  67.788  1.00  0.00    -0.128 F  
HETATM   23  O   UNL     1     -11.290  12.966  63.713  1.00  0.00    -0.414 OA 
HETATM   24  H   UNL     1     -10.457  10.374  64.090  1.00  0.00     0.000 HD 
BRANCH  14  25
HETATM   25  C   UNL     1      -9.552   9.003  66.092  1.00  0.00    -0.341 C  
BRANCH  25  26
HETATM   26  C   UNL     1     -10.015   8.127  67.232  1.00  0.00    -0.283 A  
HETATM   27  C   UNL     1     -10.466   6.821  66.999  1.00  0.00    -0.369 A  
HETATM   28  C   UNL     1     -11.001   6.065  68.041  1.00  0.00    -0.340 A  
HETATM   29  C   UNL     1     -11.062   6.596  69.328  1.00  0.00    -0.345 A  
HETATM   30  C   UNL     1     -10.558   7.870  69.581  1.00  0.00    -0.234 A  
HETATM   31  C   UNL     1     -10.032   8.632  68.539  1.00  0.00    -0.201 A  
ENDBRANCH  25  26
ENDBRANCH  14  25
ENDBRANCH   4   7
TORSDOF 3
ENDMDL
MODEL       30
REMARK 921   NORMALIZED FREE ENERGY PREDICTED BY IDOCK:   -6.39 KCAL/MOL
REMARK 922        TOTAL FREE ENERGY PREDICTED BY IDOCK:   -7.65 KCAL/MOL
REMARK 923 INTER-LIGAND FREE ENERGY PREDICTED BY IDOCK:   -7.68 KCAL/MOL
REMARK 924 INTRA-LIGAND FREE ENERGY PREDICTED BY IDOCK:    0.02 KCAL/MOL
REMARK 927      BINDING AFFINITY PREDICTED BY RF-SCORE:    0.00 PKD
ROOT
HETATM    1  N   UNL     1     -10.088   9.858  64.329  1.00  0.00    -0.403 N  
HETATM    2  H1  UNL     1      -9.559  10.648  63.959  1.00  0.00     0.000 HD 
HETATM    3  H2  UNL     1     -10.903   9.432  63.889  1.00  0.00     0.000 HD 
HETATM    4  S   UNL     1      -9.401   9.373  65.779  1.00  0.00    -0.255 S  
HETATM    5  O   UNL     1      -7.988   9.287  65.501  1.00  0.00    -0.100 OA 
HETATM    6  O   UNL     1     -10.147   8.258  66.302  1.00  0.00    -0.215 OA 
ENDROOT
BRANCH   4   7
HETATM    7  C   UNL     1      -9.696  10.790  66.812  1.00  0.00    -0.187 A  
HETATM    8  C   UNL     1     -10.452  11.820  66.245  1.00  0.00    -0.281 A  
HETATM    9  C   UNL     1     -10.805  12.930  67.011  1.00  0.00    -0.260 A  
HETATM   10  C   UNL     1     -10.425  13.072  68.340  1.00  0.00    -0.252 A  
HETATM   11  C   UNL     1      -9.669  12.025  68.895  1.00  0.00     0.071 A  
HETATM   12  N   UNL     1     -10.890  14.104  69.159  1.00  0.00    -0.306 NA 
HETATM   13  H   UNL     1     -10.923  13.995  70.173  1.00  0.00     0.000 HD 
HETATM   14  C   UNL     1     -11.328  15.343  68.524  1.00  0.00    -0.335 C  
HETATM   15  C   UNL     1      -9.270  10.876  68.145  1.00  0.00    -0.158 A  
HETATM   16  N   UNL     1     -12.385  15.037  67.567  1.00  0.00    -0.283 N  
HETATM   17  O   UNL     1     -10.930  15.050  65.533  1.00  0.00    -0.328 OA 
HETATM   18  C   UNL     1      -8.423   9.856  68.872  1.00  0.00    -0.127 C  
HETATM   19  F   UNL     1      -8.099   8.721  68.205  1.00  0.00    -0.102 F  
HETATM   20  F   UNL     1      -7.234  10.393  69.273  1.00  0.00    -0.063 F  
HETATM   21  S   UNL     1     -11.803  14.159  66.264  1.00  0.00    -0.425 S  
HETATM   22  F   UNL     1      -9.025   9.429  70.019  1.00  0.00    -0.148 F  
HETATM   23  O   UNL     1     -12.940  13.529  65.636  1.00  0.00    -0.496 OA 
HETATM   24  H   UNL     1     -13.359  15.323  67.677  1.00  0.00     0.000 HD 
BRANCH  14  25
HETATM   25  C   UNL     1     -11.905  16.333  69.567  1.00  0.00    -0.009 C  
BRANCH  25  26
HETATM   26  C   UNL     1     -12.314  15.674  70.864  1.00  0.00    -0.479 A  
HETATM   27  C   UNL     1     -13.321  14.699  70.890  1.00  0.00    -0.350 A  
HETATM   28  C   UNL     1     -13.771  14.185  72.106  1.00  0.00    -0.587 A  
HETATM   29  C   UNL     1     -13.198  14.617  73.300  1.00  0.00    -0.411 A  
HETATM   30  C   UNL     1     -12.153  15.537  73.279  1.00  0.00    -0.600 A  
HETATM   31  C   UNL     1     -11.708  16.061  72.066  1.00  0.00    -0.588 A  
ENDBRANCH  25  26
ENDBRANCH  14  25
ENDBRANCH   4   7
TORSDOF 3
ENDMDL
MODEL       31
REMARK 921   NORMALIZED FREE ENERGY PREDICTED BY IDOCK:   -6.31 KCAL/MOL
REMARK 922        TOTAL FREE ENERGY PREDICTED BY IDOCK:   -7.56 KCAL/MOL
REMARK 923 INTER-LIGAND FREE ENERGY PREDICTED BY IDOCK:   -7.39 KCAL/MOL
REMARK 924 INTRA-LIGAND FREE ENERGY PREDICTED BY IDOCK:   -0.16 KCAL/MOL
REMARK 927      BINDING AFFINITY PREDICTED BY RF-SCORE:    0.00 PKD
ROOT
HETATM    1  N   UNL     1     -10.523   7.126  66.616  1.00  0.00    -0.502 N  
HETATM    2  H1  UNL     1      -9.725   7.632  66.232  1.00  0.00     0.000 HD 
HETATM    3  H2  UNL     1     -11.273   6.700  66.070  1.00  0.00     0.000 HD 
HETATM    4  S   UNL     1     -10.405   7.105  68.288  1.00  0.00    -0.200 S  
HETATM    5  O   UNL     1      -9.044   6.704  68.550  1.00  0.00    -0.130 OA 
HETATM    6  O   UNL     1     -11.531   6.391  68.829  1.00  0.00    -0.283 OA 
ENDROOT
BRANCH   4   7
HETATM    7  C   UNL     1     -10.580   8.830  68.683  1.00  0.00    -0.139 A  
HETATM    8  C   UNL     1     -10.661   9.707  67.599  1.00  0.00    -0.334 A  
HETATM    9  C   UNL     1     -10.885  11.066  67.815  1.00  0.00    -0.249 A  
HETATM   10  C   UNL     1     -11.028  11.607  69.087  1.00  0.00    -0.219 A  
HETATM   11  C   UNL     1     -10.948  10.710  70.166  1.00  0.00    -0.292 A  
HETATM   12  N   UNL     1     -11.396  12.936  69.313  1.00  0.00    -0.360 NA 
HETATM   13  H   UNL     1     -11.854  13.213  70.181  1.00  0.00     0.000 HD 
HETATM   14  C   UNL     1     -11.107  13.917  68.272  1.00  0.00    -0.258 C  
HETATM   15  C   UNL     1     -10.703   9.313  69.994  1.00  0.00    -0.259 A  
HETATM   16  N   UNL     1     -11.745  13.494  67.032  1.00  0.00    -0.361 N  
HETATM   17  O   UNL     1      -9.704  12.482  66.001  1.00  0.00    -0.256 OA 
HETATM   18  C   UNL     1     -10.603   8.484  71.256  1.00  0.00    -0.234 C  
HETATM   19  F   UNL     1     -10.450   7.145  71.116  1.00  0.00    -0.209 F  
HETATM   20  F   UNL     1      -9.557   8.889  72.035  1.00  0.00    -0.334 F  
HETATM   21  S   UNL     1     -11.037  12.106  66.415  1.00  0.00    -0.330 S  
HETATM   22  F   UNL     1     -11.709   8.631  72.042  1.00  0.00    -0.340 F  
HETATM   23  O   UNL     1     -11.982  11.523  65.491  1.00  0.00    -0.125 OA 
HETATM   24  H   UNL     1     -12.526  13.982  66.593  1.00  0.00     0.000 HD 
BRANCH  14  25
HETATM   25  C   UNL     1     -11.673  15.311  68.645  1.00  0.00    -0.367 C  
BRANCH  25  26
HETATM   26  C   UNL     1     -10.668  16.429  68.500  1.00  0.00    -0.320 A  
HETATM   27  C   UNL     1     -11.021  17.639  67.886  1.00  0.00    -0.115 A  
HETATM   28  C   UNL     1     -10.055  18.617  67.651  1.00  0.00    -0.404 A  
HETATM   29  C   UNL     1      -8.738  18.407  68.054  1.00  0.00    -0.302 A  
HETATM   30  C   UNL     1      -8.392  17.234  68.722  1.00  0.00    -0.228 A  
HETATM   31  C   UNL     1      -9.353  16.250  68.948  1.00  0.00    -0.248 A  
ENDBRANCH  25  26
ENDBRANCH  14  25
ENDBRANCH   4   7
TORSDOF 3
ENDMDL
MODEL       32
REMARK 921   NORMALIZED FREE ENERGY PREDICTED BY IDOCK:   -6.22 KCAL/MOL
REMARK 922        TOTAL FREE ENERGY PREDICTED BY IDOCK:   -7.45 KCAL/MOL
REMARK 923 INTER-LIGAND FREE ENERGY PREDICTED BY IDOCK:   -7.46 KCAL/MOL
REMARK 924 INTRA-LIGAND FREE ENERGY PREDICTED BY IDOCK:    0.02 KCAL/MOL
REMARK 927      BINDING AFFINITY PREDICTED BY RF-SCORE:    0.00 PKD
ROOT
HETATM    1  N   UNL     1     -10.083   6.767  68.514  1.00  0.00    -0.156 N  
HETATM    2  H1  UNL     1     -11.093   6.817  68.643  1.00  0.00     0.000 HD 
HETATM    3  H2  UNL     1      -9.416   6.407  69.197  1.00  0.00     0.000 HD 
HETATM    4  S   UNL     1      -9.694   7.373  67.000  1.00  0.00    -0.208 S  
HETATM    5  O   UNL     1     -10.615   6.721  66.101  1.00  0.00     0.265 OA 
HETATM    6  O   UNL     1      -8.268   7.303  66.819  1.00  0.00    -0.116 OA 
ENDROOT
BRANCH   4   7
HETATM    7  C   UNL     1     -10.164   9.080  67.163  1.00  0.00    -0.265 A  
HETATM    8  C   UNL     1     -10.770   9.442  68.369  1.00  0.00    -0.213 A  
HETATM    9  C   UNL     1     -11.092  10.775  68.616  1.00  0.00    -0.259 A  
HETATM   10  C   UNL     1     -10.843  11.787  67.697  1.00  0.00    -0.217 A  
HETATM   11  C   UNL     1     -10.230  11.407  66.491  1.00  0.00    -0.259 A  
HETATM   12  N   UNL     1     -11.027  13.142  67.987  1.00  0.00    -0.239 NA 
HETATM   13  H   UNL     1     -10.507  13.861  67.484  1.00  0.00     0.000 HD 
HETATM   14  C   UNL     1     -11.983  13.500  69.030  1.00  0.00    -0.335 C  
HETATM   15  C   UNL     1      -9.896  10.051  66.187  1.00  0.00    -0.309 A  
HETATM   16  N   UNL     1     -11.600  12.838  70.271  1.00  0.00    -0.535 N  
HETATM   17  O   UNL     1     -13.218  10.940  70.082  1.00  0.00    -0.014 OA 
HETATM   18  C   UNL     1      -9.278   9.796  64.830  1.00  0.00    -0.261 C  
HETATM   19  F   UNL     1      -8.882   8.530  64.550  1.00  0.00    -0.156 F  
HETATM   20  F   UNL     1     -10.133  10.139  63.823  1.00  0.00    -0.337 F  
HETATM   21  S   UNL     1     -11.794  11.176  70.169  1.00  0.00    -0.386 S  
HETATM   22  F   UNL     1      -8.168  10.564  64.631  1.00  0.00    -0.163 F  
HETATM   23  O   UNL     1     -10.991  10.591  71.218  1.00  0.00     0.290 OA 
HETATM   24  H   UNL     1     -11.257  13.325  71.099  1.00  0.00     0.000 HD 
BRANCH  14  25
HETATM   25  C   UNL     1     -11.982  15.028  69.288  1.00  0.00    -0.322 C  
BRANCH  25  26
HETATM   26  C   UNL     1     -12.533  15.411  70.641  1.00  0.00    -0.478 A  
HETATM   27  C   UNL     1     -11.723  16.042  71.596  1.00  0.00    -0.583 A  
HETATM   28  C   UNL     1     -12.207  16.283  72.881  1.00  0.00    -0.610 A  
HETATM   29  C   UNL     1     -13.512  15.925  73.213  1.00  0.00    -0.599 A  
HETATM   30  C   UNL     1     -14.345  15.356  72.252  1.00  0.00    -0.576 A  
HETATM   31  C   UNL     1     -13.860  15.103  70.970  1.00  0.00    -0.423 A  
ENDBRANCH  25  26
ENDBRANCH  14  25
ENDBRANCH   4   7
TORSDOF 3
ENDMDL
MODEL       33
REMARK 921   NORMALIZED FREE ENERGY PREDICTED BY IDOCK:   -6.19 KCAL/MOL
REMARK 922        TOTAL FREE ENERGY PREDICTED BY IDOCK:   -7.41 KCAL/MOL
REMARK 923 INTER-LIGAND FREE ENERGY PREDICTED BY IDOCK:   -7.20 KCAL/MOL
REMARK 924 INTRA-LIGAND FREE ENERGY PREDICTED BY IDOCK:   -0.21 KCAL/MOL
REMARK 927      BINDING AFFINITY PREDICTED BY RF-SCORE:    0.00 PKD
ROOT
HETATM    1  N   UNL     1      -8.513   6.046  68.705  1.00  0.00    -0.112 N  
HETATM    2  H1  UNL     1      -7.767   6.739  68.772  1.00  0.00     0.000 HD 
HETATM    3  H2  UNL     1      -8.595   5.331  67.983  1.00  0.00     0.000 HD 
HETATM    4  S   UNL     1      -9.584   6.274  69.975  1.00  0.00    -0.158 S  
HETATM    5  O   UNL     1      -8.744   6.388  71.143  1.00  0.00    -0.133 OA 
HETATM    6  O   UNL     1     -10.637   5.298  69.882  1.00  0.00    -0.306 OA 
ENDROOT
BRANCH   4   7
HETATM    7  C   UNL     1     -10.258   7.876  69.597  1.00  0.00    -0.207 A  
HETATM    8  C   UNL     1      -9.788   8.483  68.429  1.00  0.00    -0.189 A  
HETATM    9  C   UNL     1     -10.324   9.699  68.010  1.00  0.00    -0.218 A  
HETATM   10  C   UNL     1     -11.321  10.360  68.717  1.00  0.00    -0.214 A  
HETATM   11  C   UNL     1     -11.785   9.733  69.887  1.00  0.00    -0.073 A  
HETATM   12  N   UNL     1     -11.968  11.502  68.237  1.00  0.00    -0.590 NA 
HETATM   13  H   UNL     1     -12.908  11.744  68.552  1.00  0.00     0.000 HD 
HETATM   14  C   UNL     1     -11.262  12.338  67.272  1.00  0.00    -0.300 C  
HETATM   15  C   UNL     1     -11.254   8.496  70.364  1.00  0.00    -0.224 A  
HETATM   16  N   UNL     1     -10.899  11.526  66.117  1.00  0.00    -0.282 N  
HETATM   17  O   UNL     1      -8.528  11.116  66.801  1.00  0.00    -0.141 OA 
HETATM   18  C   UNL     1     -11.828   7.970  71.661  1.00  0.00    -0.289 C  
HETATM   19  F   UNL     1     -11.397   6.759  72.092  1.00  0.00    -0.256 F  
HETATM   20  F   UNL     1     -11.589   8.829  72.695  1.00  0.00    -0.409 F  
HETATM   21  S   UNL     1      -9.739  10.381  66.508  1.00  0.00    -0.202 S  
HETATM   22  F   UNL     1     -13.187   7.857  71.599  1.00  0.00    -0.318 F  
HETATM   23  O   UNL     1      -9.780   9.368  65.479  1.00  0.00    -0.284 OA 
HETATM   24  H   UNL     1     -11.301  11.640  65.186  1.00  0.00     0.000 HD 
BRANCH  14  25
HETATM   25  C   UNL     1     -12.162  13.496  66.772  1.00  0.00    -0.392 C  
BRANCH  25  26
HETATM   26  C   UNL     1     -11.434  14.813  66.637  1.00  0.00    -0.339 A  
HETATM   27  C   UNL     1     -11.119  15.580  67.768  1.00  0.00    -0.315 A  
HETATM   28  C   UNL     1     -10.554  16.847  67.624  1.00  0.00    -0.325 A  
HETATM   29  C   UNL     1     -10.271  17.343  66.353  1.00  0.00    -0.339 A  
HETATM   30  C   UNL     1     -10.522  16.561  65.227  1.00  0.00    -0.236 A  
HETATM   31  C   UNL     1     -11.097  15.299  65.368  1.00  0.00    -0.351 A  
ENDBRANCH  25  26
ENDBRANCH  14  25
ENDBRANCH   4   7
TORSDOF 3
ENDMDL
MODEL       34
REMARK 921   NORMALIZED FREE ENERGY PREDICTED BY IDOCK:   -6.18 KCAL/MOL
REMARK 922        TOTAL FREE ENERGY PREDICTED BY IDOCK:   -7.40 KCAL/MOL
REMARK 923 INTER-LIGAND FREE ENERGY PREDICTED BY IDOCK:   -7.19 KCAL/MOL
REMARK 924 INTRA-LIGAND FREE ENERGY PREDICTED BY IDOCK:   -0.22 KCAL/MOL
REMARK 927      BINDING AFFINITY PREDICTED BY RF-SCORE:    0.00 PKD
ROOT
HETATM    1  N   UNL     1      -9.387   8.779  65.239  1.00  0.00    -0.445 N  
HETATM    2  H1  UNL     1      -9.165   9.404  64.464  1.00  0.00     0.000 HD 
HETATM    3  H2  UNL     1     -10.178   8.136  65.275  1.00  0.00     0.000 HD 
HETATM    4  S   UNL     1      -8.241   8.978  66.447  1.00  0.00    -0.112 S  
HETATM    5  O   UNL     1      -6.974   8.926  65.757  1.00  0.00    -0.078 OA 
HETATM    6  O   UNL     1      -8.554   8.097  67.541  1.00  0.00    -0.128 OA 
ENDROOT
BRANCH   4   7
HETATM    7  C   UNL     1      -8.545  10.653  66.960  1.00  0.00    -0.128 A  
HETATM    8  C   UNL     1      -9.573  11.326  66.295  1.00  0.00    -0.235 A  
HETATM    9  C   UNL     1      -9.938  12.612  66.692  1.00  0.00    -0.242 A  
HETATM   10  C   UNL     1      -9.307  13.279  67.735  1.00  0.00    -0.209 A  
HETATM   11  C   UNL     1      -8.278  12.586  68.396  1.00  0.00    -0.136 A  
HETATM   12  N   UNL     1      -9.754  14.504  68.237  1.00  0.00    -0.212 NA 
HETATM   13  H   UNL     1      -9.545  14.787  69.194  1.00  0.00     0.000 HD 
HETATM   14  C   UNL     1     -10.529  15.369  67.352  1.00  0.00    -0.277 C  
HETATM   15  C   UNL     1      -7.859  11.274  68.014  1.00  0.00    -0.115 A  
HETATM   16  N   UNL     1     -11.700  14.639  66.882  1.00  0.00    -0.372 N  
HETATM   17  O   UNL     1     -10.749  13.993  64.660  1.00  0.00    -0.407 OA 
HETATM   18  C   UNL     1      -6.709  10.678  68.796  1.00  0.00    -0.055 C  
HETATM   19  F   UNL     1      -6.347   9.405  68.505  1.00  0.00    -0.050 F  
HETATM   20  F   UNL     1      -5.573  11.421  68.651  1.00  0.00    -0.044 F  
HETATM   21  S   UNL     1     -11.273  13.380  65.860  1.00  0.00    -0.304 S  
HETATM   22  F   UNL     1      -6.963  10.673  70.137  1.00  0.00    -0.142 F  
HETATM   23  O   UNL     1     -12.393  12.470  65.820  1.00  0.00    -0.627 OA 
HETATM   24  H   UNL     1     -12.660  14.865  67.142  1.00  0.00     0.000 HD 
BRANCH  14  25
HETATM   25  C   UNL     1     -11.027  16.631  68.100  1.00  0.00    -0.327 C  
BRANCH  25  26
HETATM   26  C   UNL     1     -10.229  17.874  67.786  1.00  0.00    -0.372 A  
HETATM   27  C   UNL     1      -8.946  18.060  68.319  1.00  0.00    -0.288 A  
HETATM   28  C   UNL     1      -8.267  19.262  68.119  1.00  0.00    -0.354 A  
HETATM   29  C   UNL     1      -8.852  20.274  67.360  1.00  0.00    -0.442 A  
HETATM   30  C   UNL     1     -10.099  20.074  66.773  1.00  0.00    -0.607 A  
HETATM   31  C   UNL     1     -10.784  18.877  66.981  1.00  0.00    -0.477 A  
ENDBRANCH  25  26
ENDBRANCH  14  25
ENDBRANCH   4   7
TORSDOF 3
ENDMDL
MODEL       35
REMARK 921   NORMALIZED FREE ENERGY PREDICTED BY IDOCK:   -6.15 KCAL/MOL
REMARK 922        TOTAL FREE ENERGY PREDICTED BY IDOCK:   -7.37 KCAL/MOL
REMARK 923 INTER-LIGAND FREE ENERGY PREDICTED BY IDOCK:   -7.57 KCAL/MOL
REMARK 924 INTRA-LIGAND FREE ENERGY PREDICTED BY IDOCK:    0.20 KCAL/MOL
REMARK 927      BINDING AFFINITY PREDICTED BY RF-SCORE:    0.00 PKD
ROOT
HETATM    1  N   UNL     1     -11.749  14.170  71.056  1.00  0.00    -0.512 N  
HETATM    2  H1  UNL     1     -10.887  13.866  71.509  1.00  0.00     0.000 HD 
HETATM    3  H2  UNL     1     -12.622  14.394  71.534  1.00  0.00     0.000 HD 
HETATM    4  S   UNL     1     -11.501  14.241  69.400  1.00  0.00    -0.307 S  
HETATM    5  O   UNL     1     -10.260  14.963  69.250  1.00  0.00    -0.229 OA 
HETATM    6  O   UNL     1     -12.718  14.670  68.761  1.00  0.00     0.203 OA 
ENDROOT
BRANCH   4   7
HETATM    7  C   UNL     1     -11.221  12.532  69.002  1.00  0.00    -0.268 A  
HETATM    8  C   UNL     1     -11.326  11.625  70.061  1.00  0.00    -0.176 A  
HETATM    9  C   UNL     1     -11.208  10.257  69.824  1.00  0.00    -0.282 A  
HETATM   10  C   UNL     1     -10.974   9.735  68.557  1.00  0.00    -0.149 A  
HETATM   11  C   UNL     1     -10.875  10.660  67.503  1.00  0.00    -0.351 A  
HETATM   12  N   UNL     1     -10.997   8.366  68.281  1.00  0.00    -0.439 NA 
HETATM   13  H   UNL     1     -11.203   8.023  67.342  1.00  0.00     0.000 HD 
HETATM   14  C   UNL     1     -10.718   7.439  69.373  1.00  0.00    -0.211 C  
HETATM   15  C   UNL     1     -10.973  12.072  67.700  1.00  0.00    -0.287 A  
HETATM   16  N   UNL     1     -11.667   7.680  70.453  1.00  0.00    -0.476 N  
HETATM   17  O   UNL     1     -10.137   9.072  71.859  1.00  0.00    -0.339 OA 
HETATM   18  C   UNL     1     -10.803  12.939  66.472  1.00  0.00    -0.271 C  
HETATM   19  F   UNL     1     -10.971  14.276  66.621  1.00  0.00    -0.293 F  
HETATM   20  F   UNL     1      -9.561  12.788  65.926  1.00  0.00    -0.250 F  
HETATM   21  S   UNL     1     -11.409   9.168  71.179  1.00  0.00    -0.352 S  
HETATM   22  F   UNL     1     -11.673  12.584  65.483  1.00  0.00    -0.367 F  
HETATM   23  O   UNL     1     -12.621   9.510  71.886  1.00  0.00    -0.364 OA 
HETATM   24  H   UNL     1     -12.397   7.024  70.733  1.00  0.00     0.000 HD 
BRANCH  14  25
HETATM   25  C   UNL     1     -10.887   5.968  68.914  1.00  0.00    -0.400 C  
BRANCH  25  26
HETATM   26  C   UNL     1     -10.235   4.968  69.840  1.00  0.00    -0.340 A  
HETATM   27  C   UNL     1      -9.485   3.898  69.331  1.00  0.00    -0.260 A  
HETATM   28  C   UNL     1      -8.989   2.916  70.187  1.00  0.00    -0.170 A  
HETATM   29  C   UNL     1      -9.211   3.012  71.560  1.00  0.00    -0.185 A  
HETATM   30  C   UNL     1      -9.899   4.105  72.081  1.00  0.00    -0.235 A  
HETATM   31  C   UNL     1     -10.406   5.082  71.225  1.00  0.00    -0.255 A  
ENDBRANCH  25  26
ENDBRANCH  14  25
ENDBRANCH   4   7
TORSDOF 3
ENDMDL
MODEL       36
REMARK 921   NORMALIZED FREE ENERGY PREDICTED BY IDOCK:   -6.03 KCAL/MOL
REMARK 922        TOTAL FREE ENERGY PREDICTED BY IDOCK:   -7.22 KCAL/MOL
REMARK 923 INTER-LIGAND FREE ENERGY PREDICTED BY IDOCK:   -7.33 KCAL/MOL
REMARK 924 INTRA-LIGAND FREE ENERGY PREDICTED BY IDOCK:    0.10 KCAL/MOL
REMARK 927      BINDING AFFINITY PREDICTED BY RF-SCORE:    0.00 PKD
ROOT
HETATM    1  N   UNL     1      -9.684  14.289  67.680  1.00  0.00    -0.217 N  
HETATM    2  H1  UNL     1     -10.196  13.749  66.983  1.00  0.00     0.000 HD 
HETATM    3  H2  UNL     1      -8.672  14.418  67.703  1.00  0.00     0.000 HD 
HETATM    4  S   UNL     1     -10.772  14.934  68.780  1.00  0.00    -0.262 S  
HETATM    5  O   UNL     1     -11.809  15.519  67.965  1.00  0.00    -0.277 OA 
HETATM    6  O   UNL     1     -10.049  15.697  69.763  1.00  0.00    -0.271 OA 
ENDROOT
BRANCH   4   7
HETATM    7  C   UNL     1     -11.413  13.468  69.556  1.00  0.00    -0.255 A  
HETATM    8  C   UNL     1     -10.870  12.254  69.126  1.00  0.00    -0.149 A  
HETATM    9  C   UNL     1     -11.250  11.062  69.740  1.00  0.00    -0.268 A  
HETATM   10  C   UNL     1     -12.173  11.017  70.778  1.00  0.00    -0.380 A  
HETATM   11  C   UNL     1     -12.706  12.247  71.200  1.00  0.00    -0.340 A  
HETATM   12  N   UNL     1     -12.456   9.853  71.497  1.00  0.00    -0.382 NA 
HETATM   13  H   UNL     1     -12.816   9.900  72.450  1.00  0.00     0.000 HD 
HETATM   14  C   UNL     1     -12.222   8.568  70.846  1.00  0.00    -0.094 C  
HETATM   15  C   UNL     1     -12.359  13.492  70.590  1.00  0.00    -0.432 A  
HETATM   16  N   UNL     1     -10.826   8.495  70.431  1.00  0.00    -0.232 N  
HETATM   17  O   UNL     1     -11.216   9.113  68.039  1.00  0.00     0.058 OA 
HETATM   18  C   UNL     1     -13.050  14.725  71.130  1.00  0.00    -0.382 C  
HETATM   19  F   UNL     1     -12.678  15.925  70.621  1.00  0.00    -0.453 F  
HETATM   20  F   UNL     1     -14.401  14.657  70.947  1.00  0.00    -0.343 F  
HETATM   21  S   UNL     1     -10.491   9.580  69.199  1.00  0.00    -0.214 S  
HETATM   22  F   UNL     1     -12.879  14.847  72.478  1.00  0.00    -0.340 F  
HETATM   23  O   UNL     1      -9.059   9.763  69.174  1.00  0.00    -0.146 OA 
HETATM   24  H   UNL     1     -10.138   7.861  70.839  1.00  0.00     0.000 HD 
BRANCH  14  25
HETATM   25  C   UNL     1     -12.489   7.392  71.819  1.00  0.00    -0.367 C  
BRANCH  25  26
HETATM   26  C   UNL     1     -11.230   6.781  72.387  1.00  0.00    -0.300 A  
HETATM   27  C   UNL     1     -10.785   5.521  71.961  1.00  0.00    -0.293 A  
HETATM   28  C   UNL     1      -9.690   4.916  72.578  1.00  0.00    -0.189 A  
HETATM   29  C   UNL     1      -9.014   5.576  73.602  1.00  0.00    -0.124 A  
HETATM   30  C   UNL     1      -9.410   6.855  73.988  1.00  0.00    -0.257 A  
HETATM   31  C   UNL     1     -10.511   7.457  73.381  1.00  0.00    -0.419 A  
ENDBRANCH  25  26
ENDBRANCH  14  25
ENDBRANCH   4   7
TORSDOF 3
ENDMDL
MODEL       37
REMARK 921   NORMALIZED FREE ENERGY PREDICTED BY IDOCK:   -6.01 KCAL/MOL
REMARK 922        TOTAL FREE ENERGY PREDICTED BY IDOCK:   -7.21 KCAL/MOL
REMARK 923 INTER-LIGAND FREE ENERGY PREDICTED BY IDOCK:   -7.07 KCAL/MOL
REMARK 924 INTRA-LIGAND FREE ENERGY PREDICTED BY IDOCK:   -0.14 KCAL/MOL
REMARK 927      BINDING AFFINITY PREDICTED BY RF-SCORE:    0.00 PKD
ROOT
HETATM    1  N   UNL     1      -8.508   6.602  65.278  1.00  0.00    -0.277 N  
HETATM    2  H1  UNL     1      -7.764   7.291  65.387  1.00  0.00     0.000 HD 
HETATM    3  H2  UNL     1      -8.837   6.221  64.390  1.00  0.00     0.000 HD 
HETATM    4  S   UNL     1      -9.105   6.197  66.791  1.00  0.00    -0.137 S  
HETATM    5  O   UNL     1      -7.929   5.936  67.586  1.00  0.00    -0.101 OA 
HETATM    6  O   UNL     1     -10.155   5.224  66.636  1.00  0.00    -0.179 OA 
ENDROOT
BRANCH   4   7
HETATM    7  C   UNL     1      -9.825   7.734  67.319  1.00  0.00    -0.189 A  
HETATM    8  C   UNL     1      -9.739   8.798  66.417  1.00  0.00    -0.335 A  
HETATM    9  C   UNL     1     -10.352  10.015  66.712  1.00  0.00    -0.217 A  
HETATM   10  C   UNL     1     -11.054  10.232  67.891  1.00  0.00    -0.276 A  
HETATM   11  C   UNL     1     -11.135   9.149  68.785  1.00  0.00     0.100 A  
HETATM   12  N   UNL     1     -11.793  11.392  68.136  1.00  0.00    -0.589 NA 
HETATM   13  H   UNL     1     -12.576  11.387  68.790  1.00  0.00     0.000 HD 
HETATM   14  C   UNL     1     -11.413  12.612  67.431  1.00  0.00    -0.337 C  
HETATM   15  C   UNL     1     -10.509   7.890  68.533  1.00  0.00    -0.202 A  
HETATM   16  N   UNL     1     -11.458  12.363  65.995  1.00  0.00    -0.363 N  
HETATM   17  O   UNL     1      -9.003  11.980  65.704  1.00  0.00    -0.015 OA 
HETATM   18  C   UNL     1     -10.651   6.838  69.611  1.00  0.00    -0.233 C  
HETATM   19  F   UNL     1     -10.134   5.610  69.360  1.00  0.00    -0.200 F  
HETATM   20  F   UNL     1     -10.073   7.243  70.779  1.00  0.00    -0.189 F  
HETATM   21  S   UNL     1     -10.261  11.291  65.518  1.00  0.00    -0.271 S  
HETATM   22  F   UNL     1     -11.960   6.610  69.921  1.00  0.00    -0.415 F  
HETATM   23  O   UNL     1     -10.653  10.765  64.231  1.00  0.00    -0.350 OA 
HETATM   24  H   UNL     1     -12.133  12.788  65.360  1.00  0.00     0.000 HD 
BRANCH  14  25
HETATM   25  C   UNL     1     -12.397  13.767  67.742  1.00  0.00    -0.031 C  
BRANCH  25  26
HETATM   26  C   UNL     1     -12.154  14.425  69.080  1.00  0.00    -0.316 A  
HETATM   27  C   UNL     1     -11.413  15.611  69.176  1.00  0.00    -0.365 A  
HETATM   28  C   UNL     1     -11.094  16.143  70.424  1.00  0.00    -0.362 A  
HETATM   29  C   UNL     1     -11.538  15.512  71.585  1.00  0.00    -0.502 A  
HETATM   30  C   UNL     1     -12.329  14.369  71.498  1.00  0.00    -0.427 A  
HETATM   31  C   UNL     1     -12.640  13.828  70.251  1.00  0.00    -0.288 A  
ENDBRANCH  25  26
ENDBRANCH  14  25
ENDBRANCH   4   7
TORSDOF 3
ENDMDL
MODEL       38
REMARK 921   NORMALIZED FREE ENERGY PREDICTED BY IDOCK:   -6.01 KCAL/MOL
REMARK 922        TOTAL FREE ENERGY PREDICTED BY IDOCK:   -7.20 KCAL/MOL
REMARK 923 INTER-LIGAND FREE ENERGY PREDICTED BY IDOCK:   -7.23 KCAL/MOL
REMARK 924 INTRA-LIGAND FREE ENERGY PREDICTED BY IDOCK:    0.03 KCAL/MOL
REMARK 927      BINDING AFFINITY PREDICTED BY RF-SCORE:    0.00 PKD
ROOT
HETATM    1  N   UNL     1      -8.471   6.108  69.378  1.00  0.00    -0.119 N  
HETATM    2  H1  UNL     1      -7.715   6.629  69.821  1.00  0.00     0.000 HD 
HETATM    3  H2  UNL     1      -8.399   5.584  68.506  1.00  0.00     0.000 HD 
HETATM    4  S   UNL     1      -9.854   6.250  70.315  1.00  0.00    -0.170 S  
HETATM    5  O   UNL     1      -9.412   5.968  71.659  1.00  0.00    -0.149 OA 
HETATM    6  O   UNL     1     -10.922   5.515  69.690  1.00  0.00    -0.306 OA 
ENDROOT
BRANCH   4   7
HETATM    7  C   UNL     1     -10.205   7.988  70.180  1.00  0.00    -0.203 A  
HETATM    8  C   UNL     1      -9.331   8.735  69.386  1.00  0.00    -0.157 A  
HETATM    9  C   UNL     1      -9.579  10.087  69.154  1.00  0.00    -0.210 A  
HETATM   10  C   UNL     1     -10.675  10.749  69.695  1.00  0.00    -0.211 A  
HETATM   11  C   UNL     1     -11.546   9.982  70.487  1.00  0.00    -0.403 A  
HETATM   12  N   UNL     1     -11.015  12.061  69.356  1.00  0.00    -0.438 NA 
HETATM   13  H   UNL     1     -11.976  12.393  69.444  1.00  0.00     0.000 HD 
HETATM   14  C   UNL     1      -9.958  12.944  68.874  1.00  0.00     0.107 C  
HETATM   15  C   UNL     1     -11.324   8.598  70.766  1.00  0.00    -0.299 A  
HETATM   16  N   UNL     1      -9.335  12.341  67.703  1.00  0.00    -0.180 N  
HETATM   17  O   UNL     1      -7.357  11.388  68.901  1.00  0.00    -0.104 OA 
HETATM   18  C   UNL     1     -12.329   7.921  71.671  1.00  0.00    -0.315 C  
HETATM   19  F   UNL     1     -12.183   6.590  71.885  1.00  0.00    -0.351 F  
HETATM   20  F   UNL     1     -12.342   8.489  72.912  1.00  0.00    -0.443 F  
HETATM   21  S   UNL     1      -8.482  10.955  68.103  1.00  0.00    -0.137 S  
HETATM   22  F   UNL     1     -13.603   8.063  71.201  1.00  0.00    -0.294 F  
HETATM   23  O   UNL     1      -8.300  10.203  66.883  1.00  0.00    -0.121 OA 
HETATM   24  H   UNL     1      -9.408  12.716  66.756  1.00  0.00     0.000 HD 
BRANCH  14  25
HETATM   25  C   UNL     1     -10.530  14.321  68.451  1.00  0.00    -0.249 C  
BRANCH  25  26
HETATM   26  C   UNL     1     -11.034  14.353  67.027  1.00  0.00    -0.304 A  
HETATM   27  C   UNL     1     -10.326  15.035  66.028  1.00  0.00    -0.326 A  
HETATM   28  C   UNL     1     -10.860  15.159  64.746  1.00  0.00    -0.378 A  
HETATM   29  C   UNL     1     -12.090  14.577  64.445  1.00  0.00    -0.492 A  
HETATM   30  C   UNL     1     -12.771  13.844  65.414  1.00  0.00    -0.525 A  
HETATM   31  C   UNL     1     -12.244  13.728  66.699  1.00  0.00    -0.454 A  
ENDBRANCH  25  26
ENDBRANCH  14  25
ENDBRANCH   4   7
TORSDOF 3
ENDMDL
MODEL       39
REMARK 921   NORMALIZED FREE ENERGY PREDICTED BY IDOCK:   -6.00 KCAL/MOL
REMARK 922        TOTAL FREE ENERGY PREDICTED BY IDOCK:   -7.18 KCAL/MOL
REMARK 923 INTER-LIGAND FREE ENERGY PREDICTED BY IDOCK:   -7.34 KCAL/MOL
REMARK 924 INTRA-LIGAND FREE ENERGY PREDICTED BY IDOCK:    0.16 KCAL/MOL
REMARK 927      BINDING AFFINITY PREDICTED BY RF-SCORE:    0.00 PKD
ROOT
HETATM    1  N   UNL     1     -12.214   9.862  70.034  1.00  0.00    -0.479 N  
HETATM    2  H1  UNL     1     -12.717   9.903  69.148  1.00  0.00     0.000 HD 
HETATM    3  H2  UNL     1     -12.606  10.085  70.949  1.00  0.00     0.000 HD 
HETATM    4  S   UNL     1     -10.638   9.369  69.745  1.00  0.00    -0.241 S  
HETATM    5  O   UNL     1     -10.770   8.218  68.884  1.00  0.00    -0.175 OA 
HETATM    6  O   UNL     1      -9.928   9.312  70.996  1.00  0.00    -0.270 OA 
ENDROOT
BRANCH   4   7
HETATM    7  C   UNL     1     -10.003  10.729  68.792  1.00  0.00    -0.193 A  
HETATM    8  C   UNL     1     -10.880  11.795  68.577  1.00  0.00    -0.261 A  
HETATM    9  C   UNL     1     -10.440  12.939  67.914  1.00  0.00    -0.224 A  
HETATM   10  C   UNL     1      -9.141  13.073  67.436  1.00  0.00    -0.201 A  
HETATM   11  C   UNL     1      -8.272  11.993  67.664  1.00  0.00    -0.155 A  
HETATM   12  N   UNL     1      -8.645  14.265  66.901  1.00  0.00    -0.366 NA 
HETATM   13  H   UNL     1      -7.646  14.468  66.911  1.00  0.00     0.000 HD 
HETATM   14  C   UNL     1      -9.597  15.210  66.327  1.00  0.00    -0.297 C  
HETATM   15  C   UNL     1      -8.683  10.794  68.323  1.00  0.00    -0.136 A  
HETATM   16  N   UNL     1     -10.582  15.566  67.341  1.00  0.00    -0.286 N  
HETATM   17  O   UNL     1     -12.367  14.002  66.554  1.00  0.00    -0.457 OA 
HETATM   18  C   UNL     1      -7.641   9.704  68.456  1.00  0.00    -0.080 C  
HETATM   19  F   UNL     1      -7.985   8.590  69.147  1.00  0.00    -0.102 F  
HETATM   20  F   UNL     1      -7.230   9.260  67.233  1.00  0.00    -0.082 F  
HETATM   21  S   UNL     1     -11.566  14.266  67.728  1.00  0.00    -0.373 S  
HETATM   22  F   UNL     1      -6.511  10.162  69.068  1.00  0.00    -0.043 F  
HETATM   23  O   UNL     1     -12.170  14.559  69.007  1.00  0.00    -0.275 OA 
HETATM   24  H   UNL     1     -10.663  16.492  67.763  1.00  0.00     0.000 HD 
BRANCH  14  25
HETATM   25  C   UNL     1      -8.888  16.513  65.877  1.00  0.00    -0.148 C  
BRANCH  25  26
HETATM   26  C   UNL     1      -9.253  17.718  66.712  1.00  0.00    -0.281 A  
HETATM   27  C   UNL     1     -10.359  18.513  66.384  1.00  0.00    -0.456 A  
HETATM   28  C   UNL     1     -10.615  19.688  67.090  1.00  0.00    -0.611 A  
HETATM   29  C   UNL     1      -9.787  20.061  68.146  1.00  0.00    -0.499 A  
HETATM   30  C   UNL     1      -8.723  19.244  68.520  1.00  0.00    -0.405 A  
HETATM   31  C   UNL     1      -8.458  18.074  67.809  1.00  0.00    -0.247 A  
ENDBRANCH  25  26
ENDBRANCH  14  25
ENDBRANCH   4   7
TORSDOF 3
ENDMDL
MODEL       40
REMARK 921   NORMALIZED FREE ENERGY PREDICTED BY IDOCK:   -5.99 KCAL/MOL
REMARK 922        TOTAL FREE ENERGY PREDICTED BY IDOCK:   -7.18 KCAL/MOL
REMARK 923 INTER-LIGAND FREE ENERGY PREDICTED BY IDOCK:   -7.34 KCAL/MOL
REMARK 924 INTRA-LIGAND FREE ENERGY PREDICTED BY IDOCK:    0.16 KCAL/MOL
REMARK 927      BINDING AFFINITY PREDICTED BY RF-SCORE:    0.00 PKD
ROOT
HETATM    1  N   UNL     1      -9.419   6.115  69.057  1.00  0.00    -0.127 N  
HETATM    2  H1  UNL     1     -10.400   5.917  68.860  1.00  0.00     0.000 HD 
HETATM    3  H2  UNL     1      -8.832   5.603  69.716  1.00  0.00     0.000 HD 
HETATM    4  S   UNL     1      -8.926   7.416  68.122  1.00  0.00    -0.128 S  
HETATM    5  O   UNL     1      -9.394   7.106  66.793  1.00  0.00    -0.149 OA 
HETATM    6  O   UNL     1      -7.541   7.696  68.400  1.00  0.00    -0.108 OA 
ENDROOT
BRANCH   4   7
HETATM    7  C   UNL     1      -9.917   8.734  68.786  1.00  0.00    -0.185 A  
HETATM    8  C   UNL     1     -10.784   8.391  69.827  1.00  0.00    -0.211 A  
HETATM    9  C   UNL     1     -11.535   9.377  70.465  1.00  0.00    -0.262 A  
HETATM   10  C   UNL     1     -11.471  10.717  70.101  1.00  0.00    -0.329 A  
HETATM   11  C   UNL     1     -10.592  11.045  69.055  1.00  0.00    -0.258 A  
HETATM   12  N   UNL     1     -12.105  11.733  70.821  1.00  0.00    -0.421 NA 
HETATM   13  H   UNL     1     -11.761  12.693  70.788  1.00  0.00     0.000 HD 
HETATM   14  C   UNL     1     -13.273  11.383  71.622  1.00  0.00    -0.309 C  
HETATM   15  C   UNL     1      -9.815  10.067  68.361  1.00  0.00    -0.169 A  
HETATM   16  N   UNL     1     -12.902  10.343  72.574  1.00  0.00    -0.130 N  
HETATM   17  O   UNL     1     -13.807   8.422  71.252  1.00  0.00    -0.265 OA 
HETATM   18  C   UNL     1      -8.947  10.571  67.229  1.00  0.00    -0.139 C  
HETATM   19  F   UNL     1      -8.142   9.674  66.610  1.00  0.00    -0.114 F  
HETATM   20  F   UNL     1      -9.700  11.129  66.237  1.00  0.00    -0.209 F  
HETATM   21  S   UNL     1     -12.556   8.896  71.802  1.00  0.00    -0.386 S  
HETATM   22  F   UNL     1      -8.111  11.567  67.644  1.00  0.00    -0.114 F  
HETATM   23  O   UNL     1     -11.784   8.097  72.725  1.00  0.00    -0.403 OA 
HETATM   24  H   UNL     1     -12.857  10.478  73.584  1.00  0.00     0.000 HD 
BRANCH  14  25
HETATM   25  C   UNL     1     -13.783  12.603  72.430  1.00  0.00    -0.377 C  
BRANCH  25  26
HETATM   26  C   UNL     1     -13.020  13.876  72.148  1.00  0.00    -0.441 A  
HETATM   27  C   UNL     1     -12.293  14.518  73.160  1.00  0.00    -0.278 A  
HETATM   28  C   UNL     1     -11.692  15.753  72.919  1.00  0.00    -0.492 A  
HETATM   29  C   UNL     1     -11.786  16.340  71.658  1.00  0.00    -0.482 A  
HETATM   30  C   UNL     1     -12.453  15.679  70.629  1.00  0.00    -0.463 A  
HETATM   31  C   UNL     1     -13.064  14.449  70.871  1.00  0.00    -0.390 A  
ENDBRANCH  25  26
ENDBRANCH  14  25
ENDBRANCH   4   7
TORSDOF 3
ENDMDL
MODEL       41
REMARK 921   NORMALIZED FREE ENERGY PREDICTED BY IDOCK:   -5.91 KCAL/MOL
REMARK 922        TOTAL FREE ENERGY PREDICTED BY IDOCK:   -7.08 KCAL/MOL
REMARK 923 INTER-LIGAND FREE ENERGY PREDICTED BY IDOCK:   -7.25 KCAL/MOL
REMARK 924 INTRA-LIGAND FREE ENERGY PREDICTED BY IDOCK:    0.17 KCAL/MOL
REMARK 927      BINDING AFFINITY PREDICTED BY RF-SCORE:    0.00 PKD
ROOT
HETATM    1  N   UNL     1      -8.683   8.547  66.874  1.00  0.00    -0.126 N  
HETATM    2  H1  UNL     1      -7.872   8.993  67.303  1.00  0.00     0.000 HD 
HETATM    3  H2  UNL     1      -8.762   8.281  65.893  1.00  0.00     0.000 HD 
HETATM    4  S   UNL     1      -9.864   8.321  68.042  1.00  0.00    -0.176 S  
HETATM    5  O   UNL     1      -9.163   7.730  69.157  1.00  0.00    -0.145 OA 
HETATM    6  O   UNL     1     -11.008   7.691  67.437  1.00  0.00    -0.207 OA 
ENDROOT
BRANCH   4   7
HETATM    7  C   UNL     1     -10.288   9.997  68.456  1.00  0.00    -0.193 A  
HETATM    8  C   UNL     1      -9.832  10.984  67.579  1.00  0.00    -0.190 A  
HETATM    9  C   UNL     1     -10.191  12.316  67.779  1.00  0.00    -0.202 A  
HETATM   10  C   UNL     1     -10.993  12.723  68.838  1.00  0.00    -0.231 A  
HETATM   11  C   UNL     1     -11.447  11.717  69.708  1.00  0.00    -0.339 A  
HETATM   12  N   UNL     1     -11.479  14.027  68.969  1.00  0.00    -0.275 NA 
HETATM   13  H   UNL     1     -12.331  14.219  69.495  1.00  0.00     0.000 HD 
HETATM   14  C   UNL     1     -10.733  15.107  68.331  1.00  0.00    -0.248 C  
HETATM   15  C   UNL     1     -11.092  10.342  69.553  1.00  0.00    -0.310 A  
HETATM   16  N   UNL     1     -10.619  14.826  66.904  1.00  0.00    -0.289 N  
HETATM   17  O   UNL     1      -8.300  13.896  66.990  1.00  0.00    -0.178 OA 
HETATM   18  C   UNL     1     -11.626   9.384  70.595  1.00  0.00    -0.269 C  
HETATM   19  F   UNL     1     -11.367   8.065  70.425  1.00  0.00    -0.268 F  
HETATM   20  F   UNL     1     -11.151   9.689  71.838  1.00  0.00    -0.422 F  
HETATM   21  S   UNL     1      -9.638  13.499  66.613  1.00  0.00    -0.277 S  
HETATM   22  F   UNL     1     -12.984   9.465  70.703  1.00  0.00    -0.208 F  
HETATM   23  O   UNL     1      -9.944  13.032  65.281  1.00  0.00    -0.255 OA 
HETATM   24  H   UNL     1     -11.080  15.371  66.174  1.00  0.00     0.000 HD 
BRANCH  14  25
HETATM   25  C   UNL     1     -11.466  16.463  68.490  1.00  0.00    -0.209 C  
BRANCH  25  26
HETATM   26  C   UNL     1     -10.662  17.645  68.004  1.00  0.00    -0.333 A  
HETATM   27  C   UNL     1      -9.899  18.412  68.896  1.00  0.00    -0.350 A  
HETATM   28  C   UNL     1      -9.257  19.570  68.458  1.00  0.00    -0.413 A  
HETATM   29  C   UNL     1      -9.346  19.953  67.121  1.00  0.00    -0.479 A  
HETATM   30  C   UNL     1     -10.049  19.162  66.214  1.00  0.00    -0.499 A  
HETATM   31  C   UNL     1     -10.701  18.010  66.652  1.00  0.00    -0.156 A  
ENDBRANCH  25  26
ENDBRANCH  14  25
ENDBRANCH   4   7
TORSDOF 3
ENDMDL
MODEL       42
REMARK 921   NORMALIZED FREE ENERGY PREDICTED BY IDOCK:   -5.91 KCAL/MOL
REMARK 922        TOTAL FREE ENERGY PREDICTED BY IDOCK:   -7.08 KCAL/MOL
REMARK 923 INTER-LIGAND FREE ENERGY PREDICTED BY IDOCK:   -6.85 KCAL/MOL
REMARK 924 INTRA-LIGAND FREE ENERGY PREDICTED BY IDOCK:   -0.24 KCAL/MOL
REMARK 927      BINDING AFFINITY PREDICTED BY RF-SCORE:    0.00 PKD
ROOT
HETATM    1  N   UNL     1     -11.021   8.325  67.649  1.00  0.00    -0.489 N  
HETATM    2  H1  UNL     1     -11.566   8.835  66.954  1.00  0.00     0.000 HD 
HETATM    3  H2  UNL     1     -11.405   7.817  68.446  1.00  0.00     0.000 HD 
HETATM    4  S   UNL     1      -9.393   8.456  67.272  1.00  0.00    -0.152 S  
HETATM    5  O   UNL     1      -9.322   8.148  65.864  1.00  0.00    -0.155 OA 
HETATM    6  O   UNL     1      -8.625   7.736  68.253  1.00  0.00    -0.124 OA 
ENDROOT
BRANCH   4   7
HETATM    7  C   UNL     1      -9.110  10.197  67.493  1.00  0.00    -0.134 A  
HETATM    8  C   UNL     1     -10.194  10.945  67.960  1.00  0.00    -0.202 A  
HETATM    9  C   UNL     1     -10.038  12.301  68.244  1.00  0.00    -0.218 A  
HETATM   10  C   UNL     1      -8.830  12.965  68.072  1.00  0.00    -0.195 A  
HETATM   11  C   UNL     1      -7.749  12.198  67.605  1.00  0.00    -0.148 A  
HETATM   12  N   UNL     1      -8.619  14.283  68.487  1.00  0.00    -0.177 NA 
HETATM   13  H   UNL     1      -7.682  14.621  68.705  1.00  0.00     0.000 HD 
HETATM   14  C   UNL     1      -9.778  15.163  68.599  1.00  0.00    -0.216 C  
HETATM   15  C   UNL     1      -7.866  10.810  67.286  1.00  0.00    -0.113 A  
HETATM   16  N   UNL     1     -10.739  14.566  69.519  1.00  0.00    -0.384 N  
HETATM   17  O   UNL     1     -12.230  13.589  67.764  1.00  0.00    -0.311 OA 
HETATM   18  C   UNL     1      -6.622  10.132  66.754  1.00  0.00    -0.073 C  
HETATM   19  F   UNL     1      -6.688   8.799  66.519  1.00  0.00    -0.066 F  
HETATM   20  F   UNL     1      -6.219  10.689  65.575  1.00  0.00    -0.110 F  
HETATM   21  S   UNL     1     -11.416  13.171  68.883  1.00  0.00    -0.317 S  
HETATM   22  F   UNL     1      -5.565  10.287  67.602  1.00  0.00    -0.044 F  
HETATM   23  O   UNL     1     -11.973  12.429  69.990  1.00  0.00    -0.328 OA 
HETATM   24  H   UNL     1     -10.972  14.950  70.435  1.00  0.00     0.000 HD 
BRANCH  14  25
HETATM   25  C   UNL     1      -9.376  16.547  69.167  1.00  0.00    -0.207 C  
BRANCH  25  26
HETATM   26  C   UNL     1      -9.705  17.698  68.246  1.00  0.00    -0.315 A  
HETATM   27  C   UNL     1      -9.746  19.015  68.724  1.00  0.00    -0.473 A  
HETATM   28  C   UNL     1     -10.167  20.053  67.894  1.00  0.00    -0.545 A  
HETATM   29  C   UNL     1     -10.521  19.788  66.572  1.00  0.00    -0.615 A  
HETATM   30  C   UNL     1     -10.422  18.492  66.070  1.00  0.00    -0.433 A  
HETATM   31  C   UNL     1     -10.012  17.451  66.901  1.00  0.00    -0.300 A  
ENDBRANCH  25  26
ENDBRANCH  14  25
ENDBRANCH   4   7
TORSDOF 3
ENDMDL
MODEL       43
REMARK 921   NORMALIZED FREE ENERGY PREDICTED BY IDOCK:   -5.89 KCAL/MOL
REMARK 922        TOTAL FREE ENERGY PREDICTED BY IDOCK:   -7.06 KCAL/MOL
REMARK 923 INTER-LIGAND FREE ENERGY PREDICTED BY IDOCK:   -6.93 KCAL/MOL
REMARK 924 INTRA-LIGAND FREE ENERGY PREDICTED BY IDOCK:   -0.14 KCAL/MOL
REMARK 927      BINDING AFFINITY PREDICTED BY RF-SCORE:    0.00 PKD
ROOT
HETATM    1  N   UNL     1     -13.110  10.966  72.294  1.00  0.00    -0.485 N  
HETATM    2  H1  UNL     1     -13.968  11.385  71.935  1.00  0.00     0.000 HD 
HETATM    3  H2  UNL     1     -12.832  10.933  73.274  1.00  0.00     0.000 HD 
HETATM    4  S   UNL     1     -12.231  10.340  71.011  1.00  0.00    -0.417 S  
HETATM    5  O   UNL     1     -13.193   9.584  70.246  1.00  0.00     0.324 OA 
HETATM    6  O   UNL     1     -11.020   9.748  71.517  1.00  0.00    -0.309 OA 
ENDROOT
BRANCH   4   7
HETATM    7  C   UNL     1     -11.810  11.813  70.108  1.00  0.00    -0.324 A  
HETATM    8  C   UNL     1     -12.168  13.025  70.703  1.00  0.00    -0.390 A  
HETATM    9  C   UNL     1     -11.801  14.231  70.108  1.00  0.00    -0.312 A  
HETATM   10  C   UNL     1     -11.088  14.289  68.917  1.00  0.00    -0.262 A  
HETATM   11  C   UNL     1     -10.733  13.061  68.334  1.00  0.00    -0.273 A  
HETATM   12  N   UNL     1     -10.589  15.482  68.384  1.00  0.00    -0.245 NA 
HETATM   13  H   UNL     1      -9.783  15.480  67.759  1.00  0.00     0.000 HD 
HETATM   14  C   UNL     1     -11.254  16.729  68.748  1.00  0.00    -0.148 C  
HETATM   15  C   UNL     1     -11.101  11.801  68.898  1.00  0.00    -0.297 A  
HETATM   16  N   UNL     1     -11.247  16.864  70.200  1.00  0.00    -0.301 N  
HETATM   17  O   UNL     1     -13.583  16.050  70.566  1.00  0.00     0.069 OA 
HETATM   18  C   UNL     1     -10.681  10.567  68.130  1.00  0.00    -0.233 C  
HETATM   19  F   UNL     1     -10.949   9.361  68.687  1.00  0.00    -0.236 F  
HETATM   20  F   UNL     1     -11.257  10.533  66.893  1.00  0.00    -0.298 F  
HETATM   21  S   UNL     1     -12.225  15.716  70.931  1.00  0.00    -0.427 S  
HETATM   22  F   UNL     1      -9.336  10.555  67.897  1.00  0.00    -0.139 F  
HETATM   23  O   UNL     1     -11.812  15.627  72.312  1.00  0.00    -0.394 OA 
HETATM   24  H   UNL     1     -10.712  17.570  70.708  1.00  0.00     0.000 HD 
BRANCH  14  25
HETATM   25  C   UNL     1     -10.511  17.952  68.155  1.00  0.00    -0.380 C  
BRANCH  25  26
HETATM   26  C   UNL     1      -9.075  17.665  67.784  1.00  0.00    -0.247 A  
HETATM   27  C   UNL     1      -8.056  17.733  68.744  1.00  0.00    -0.228 A  
HETATM   28  C   UNL     1      -6.722  17.583  68.366  1.00  0.00    -0.193 A  
HETATM   29  C   UNL     1      -6.399  17.334  67.034  1.00  0.00    -0.209 A  
HETATM   30  C   UNL     1      -7.409  17.201  66.084  1.00  0.00    -0.281 A  
HETATM   31  C   UNL     1      -8.743  17.362  66.457  1.00  0.00    -0.290 A  
ENDBRANCH  25  26
ENDBRANCH  14  25
ENDBRANCH   4   7
TORSDOF 3
ENDMDL
MODEL       44
REMARK 921   NORMALIZED FREE ENERGY PREDICTED BY IDOCK:   -5.87 KCAL/MOL
REMARK 922        TOTAL FREE ENERGY PREDICTED BY IDOCK:   -7.04 KCAL/MOL
REMARK 923 INTER-LIGAND FREE ENERGY PREDICTED BY IDOCK:   -7.21 KCAL/MOL
REMARK 924 INTRA-LIGAND FREE ENERGY PREDICTED BY IDOCK:    0.18 KCAL/MOL
REMARK 927      BINDING AFFINITY PREDICTED BY RF-SCORE:    0.00 PKD
ROOT
HETATM    1  N   UNL     1      -9.067  15.518  66.950  1.00  0.00    -0.224 N  
HETATM    2  H1  UNL     1      -8.289  15.419  66.297  1.00  0.00     0.000 HD 
HETATM    3  H2  UNL     1      -8.989  15.813  67.923  1.00  0.00     0.000 HD 
HETATM    4  S   UNL     1     -10.493  15.120  66.164  1.00  0.00    -0.328 S  
HETATM    5  O   UNL     1     -10.437  15.849  64.919  1.00  0.00    -0.542 OA 
HETATM    6  O   UNL     1     -11.591  15.260  67.084  1.00  0.00    -0.265 OA 
ENDROOT
BRANCH   4   7
HETATM    7  C   UNL     1     -10.250  13.391  65.827  1.00  0.00    -0.295 A  
HETATM    8  C   UNL     1      -9.207  12.768  66.517  1.00  0.00    -0.190 A  
HETATM    9  C   UNL     1      -8.999  11.397  66.380  1.00  0.00    -0.191 A  
HETATM   10  C   UNL     1      -9.791  10.599  65.564  1.00  0.00    -0.258 A  
HETATM   11  C   UNL     1     -10.838  11.241  64.880  1.00  0.00    -0.299 A  
HETATM   12  N   UNL     1      -9.687   9.206  65.527  1.00  0.00    -0.462 NA 
HETATM   13  H   UNL     1     -10.479   8.629  65.244  1.00  0.00     0.000 HD 
HETATM   14  C   UNL     1      -8.415   8.600  65.907  1.00  0.00    -0.146 C  
HETATM   15  C   UNL     1     -11.079  12.646  64.977  1.00  0.00    -0.326 A  
HETATM   16  N   UNL     1      -8.071   9.027  67.258  1.00  0.00    -0.103 N  
HETATM   17  O   UNL     1      -6.481  10.835  66.581  1.00  0.00    -0.089 OA 
HETATM   18  C   UNL     1     -12.219  13.195  64.147  1.00  0.00    -0.398 C  
HETATM   19  F   UNL     1     -12.516  14.510  64.283  1.00  0.00    -0.481 F  
HETATM   20  F   UNL     1     -11.996  13.009  62.813  1.00  0.00    -0.466 F  
HETATM   21  S   UNL     1      -7.714  10.663  67.316  1.00  0.00    -0.110 S  
HETATM   22  F   UNL     1     -13.389  12.542  64.406  1.00  0.00    -0.332 F  
HETATM   23  O   UNL     1      -7.838  11.074  68.695  1.00  0.00    -0.119 OA 
HETATM   24  H   UNL     1      -8.050   8.406  68.068  1.00  0.00     0.000 HD 
BRANCH  14  25
HETATM   25  C   UNL     1      -8.511   7.054  65.908  1.00  0.00    -0.151 C  
BRANCH  25  26
HETATM   26  C   UNL     1      -9.166   6.490  67.148  1.00  0.00    -0.134 A  
HETATM   27  C   UNL     1     -10.546   6.617  67.353  1.00  0.00    -0.370 A  
HETATM   28  C   UNL     1     -11.121   6.199  68.553  1.00  0.00    -0.352 A  
HETATM   29  C   UNL     1     -10.326   5.625  69.543  1.00  0.00    -0.345 A  
HETATM   30  C   UNL     1      -8.963   5.437  69.322  1.00  0.00    -0.122 A  
HETATM   31  C   UNL     1      -8.385   5.864  68.128  1.00  0.00    -0.115 A  
ENDBRANCH  25  26
ENDBRANCH  14  25
ENDBRANCH   4   7
TORSDOF 3
ENDMDL
MODEL       45
REMARK 921   NORMALIZED FREE ENERGY PREDICTED BY IDOCK:   -5.87 KCAL/MOL
REMARK 922        TOTAL FREE ENERGY PREDICTED BY IDOCK:   -7.03 KCAL/MOL
REMARK 923 INTER-LIGAND FREE ENERGY PREDICTED BY IDOCK:   -6.81 KCAL/MOL
REMARK 924 INTRA-LIGAND FREE ENERGY PREDICTED BY IDOCK:   -0.23 KCAL/MOL
REMARK 927      BINDING AFFINITY PREDICTED BY RF-SCORE:    0.00 PKD
ROOT
HETATM    1  N   UNL     1      -9.134   6.787  72.028  1.00  0.00    -0.139 N  
HETATM    2  H1  UNL     1      -8.546   7.455  72.526  1.00  0.00     0.000 HD 
HETATM    3  H2  UNL     1      -8.808   5.934  71.574  1.00  0.00     0.000 HD 
HETATM    4  S   UNL     1     -10.724   7.316  72.077  1.00  0.00    -0.216 S  
HETATM    5  O   UNL     1     -10.951   7.657  73.461  1.00  0.00    -0.326 OA 
HETATM    6  O   UNL     1     -11.554   6.373  71.375  1.00  0.00    -0.300 OA 
ENDROOT
BRANCH   4   7
HETATM    7  C   UNL     1     -10.635   8.816  71.126  1.00  0.00    -0.241 A  
HETATM    8  C   UNL     1      -9.420   9.068  70.483  1.00  0.00    -0.265 A  
HETATM    9  C   UNL     1      -9.289  10.175  69.647  1.00  0.00    -0.190 A  
HETATM   10  C   UNL     1     -10.329  11.069  69.421  1.00  0.00    -0.104 A  
HETATM   11  C   UNL     1     -11.545  10.798  70.072  1.00  0.00    -0.417 A  
HETATM   12  N   UNL     1     -10.260  12.097  68.477  1.00  0.00    -0.242 NA 
HETATM   13  H   UNL     1     -11.106  12.483  68.059  1.00  0.00     0.000 HD 
HETATM   14  C   UNL     1      -8.942  12.604  68.107  1.00  0.00    -0.199 C  
HETATM   15  C   UNL     1     -11.721   9.685  70.951  1.00  0.00    -0.412 A  
HETATM   16  N   UNL     1      -8.133  11.499  67.606  1.00  0.00    -0.124 N  
HETATM   17  O   UNL     1      -6.872  11.096  69.728  1.00  0.00    -0.134 OA 
HETATM   18  C   UNL     1     -13.077   9.552  71.610  1.00  0.00    -0.401 C  
HETATM   19  F   UNL     1     -13.292   8.461  72.385  1.00  0.00    -0.328 F  
HETATM   20  F   UNL     1     -13.348  10.625  72.409  1.00  0.00    -0.522 F  
HETATM   21  S   UNL     1      -7.762  10.406  68.822  1.00  0.00    -0.113 S  
HETATM   22  F   UNL     1     -14.083   9.532  70.688  1.00  0.00    -0.254 F  
HETATM   23  O   UNL     1      -7.380   9.171  68.178  1.00  0.00    -0.078 OA 
HETATM   24  H   UNL     1      -7.830  11.403  66.637  1.00  0.00     0.000 HD 
BRANCH  14  25
HETATM   25  C   UNL     1      -9.047  13.662  66.980  1.00  0.00    -0.254 C  
BRANCH  25  26
HETATM   26  C   UNL     1      -9.268  15.067  67.490  1.00  0.00    -0.189 A  
HETATM   27  C   UNL     1     -10.461  15.751  67.220  1.00  0.00    -0.308 A  
HETATM   28  C   UNL     1     -10.607  17.087  67.592  1.00  0.00    -0.333 A  
HETATM   29  C   UNL     1      -9.574  17.739  68.263  1.00  0.00    -0.312 A  
HETATM   30  C   UNL     1      -8.410  17.049  68.592  1.00  0.00    -0.264 A  
HETATM   31  C   UNL     1      -8.258  15.716  68.211  1.00  0.00    -0.142 A  
ENDBRANCH  25  26
ENDBRANCH  14  25
ENDBRANCH   4   7
TORSDOF 3
ENDMDL
MODEL       46
REMARK 921   NORMALIZED FREE ENERGY PREDICTED BY IDOCK:   -5.85 KCAL/MOL
REMARK 922        TOTAL FREE ENERGY PREDICTED BY IDOCK:   -7.01 KCAL/MOL
REMARK 923 INTER-LIGAND FREE ENERGY PREDICTED BY IDOCK:   -6.79 KCAL/MOL
REMARK 924 INTRA-LIGAND FREE ENERGY PREDICTED BY IDOCK:   -0.23 KCAL/MOL
REMARK 927      BINDING AFFINITY PREDICTED BY RF-SCORE:    0.00 PKD
ROOT
HETATM    1  N   UNL     1      -6.345   8.506  72.429  1.00  0.00    -0.078 N  
HETATM    2  H1  UNL     1      -6.291   9.523  72.380  1.00  0.00     0.000 HD 
HETATM    3  H2  UNL     1      -5.572   7.862  72.263  1.00  0.00     0.000 HD 
HETATM    4  S   UNL     1      -7.912   8.061  72.828  1.00  0.00    -0.158 S  
HETATM    5  O   UNL     1      -8.254   8.903  73.949  1.00  0.00    -0.277 OA 
HETATM    6  O   UNL     1      -7.989   6.625  72.897  1.00  0.00    -0.103 OA 
ENDROOT
BRANCH   4   7
HETATM    7  C   UNL     1      -8.818   8.612  71.401  1.00  0.00    -0.215 A  
HETATM    8  C   UNL     1      -8.057   9.111  70.340  1.00  0.00    -0.166 A  
HETATM    9  C   UNL     1      -8.677   9.484  69.150  1.00  0.00    -0.146 A  
HETATM   10  C   UNL     1     -10.051   9.392  68.962  1.00  0.00    -0.194 A  
HETATM   11  C   UNL     1     -10.801   8.884  70.037  1.00  0.00    -0.239 A  
HETATM   12  N   UNL     1     -10.669   9.624  67.730  1.00  0.00    -0.339 NA 
HETATM   13  H   UNL     1     -11.571   9.202  67.509  1.00  0.00     0.000 HD 
HETATM   14  C   UNL     1      -9.989  10.488  66.771  1.00  0.00    -0.204 C  
HETATM   15  C   UNL     1     -10.211   8.504  71.281  1.00  0.00    -0.287 A  
HETATM   16  N   UNL     1      -8.666   9.941  66.496  1.00  0.00    -0.128 N  
HETATM   17  O   UNL     1      -7.414  11.454  68.045  1.00  0.00    -0.091 OA 
HETATM   18  C   UNL     1     -11.157   8.015  72.356  1.00  0.00    -0.352 C  
HETATM   19  F   UNL     1     -10.612   7.575  73.517  1.00  0.00    -0.376 F  
HETATM   20  F   UNL     1     -12.043   8.988  72.717  1.00  0.00    -0.335 F  
HETATM   21  S   UNL     1      -7.665  10.045  67.836  1.00  0.00    -0.089 S  
HETATM   22  F   UNL     1     -11.926   6.979  71.914  1.00  0.00    -0.297 F  
HETATM   23  O   UNL     1      -6.587   9.106  67.634  1.00  0.00    -0.063 OA 
HETATM   24  H   UNL     1      -8.384   9.544  65.599  1.00  0.00     0.000 HD 
BRANCH  14  25
HETATM   25  C   UNL     1     -10.763  10.551  65.430  1.00  0.00    -0.038 C  
BRANCH  25  26
HETATM   26  C   UNL     1     -11.389  11.898  65.157  1.00  0.00    -0.328 A  
HETATM   27  C   UNL     1     -11.599  12.342  63.844  1.00  0.00    -0.525 A  
HETATM   28  C   UNL     1     -12.067  13.633  63.603  1.00  0.00    -0.397 A  
HETATM   29  C   UNL     1     -12.357  14.479  64.671  1.00  0.00    -0.419 A  
HETATM   30  C   UNL     1     -12.213  14.025  65.980  1.00  0.00    -0.484 A  
HETATM   31  C   UNL     1     -11.735  12.738  66.223  1.00  0.00    -0.460 A  
ENDBRANCH  25  26
ENDBRANCH  14  25
ENDBRANCH   4   7
TORSDOF 3
ENDMDL
MODEL       47
REMARK 921   NORMALIZED FREE ENERGY PREDICTED BY IDOCK:   -5.80 KCAL/MOL
REMARK 922        TOTAL FREE ENERGY PREDICTED BY IDOCK:   -6.96 KCAL/MOL
REMARK 923 INTER-LIGAND FREE ENERGY PREDICTED BY IDOCK:   -7.03 KCAL/MOL
REMARK 924 INTRA-LIGAND FREE ENERGY PREDICTED BY IDOCK:    0.07 KCAL/MOL
REMARK 927      BINDING AFFINITY PREDICTED BY RF-SCORE:    0.00 PKD
ROOT
HETATM    1  N   UNL     1      -7.552  14.464  68.512  1.00  0.00    -0.118 N  
HETATM    2  H1  UNL     1      -6.885  13.952  67.934  1.00  0.00     0.000 HD 
HETATM    3  H2  UNL     1      -7.375  14.811  69.455  1.00  0.00     0.000 HD 
HETATM    4  S   UNL     1      -8.986  14.642  67.663  1.00  0.00    -0.196 S  
HETATM    5  O   UNL     1      -8.581  15.113  66.361  1.00  0.00    -0.251 OA 
HETATM    6  O   UNL     1      -9.928  15.364  68.479  1.00  0.00    -0.206 OA 
ENDROOT
BRANCH   4   7
HETATM    7  C   UNL     1      -9.533  12.956  67.519  1.00  0.00    -0.198 A  
HETATM    8  C   UNL     1      -8.774  12.000  68.199  1.00  0.00    -0.177 A  
HETATM    9  C   UNL     1      -9.178  10.667  68.212  1.00  0.00    -0.153 A  
HETATM   10  C   UNL     1     -10.323  10.227  67.558  1.00  0.00    -0.229 A  
HETATM   11  C   UNL     1     -11.077  11.202  66.883  1.00  0.00    -0.313 A  
HETATM   12  N   UNL     1     -10.819   8.926  67.682  1.00  0.00    -0.487 NA 
HETATM   13  H   UNL     1     -11.807   8.725  67.529  1.00  0.00     0.000 HD 
HETATM   14  C   UNL     1      -9.883   7.864  68.035  1.00  0.00    -0.165 C  
HETATM   15  C   UNL     1     -10.693  12.577  66.828  1.00  0.00    -0.261 A  
HETATM   16  N   UNL     1      -9.234   8.203  69.296  1.00  0.00    -0.151 N  
HETATM   17  O   UNL     1      -7.125   9.095  68.291  1.00  0.00    -0.075 OA 
HETATM   18  C   UNL     1     -11.586  13.497  66.025  1.00  0.00    -0.338 C  
HETATM   19  F   UNL     1     -11.286  14.818  66.025  1.00  0.00    -0.325 F  
HETATM   20  F   UNL     1     -11.622  13.132  64.711  1.00  0.00    -0.321 F  
HETATM   21  S   UNL     1      -8.220   9.526  69.131  1.00  0.00    -0.119 S  
HETATM   22  F   UNL     1     -12.882  13.431  66.448  1.00  0.00    -0.322 F  
HETATM   23  O   UNL     1      -7.995  10.055  70.456  1.00  0.00    -0.224 OA 
HETATM   24  H   UNL     1      -9.380   7.697  70.171  1.00  0.00     0.000 HD 
BRANCH  14  25
HETATM   25  C   UNL     1     -10.618   6.513  68.229  1.00  0.00    -0.302 C  
BRANCH  25  26
HETATM   26  C   UNL     1     -10.948   6.207  69.671  1.00  0.00    -0.459 A  
HETATM   27  C   UNL     1     -12.035   6.822  70.307  1.00  0.00    -0.294 A  
HETATM   28  C   UNL     1     -12.259   6.623  71.669  1.00  0.00    -0.401 A  
HETATM   29  C   UNL     1     -11.417   5.785  72.398  1.00  0.00    -0.343 A  
HETATM   30  C   UNL     1     -10.372   5.120  71.760  1.00  0.00    -0.274 A  
HETATM   31  C   UNL     1     -10.140   5.325  70.401  1.00  0.00    -0.324 A  
ENDBRANCH  25  26
ENDBRANCH  14  25
ENDBRANCH   4   7
TORSDOF 3
ENDMDL
MODEL       48
REMARK 921   NORMALIZED FREE ENERGY PREDICTED BY IDOCK:   -5.79 KCAL/MOL
REMARK 922        TOTAL FREE ENERGY PREDICTED BY IDOCK:   -6.94 KCAL/MOL
REMARK 923 INTER-LIGAND FREE ENERGY PREDICTED BY IDOCK:   -8.81 KCAL/MOL
REMARK 924 INTRA-LIGAND FREE ENERGY PREDICTED BY IDOCK:    1.87 KCAL/MOL
REMARK 927      BINDING AFFINITY PREDICTED BY RF-SCORE:    0.00 PKD
ROOT
HETATM    1  N   UNL     1      -7.596  10.856  64.965  1.00  0.00    -0.346 N  
HETATM    2  H1  UNL     1      -7.131  10.745  65.866  1.00  0.00     0.000 HD 
HETATM    3  H2  UNL     1      -7.348  11.539  64.251  1.00  0.00     0.000 HD 
HETATM    4  S   UNL     1      -8.836   9.733  64.848  1.00  0.00    -0.214 S  
HETATM    5  O   UNL     1      -8.234   8.485  65.253  1.00  0.00    -0.131 OA 
HETATM    6  O   UNL     1      -9.492   9.889  63.577  1.00  0.00    -0.266 OA 
ENDROOT
BRANCH   4   7
HETATM    7  C   UNL     1      -9.940  10.279  66.130  1.00  0.00    -0.238 A  
HETATM    8  C   UNL     1      -9.917   9.545  67.320  1.00  0.00    -0.244 A  
HETATM    9  C   UNL     1     -10.686   9.954  68.408  1.00  0.00    -0.232 A  
HETATM   10  C   UNL     1     -11.503  11.077  68.366  1.00  0.00    -0.308 A  
HETATM   11  C   UNL     1     -11.511  11.806  67.164  1.00  0.00    -0.366 A  
HETATM   12  N   UNL     1     -12.165  11.581  69.489  1.00  0.00    -0.263 NA 
HETATM   13  H   UNL     1     -12.431  12.564  69.544  1.00  0.00     0.000 HD 
HETATM   14  C   UNL     1     -12.466  10.660  70.580  1.00  0.00    -0.371 C  
HETATM   15  C   UNL     1     -10.753  11.416  66.017  1.00  0.00    -0.318 A  
HETATM   16  N   UNL     1     -11.224  10.053  71.044  1.00  0.00    -0.346 N  
HETATM   17  O   UNL     1     -11.476   7.909  69.781  1.00  0.00     0.015 OA 
HETATM   18  C   UNL     1     -10.900  12.280  64.784  1.00  0.00    -0.304 C  
HETATM   19  F   UNL     1     -10.130  11.976  63.711  1.00  0.00    -0.309 F  
HETATM   20  F   UNL     1     -12.185  12.273  64.323  1.00  0.00    -0.437 F  
HETATM   21  S   UNL     1     -10.569   9.030  69.890  1.00  0.00    -0.232 S  
HETATM   22  F   UNL     1     -10.626  13.590  65.053  1.00  0.00    -0.299 F  
HETATM   23  O   UNL     1      -9.177   8.848  70.227  1.00  0.00    -0.161 OA 
HETATM   24  H   UNL     1     -10.805  10.229  71.958  1.00  0.00     0.000 HD 
BRANCH  14  25
HETATM   25  C   UNL     1     -13.105  11.405  71.779  1.00  0.00    -0.523 C  
BRANCH  25  26
HETATM   26  C   UNL     1     -13.156  12.904  71.602  1.00  0.00    -0.430 A  
HETATM   27  C   UNL     1     -12.179  13.574  70.853  1.00  0.00    -0.387 A  
HETATM   28  C   UNL     1     -12.168  14.967  70.795  1.00  0.00    -0.386 A  
HETATM   29  C   UNL     1     -13.151  15.699  71.458  1.00  0.00    -0.561 A  
HETATM   30  C   UNL     1     -14.163  15.040  72.152  1.00  0.00    -0.636 A  
HETATM   31  C   UNL     1     -14.169  13.648  72.221  1.00  0.00    -0.521 A  
ENDBRANCH  25  26
ENDBRANCH  14  25
ENDBRANCH   4   7
TORSDOF 3
ENDMDL
MODEL       49
REMARK 921   NORMALIZED FREE ENERGY PREDICTED BY IDOCK:   -5.78 KCAL/MOL
REMARK 922        TOTAL FREE ENERGY PREDICTED BY IDOCK:   -6.93 KCAL/MOL
REMARK 923 INTER-LIGAND FREE ENERGY PREDICTED BY IDOCK:   -6.71 KCAL/MOL
REMARK 924 INTRA-LIGAND FREE ENERGY PREDICTED BY IDOCK:   -0.23 KCAL/MOL
REMARK 927      BINDING AFFINITY PREDICTED BY RF-SCORE:    0.00 PKD
ROOT
HETATM    1  N   UNL     1     -11.380   6.738  67.033  1.00  0.00    -0.778 N  
HETATM    2  H1  UNL     1     -11.640   7.254  66.192  1.00  0.00     0.000 HD 
HETATM    3  H2  UNL     1     -12.032   6.311  67.691  1.00  0.00     0.000 HD 
HETATM    4  S   UNL     1      -9.709   6.706  67.159  1.00  0.00    -0.150 S  
HETATM    5  O   UNL     1      -9.253   6.314  65.847  1.00  0.00    -0.127 OA 
HETATM    6  O   UNL     1      -9.342   5.979  68.346  1.00  0.00    -0.120 OA 
ENDROOT
BRANCH   4   7
HETATM    7  C   UNL     1      -9.332   8.426  67.406  1.00  0.00    -0.148 A  
HETATM    8  C   UNL     1     -10.426   9.283  67.556  1.00  0.00    -0.338 A  
HETATM    9  C   UNL     1     -10.223  10.632  67.839  1.00  0.00    -0.177 A  
HETATM   10  C   UNL     1      -8.956  11.185  67.975  1.00  0.00    -0.149 A  
HETATM   11  C   UNL     1      -7.867  10.309  67.826  1.00  0.00    -0.101 A  
HETATM   12  N   UNL     1      -8.738  12.499  68.401  1.00  0.00    -0.296 NA 
HETATM   13  H   UNL     1      -7.862  12.766  68.849  1.00  0.00     0.000 HD 
HETATM   14  C   UNL     1      -9.800  13.476  68.184  1.00  0.00    -0.237 C  
HETATM   15  C   UNL     1      -8.025   8.923  67.519  1.00  0.00    -0.101 A  
HETATM   16  N   UNL     1     -11.018  13.005  68.833  1.00  0.00    -0.296 N  
HETATM   17  O   UNL     1     -12.087  12.076  66.772  1.00  0.00    -0.613 OA 
HETATM   18  C   UNL     1      -6.755   8.119  67.348  1.00  0.00    -0.066 C  
HETATM   19  F   UNL     1      -6.881   6.786  67.135  1.00  0.00    -0.058 F  
HETATM   20  F   UNL     1      -6.010   8.585  66.304  1.00  0.00    -0.042 F  
HETATM   21  S   UNL     1     -11.633  11.643  68.075  1.00  0.00    -0.294 S  
HETATM   22  F   UNL     1      -5.943   8.225  68.440  1.00  0.00    -0.037 F  
HETATM   23  O   UNL     1     -12.524  11.003  69.014  1.00  0.00    -0.449 OA 
HETATM   24  H   UNL     1     -11.443  13.450  69.647  1.00  0.00     0.000 HD 
BRANCH  14  25
HETATM   25  C   UNL     1      -9.432  14.847  68.806  1.00  0.00    -0.214 C  
BRANCH  25  26
HETATM   26  C   UNL     1      -9.816  16.025  67.943  1.00  0.00    -0.226 A  
HETATM   27  C   UNL     1      -9.950  15.886  66.554  1.00  0.00    -0.286 A  
HETATM   28  C   UNL     1     -10.188  17.004  65.755  1.00  0.00    -0.262 A  
HETATM   29  C   UNL     1     -10.325  18.262  66.339  1.00  0.00    -0.418 A  
HETATM   30  C   UNL     1     -10.256  18.400  67.723  1.00  0.00    -0.407 A  
HETATM   31  C   UNL     1     -10.008  17.286  68.524  1.00  0.00    -0.320 A  
ENDBRANCH  25  26
ENDBRANCH  14  25
ENDBRANCH   4   7
TORSDOF 3
ENDMDL
MODEL       50
REMARK 921   NORMALIZED FREE ENERGY PREDICTED BY IDOCK:   -5.78 KCAL/MOL
REMARK 922        TOTAL FREE ENERGY PREDICTED BY IDOCK:   -6.93 KCAL/MOL
REMARK 923 INTER-LIGAND FREE ENERGY PREDICTED BY IDOCK:   -6.70 KCAL/MOL
REMARK 924 INTRA-LIGAND FREE ENERGY PREDICTED BY IDOCK:   -0.23 KCAL/MOL
REMARK 927      BINDING AFFINITY PREDICTED BY RF-SCORE:    0.00 PKD
ROOT
HETATM    1  N   UNL     1      -5.909   9.979  70.136  1.00  0.00    -0.048 N  
HETATM    2  H1  UNL     1      -5.967  10.730  70.824  1.00  0.00     0.000 HD 
HETATM    3  H2  UNL     1      -5.059   9.673  69.663  1.00  0.00     0.000 HD 
HETATM    4  S   UNL     1      -7.437   9.328  69.908  1.00  0.00    -0.099 S  
HETATM    5  O   UNL     1      -7.941   9.109  71.243  1.00  0.00    -0.280 OA 
HETATM    6  O   UNL     1      -7.356   8.268  68.937  1.00  0.00    -0.085 OA 
ENDROOT
BRANCH   4   7
HETATM    7  C   UNL     1      -8.309  10.698  69.185  1.00  0.00    -0.135 A  
HETATM    8  C   UNL     1      -7.560  11.853  68.950  1.00  0.00    -0.036 A  
HETATM    9  C   UNL     1      -8.140  12.945  68.307  1.00  0.00    -0.151 A  
HETATM   10  C   UNL     1      -9.464  12.946  67.885  1.00  0.00    -0.208 A  
HETATM   11  C   UNL     1     -10.203  11.774  68.125  1.00  0.00    -0.210 A  
HETATM   12  N   UNL     1     -10.018  13.971  67.114  1.00  0.00    -0.248 NA 
HETATM   13  H   UNL     1     -10.823  13.798  66.511  1.00  0.00     0.000 HD 
HETATM   14  C   UNL     1      -9.413  15.296  67.195  1.00  0.00    -0.214 C  
HETATM   15  C   UNL     1      -9.655  10.637  68.795  1.00  0.00    -0.190 A  
HETATM   16  N   UNL     1      -8.003  15.196  66.837  1.00  0.00    -0.305 N  
HETATM   17  O   UNL     1      -7.126  15.159  69.179  1.00  0.00    -0.128 OA 
HETATM   18  C   UNL     1     -10.590   9.468  69.016  1.00  0.00    -0.219 C  
HETATM   19  F   UNL     1     -10.071   8.349  69.578  1.00  0.00    -0.182 F  
HETATM   20  F   UNL     1     -11.643   9.818  69.809  1.00  0.00    -0.241 F  
HETATM   21  S   UNL     1      -7.134  14.341  67.987  1.00  0.00    -0.160 S  
HETATM   22  F   UNL     1     -11.150   9.045  67.845  1.00  0.00    -0.222 F  
HETATM   23  O   UNL     1      -5.909  13.908  67.356  1.00  0.00    -0.351 OA 
HETATM   24  H   UNL     1      -7.595  15.597  65.992  1.00  0.00     0.000 HD 
BRANCH  14  25
HETATM   25  C   UNL     1     -10.084  16.279  66.202  1.00  0.00    -0.362 C  
BRANCH  25  26
HETATM   26  C   UNL     1     -10.152  17.700  66.711  1.00  0.00    -0.334 A  
HETATM   27  C   UNL     1     -10.460  18.760  65.848  1.00  0.00    -0.424 A  
HETATM   28  C   UNL     1     -10.402  20.077  66.302  1.00  0.00    -0.570 A  
HETATM   29  C   UNL     1     -10.068  20.343  67.628  1.00  0.00    -0.476 A  
HETATM   30  C   UNL     1      -9.822  19.292  68.509  1.00  0.00    -0.498 A  
HETATM   31  C   UNL     1      -9.868  17.975  68.055  1.00  0.00    -0.324 A  
ENDBRANCH  25  26
ENDBRANCH  14  25
ENDBRANCH   4   7
TORSDOF 3
ENDMDL
MODEL       51
REMARK 921   NORMALIZED FREE ENERGY PREDICTED BY IDOCK:   -5.73 KCAL/MOL
REMARK 922        TOTAL FREE ENERGY PREDICTED BY IDOCK:   -6.87 KCAL/MOL
REMARK 923 INTER-LIGAND FREE ENERGY PREDICTED BY IDOCK:   -6.79 KCAL/MOL
REMARK 924 INTRA-LIGAND FREE ENERGY PREDICTED BY IDOCK:   -0.09 KCAL/MOL
REMARK 927      BINDING AFFINITY PREDICTED BY RF-SCORE:    0.00 PKD
ROOT
HETATM    1  N   UNL     1     -10.746  19.062  67.299  1.00  0.00    -0.472 N  
HETATM    2  H1  UNL     1     -11.106  18.672  68.170  1.00  0.00     0.000 HD 
HETATM    3  H2  UNL     1     -11.308  19.504  66.571  1.00  0.00     0.000 HD 
HETATM    4  S   UNL     1      -9.082  18.860  67.256  1.00  0.00    -0.284 S  
HETATM    5  O   UNL     1      -8.628  19.318  68.547  1.00  0.00    -0.345 OA 
HETATM    6  O   UNL     1      -8.575  19.410  66.026  1.00  0.00    -0.411 OA 
ENDROOT
BRANCH   4   7
HETATM    7  C   UNL     1      -8.935  17.090  67.191  1.00  0.00    -0.222 A  
HETATM    8  C   UNL     1     -10.129  16.374  67.076  1.00  0.00    -0.272 A  
HETATM    9  C   UNL     1     -10.103  14.988  66.932  1.00  0.00    -0.249 A  
HETATM   10  C   UNL     1      -8.918  14.262  66.906  1.00  0.00    -0.236 A  
HETATM   11  C   UNL     1      -7.725  14.998  67.019  1.00  0.00    -0.120 A  
HETATM   12  N   UNL     1      -8.867  12.896  66.618  1.00  0.00    -0.401 NA 
HETATM   13  H   UNL     1      -8.022  12.471  66.237  1.00  0.00     0.000 HD 
HETATM   14  C   UNL     1     -10.057  12.093  66.880  1.00  0.00    -0.206 C  
HETATM   15  C   UNL     1      -7.704  16.417  67.185  1.00  0.00    -0.220 A  
HETATM   16  N   UNL     1     -11.180  12.652  66.136  1.00  0.00    -0.295 N  
HETATM   17  O   UNL     1     -12.177  13.918  68.049  1.00  0.00    -0.326 OA 
HETATM   18  C   UNL     1      -6.343  17.060  67.334  1.00  0.00    -0.152 C  
HETATM   19  F   UNL     1      -6.294  18.412  67.413  1.00  0.00    -0.173 F  
HETATM   20  F   UNL     1      -5.700  16.607  68.450  1.00  0.00    -0.113 F  
HETATM   21  S   UNL     1     -11.628  14.153  66.732  1.00  0.00    -0.410 S  
HETATM   22  F   UNL     1      -5.519  16.739  66.294  1.00  0.00    -0.136 F  
HETATM   23  O   UNL     1     -12.395  14.808  65.698  1.00  0.00    -0.186 OA 
HETATM   24  H   UNL     1     -11.636  12.188  65.350  1.00  0.00     0.000 HD 
BRANCH  14  25
HETATM   25  C   UNL     1      -9.859  10.630  66.409  1.00  0.00    -0.259 C  
BRANCH  25  26
HETATM   26  C   UNL     1      -9.083  10.511  65.119  1.00  0.00    -0.227 A  
HETATM   27  C   UNL     1      -9.710  10.702  63.880  1.00  0.00    -0.378 A  
HETATM   28  C   UNL     1      -9.012  10.473  62.695  1.00  0.00    -0.291 A  
HETATM   29  C   UNL     1      -7.676  10.081  62.738  1.00  0.00    -0.137 A  
HETATM   30  C   UNL     1      -7.026   9.950  63.963  1.00  0.00    -0.125 A  
HETATM   31  C   UNL     1      -7.725  10.168  65.150  1.00  0.00    -0.141 A  
ENDBRANCH  25  26
ENDBRANCH  14  25
ENDBRANCH   4   7
TORSDOF 3
ENDMDL
MODEL       52
REMARK 921   NORMALIZED FREE ENERGY PREDICTED BY IDOCK:   -5.72 KCAL/MOL
REMARK 922        TOTAL FREE ENERGY PREDICTED BY IDOCK:   -6.86 KCAL/MOL
REMARK 923 INTER-LIGAND FREE ENERGY PREDICTED BY IDOCK:   -7.47 KCAL/MOL
REMARK 924 INTRA-LIGAND FREE ENERGY PREDICTED BY IDOCK:    0.61 KCAL/MOL
REMARK 927      BINDING AFFINITY PREDICTED BY RF-SCORE:    0.00 PKD
ROOT
HETATM    1  N   UNL     1     -12.509  14.338  67.524  1.00  0.00    -0.524 N  
HETATM    2  H1  UNL     1     -13.376  13.814  67.641  1.00  0.00     0.000 HD 
HETATM    3  H2  UNL     1     -12.275  14.926  66.724  1.00  0.00     0.000 HD 
HETATM    4  S   UNL     1     -11.529  14.075  68.858  1.00  0.00    -0.317 S  
HETATM    5  O   UNL     1     -12.398  14.275  69.992  1.00  0.00    -0.331 OA 
HETATM    6  O   UNL     1     -10.304  14.813  68.693  1.00  0.00    -0.231 OA 
ENDROOT
BRANCH   4   7
HETATM    7  C   UNL     1     -11.172  12.340  68.708  1.00  0.00    -0.265 A  
HETATM    8  C   UNL     1     -11.540  11.537  69.791  1.00  0.00    -0.401 A  
HETATM    9  C   UNL     1     -11.377  10.155  69.724  1.00  0.00    -0.256 A  
HETATM   10  C   UNL     1     -10.844   9.519  68.609  1.00  0.00    -0.139 A  
HETATM   11  C   UNL     1     -10.482  10.340  67.528  1.00  0.00    -0.293 A  
HETATM   12  N   UNL     1     -10.808   8.128  68.470  1.00  0.00    -0.425 NA 
HETATM   13  H   UNL     1     -10.779   7.695  67.547  1.00  0.00     0.000 HD 
HETATM   14  C   UNL     1     -10.812   7.315  69.681  1.00  0.00    -0.222 C  
HETATM   15  C   UNL     1     -10.615  11.762  67.557  1.00  0.00    -0.247 A  
HETATM   16  N   UNL     1     -11.995   7.642  70.468  1.00  0.00    -0.502 N  
HETATM   17  O   UNL     1     -10.847   9.187  72.064  1.00  0.00    -0.352 OA 
HETATM   18  C   UNL     1     -10.143  12.511  66.331  1.00  0.00    -0.243 C  
HETATM   19  F   UNL     1     -10.333  13.853  66.304  1.00  0.00    -0.271 F  
HETATM   20  F   UNL     1      -8.806  12.329  66.123  1.00  0.00    -0.180 F  
HETATM   21  S   UNL     1     -11.913   9.197  71.088  1.00  0.00    -0.307 S  
HETATM   22  F   UNL     1     -10.746  12.049  65.197  1.00  0.00    -0.288 F  
HETATM   23  O   UNL     1     -13.259   9.584  71.439  1.00  0.00    -0.360 OA 
HETATM   24  H   UNL     1     -12.777   7.004  70.622  1.00  0.00     0.000 HD 
BRANCH  14  25
HETATM   25  C   UNL     1     -10.874   5.804  69.339  1.00  0.00    -0.393 C  
BRANCH  25  26
HETATM   26  C   UNL     1     -10.100   5.434  68.097  1.00  0.00    -0.220 A  
HETATM   27  C   UNL     1     -10.759   5.180  66.886  1.00  0.00    -0.148 A  
HETATM   28  C   UNL     1     -10.046   4.724  65.778  1.00  0.00    -0.236 A  
HETATM   29  C   UNL     1      -8.667   4.548  65.862  1.00  0.00    -0.119 A  
HETATM   30  C   UNL     1      -7.994   4.859  67.041  1.00  0.00    -0.103 A  
HETATM   31  C   UNL     1      -8.706   5.305  68.154  1.00  0.00    -0.102 A  
ENDBRANCH  25  26
ENDBRANCH  14  25
ENDBRANCH   4   7
TORSDOF 3
ENDMDL
MODEL       53
REMARK 921   NORMALIZED FREE ENERGY PREDICTED BY IDOCK:   -5.67 KCAL/MOL
REMARK 922        TOTAL FREE ENERGY PREDICTED BY IDOCK:   -6.81 KCAL/MOL
REMARK 923 INTER-LIGAND FREE ENERGY PREDICTED BY IDOCK:   -6.55 KCAL/MOL
REMARK 924 INTRA-LIGAND FREE ENERGY PREDICTED BY IDOCK:   -0.25 KCAL/MOL
REMARK 927      BINDING AFFINITY PREDICTED BY RF-SCORE:    0.00 PKD
ROOT
HETATM    1  N   UNL     1      -8.097   5.093  69.439  1.00  0.00    -0.086 N  
HETATM    2  H1  UNL     1      -7.350   5.714  69.129  1.00  0.00     0.000 HD 
HETATM    3  H2  UNL     1      -8.502   4.334  68.892  1.00  0.00     0.000 HD 
HETATM    4  S   UNL     1      -8.551   5.522  70.995  1.00  0.00    -0.126 S  
HETATM    5  O   UNL     1      -7.307   5.646  71.715  1.00  0.00    -0.087 OA 
HETATM    6  O   UNL     1      -9.606   4.646  71.434  1.00  0.00    -0.148 OA 
ENDROOT
BRANCH   4   7
HETATM    7  C   UNL     1      -9.229   7.145  70.739  1.00  0.00    -0.157 A  
HETATM    8  C   UNL     1      -9.300   7.583  69.414  1.00  0.00    -0.152 A  
HETATM    9  C   UNL     1      -9.896   8.807  69.113  1.00  0.00    -0.181 A  
HETATM   10  C   UNL     1     -10.430   9.638  70.090  1.00  0.00    -0.273 A  
HETATM   11  C   UNL     1     -10.354   9.181  71.417  1.00  0.00    -0.409 A  
HETATM   12  N   UNL     1     -11.156  10.795  69.793  1.00  0.00    -0.277 NA 
HETATM   13  H   UNL     1     -11.839  11.169  70.453  1.00  0.00     0.000 HD 
HETATM   14  C   UNL     1     -10.911  11.452  68.514  1.00  0.00    -0.221 C  
HETATM   15  C   UNL     1      -9.738   7.942  71.775  1.00  0.00    -0.219 A  
HETATM   16  N   UNL     1     -11.153  10.498  67.437  1.00  0.00    -0.293 N  
HETATM   17  O   UNL     1      -8.755   9.894  67.061  1.00  0.00    -0.130 OA 
HETATM   18  C   UNL     1      -9.698   7.609  73.250  1.00  0.00    -0.288 C  
HETATM   19  F   UNL     1      -9.190   6.404  73.606  1.00  0.00    -0.126 F  
HETATM   20  F   UNL     1      -8.972   8.530  73.948  1.00  0.00    -0.256 F  
HETATM   21  S   UNL     1     -10.008   9.274  67.430  1.00  0.00    -0.215 S  
HETATM   22  F   UNL     1     -10.944   7.643  73.806  1.00  0.00    -0.370 F  
HETATM   23  O   UNL     1     -10.565   8.179  66.670  1.00  0.00    -0.272 OA 
HETATM   24  H   UNL     1     -11.923  10.568  66.771  1.00  0.00     0.000 HD 
BRANCH  14  25
HETATM   25  C   UNL     1     -11.872  12.651  68.308  1.00  0.00    -0.354 C  
BRANCH  25  26
HETATM   26  C   UNL     1     -11.775  13.695  69.395  1.00  0.00    -0.379 A  
HETATM   27  C   UNL     1     -10.684  14.573  69.455  1.00  0.00    -0.168 A  
HETATM   28  C   UNL     1     -10.546  15.452  70.529  1.00  0.00    -0.229 A  
HETATM   29  C   UNL     1     -11.512  15.481  71.533  1.00  0.00    -0.489 A  
HETATM   30  C   UNL     1     -12.632  14.658  71.449  1.00  0.00    -0.404 A  
HETATM   31  C   UNL     1     -12.766  13.770  70.382  1.00  0.00    -0.245 A  
ENDBRANCH  25  26
ENDBRANCH  14  25
ENDBRANCH   4   7
TORSDOF 3
ENDMDL
MODEL       54
REMARK 921   NORMALIZED FREE ENERGY PREDICTED BY IDOCK:   -5.63 KCAL/MOL
REMARK 922        TOTAL FREE ENERGY PREDICTED BY IDOCK:   -6.75 KCAL/MOL
REMARK 923 INTER-LIGAND FREE ENERGY PREDICTED BY IDOCK:   -6.74 KCAL/MOL
REMARK 924 INTRA-LIGAND FREE ENERGY PREDICTED BY IDOCK:   -0.02 KCAL/MOL
REMARK 927      BINDING AFFINITY PREDICTED BY RF-SCORE:    0.00 PKD
ROOT
HETATM    1  N   UNL     1      -9.738  10.072  65.146  1.00  0.00    -0.296 N  
HETATM    2  H1  UNL     1     -10.534   9.436  65.102  1.00  0.00     0.000 HD 
HETATM    3  H2  UNL     1      -8.804   9.880  64.783  1.00  0.00     0.000 HD 
HETATM    4  S   UNL     1     -10.212  11.487  65.909  1.00  0.00    -0.254 S  
HETATM    5  O   UNL     1     -11.451  11.850  65.264  1.00  0.00    -0.321 OA 
HETATM    6  O   UNL     1      -9.089  12.386  65.971  1.00  0.00    -0.119 OA 
ENDROOT
BRANCH   4   7
HETATM    7  C   UNL     1     -10.570  10.909  67.552  1.00  0.00    -0.230 A  
HETATM    8  C   UNL     1     -10.336   9.553  67.794  1.00  0.00    -0.291 A  
HETATM    9  C   UNL     1     -10.506   9.033  69.076  1.00  0.00    -0.218 A  
HETATM   10  C   UNL     1     -10.916   9.812  70.151  1.00  0.00    -0.291 A  
HETATM   11  C   UNL     1     -11.143  11.175  69.890  1.00  0.00    -0.234 A  
HETATM   12  N   UNL     1     -10.952   9.340  71.465  1.00  0.00    -0.360 NA 
HETATM   13  H   UNL     1     -10.881   9.981  72.255  1.00  0.00     0.000 HD 
HETATM   14  C   UNL     1     -11.095   7.903  71.677  1.00  0.00    -0.244 C  
HETATM   15  C   UNL     1     -10.998  11.749  68.590  1.00  0.00    -0.269 A  
HETATM   16  N   UNL     1     -10.005   7.213  70.996  1.00  0.00    -0.188 N  
HETATM   17  O   UNL     1     -11.310   6.576  68.960  1.00  0.00    -0.302 OA 
HETATM   18  C   UNL     1     -11.319  13.222  68.462  1.00  0.00    -0.284 C  
HETATM   19  F   UNL     1     -11.112  13.806  67.257  1.00  0.00    -0.283 F  
HETATM   20  F   UNL     1     -12.626  13.473  68.768  1.00  0.00    -0.240 F  
HETATM   21  S   UNL     1     -10.140   7.340  69.331  1.00  0.00    -0.187 S  
HETATM   22  F   UNL     1     -10.597  13.972  69.344  1.00  0.00    -0.226 F  
HETATM   23  O   UNL     1      -8.838   7.048  68.778  1.00  0.00    -0.130 OA 
HETATM   24  H   UNL     1      -9.254   6.715  71.475  1.00  0.00     0.000 HD 
BRANCH  14  25
HETATM   25  C   UNL     1     -11.012   7.549  73.183  1.00  0.00    -0.420 C  
BRANCH  25  26
HETATM   26  C   UNL     1     -10.568   6.130  73.446  1.00  0.00    -0.288 A  
HETATM   27  C   UNL     1      -9.312   5.861  74.009  1.00  0.00    -0.135 A  
HETATM   28  C   UNL     1      -8.865   4.547  74.137  1.00  0.00    -0.106 A  
HETATM   29  C   UNL     1      -9.679   3.491  73.733  1.00  0.00    -0.141 A  
HETATM   30  C   UNL     1     -10.954   3.745  73.231  1.00  0.00    -0.282 A  
HETATM   31  C   UNL     1     -11.399   5.059  73.092  1.00  0.00    -0.397 A  
ENDBRANCH  25  26
ENDBRANCH  14  25
ENDBRANCH   4   7
TORSDOF 3
ENDMDL
MODEL       55
REMARK 921   NORMALIZED FREE ENERGY PREDICTED BY IDOCK:   -5.62 KCAL/MOL
REMARK 922        TOTAL FREE ENERGY PREDICTED BY IDOCK:   -6.74 KCAL/MOL
REMARK 923 INTER-LIGAND FREE ENERGY PREDICTED BY IDOCK:   -6.74 KCAL/MOL
REMARK 924 INTRA-LIGAND FREE ENERGY PREDICTED BY IDOCK:   -0.00 KCAL/MOL
REMARK 927      BINDING AFFINITY PREDICTED BY RF-SCORE:    0.00 PKD
ROOT
HETATM    1  N   UNL     1      -8.563   5.890  65.094  1.00  0.00    -0.264 N  
HETATM    2  H1  UNL     1      -7.759   6.512  65.180  1.00  0.00     0.000 HD 
HETATM    3  H2  UNL     1      -8.931   5.515  64.220  1.00  0.00     0.000 HD 
HETATM    4  S   UNL     1      -9.182   5.584  66.622  1.00  0.00    -0.140 S  
HETATM    5  O   UNL     1      -8.028   5.242  67.419  1.00  0.00    -0.099 OA 
HETATM    6  O   UNL     1     -10.316   4.707  66.501  1.00  0.00    -0.252 OA 
ENDROOT
BRANCH   4   7
HETATM    7  C   UNL     1      -9.757   7.195  67.108  1.00  0.00    -0.164 A  
HETATM    8  C   UNL     1      -9.558   8.226  66.186  1.00  0.00    -0.217 A  
HETATM    9  C   UNL     1     -10.054   9.502  66.447  1.00  0.00    -0.258 A  
HETATM   10  C   UNL     1     -10.746   9.811  67.612  1.00  0.00    -0.274 A  
HETATM   11  C   UNL     1     -10.941   8.761  68.526  1.00  0.00     0.096 A  
HETATM   12  N   UNL     1     -11.372  11.042  67.822  1.00  0.00    -0.407 NA 
HETATM   13  H   UNL     1     -12.160  11.127  68.465  1.00  0.00     0.000 HD 
HETATM   14  C   UNL     1     -10.868  12.204  67.098  1.00  0.00    -0.244 C  
HETATM   15  C   UNL     1     -10.436   7.442  68.309  1.00  0.00    -0.231 A  
HETATM   16  N   UNL     1     -10.920  11.929  65.667  1.00  0.00    -0.297 N  
HETATM   17  O   UNL     1      -8.511  11.305  65.417  1.00  0.00    -0.039 OA 
HETATM   18  C   UNL     1     -10.692   6.432  69.406  1.00  0.00    -0.289 C  
HETATM   19  F   UNL     1     -10.292   5.156  69.188  1.00  0.00    -0.268 F  
HETATM   20  F   UNL     1     -10.092   6.806  70.574  1.00  0.00    -0.184 F  
HETATM   21  S   UNL     1      -9.826  10.737  65.228  1.00  0.00    -0.295 S  
HETATM   22  F   UNL     1     -12.020   6.339  69.703  1.00  0.00    -0.468 F  
HETATM   23  O   UNL     1     -10.252  10.223  63.947  1.00  0.00    -0.145 OA 
HETATM   24  H   UNL     1     -11.544  12.404  65.013  1.00  0.00     0.000 HD 
BRANCH  14  25
HETATM   25  C   UNL     1     -11.740  13.455  67.371  1.00  0.00    -0.415 C  
BRANCH  25  26
HETATM   26  C   UNL     1     -10.983  14.757  67.253  1.00  0.00    -0.318 A  
HETATM   27  C   UNL     1     -10.202  15.036  66.123  1.00  0.00    -0.311 A  
HETATM   28  C   UNL     1      -9.414  16.186  66.078  1.00  0.00    -0.374 A  
HETATM   29  C   UNL     1      -9.424  17.079  67.147  1.00  0.00    -0.245 A  
HETATM   30  C   UNL     1     -10.246  16.842  68.247  1.00  0.00    -0.318 A  
HETATM   31  C   UNL     1     -11.026  15.688  68.299  1.00  0.00    -0.315 A  
ENDBRANCH  25  26
ENDBRANCH  14  25
ENDBRANCH   4   7
TORSDOF 3
ENDMDL
MODEL       56
REMARK 921   NORMALIZED FREE ENERGY PREDICTED BY IDOCK:   -5.55 KCAL/MOL
REMARK 922        TOTAL FREE ENERGY PREDICTED BY IDOCK:   -6.66 KCAL/MOL
REMARK 923 INTER-LIGAND FREE ENERGY PREDICTED BY IDOCK:   -7.38 KCAL/MOL
REMARK 924 INTRA-LIGAND FREE ENERGY PREDICTED BY IDOCK:    0.72 KCAL/MOL
REMARK 927      BINDING AFFINITY PREDICTED BY RF-SCORE:    0.00 PKD
ROOT
HETATM    1  N   UNL     1      -8.852  20.212  67.236  1.00  0.00    -0.342 N  
HETATM    2  H1  UNL     1      -9.812  20.085  66.916  1.00  0.00     0.000 HD 
HETATM    3  H2  UNL     1      -8.113  20.686  66.718  1.00  0.00     0.000 HD 
HETATM    4  S   UNL     1      -8.685  19.514  68.752  1.00  0.00    -0.221 S  
HETATM    5  O   UNL     1      -9.815  20.005  69.503  1.00  0.00    -0.195 OA 
HETATM    6  O   UNL     1      -7.330  19.693  69.203  1.00  0.00    -0.358 OA 
ENDROOT
BRANCH   4   7
HETATM    7  C   UNL     1      -8.942  17.793  68.387  1.00  0.00    -0.281 A  
HETATM    8  C   UNL     1     -10.026  17.182  69.023  1.00  0.00    -0.273 A  
HETATM    9  C   UNL     1     -10.354  15.860  68.730  1.00  0.00    -0.228 A  
HETATM   10  C   UNL     1      -9.632  15.095  67.821  1.00  0.00    -0.203 A  
HETATM   11  C   UNL     1      -8.548  15.726  67.188  1.00  0.00    -0.226 A  
HETATM   12  N   UNL     1     -10.033  13.821  67.410  1.00  0.00    -0.234 NA 
HETATM   13  H   UNL     1      -9.738  13.444  66.509  1.00  0.00     0.000 HD 
HETATM   14  C   UNL     1     -10.884  13.045  68.306  1.00  0.00    -0.246 C  
HETATM   15  C   UNL     1      -8.165  17.074  67.468  1.00  0.00    -0.192 A  
HETATM   16  N   UNL     1     -12.092  13.808  68.592  1.00  0.00    -0.414 N  
HETATM   17  O   UNL     1     -11.345  14.686  70.812  1.00  0.00    -0.224 OA 
HETATM   18  C   UNL     1      -6.949  17.597  66.736  1.00  0.00    -0.199 C  
HETATM   19  F   UNL     1      -6.614  18.897  66.926  1.00  0.00    -0.185 F  
HETATM   20  F   UNL     1      -5.831  16.884  67.057  1.00  0.00    -0.142 F  
HETATM   21  S   UNL     1     -11.758  15.168  69.513  1.00  0.00    -0.348 S  
HETATM   22  F   UNL     1      -7.081  17.463  65.384  1.00  0.00    -0.121 F  
HETATM   23  O   UNL     1     -12.878  16.068  69.360  1.00  0.00     0.195 OA 
HETATM   24  H   UNL     1     -13.025  13.548  68.272  1.00  0.00     0.000 HD 
BRANCH  14  25
HETATM   25  C   UNL     1     -11.313  11.708  67.650  1.00  0.00    -0.362 C  
BRANCH  25  26
HETATM   26  C   UNL     1     -11.316  11.750  66.140  1.00  0.00    -0.342 A  
HETATM   27  C   UNL     1     -10.380  11.017  65.397  1.00  0.00    -0.330 A  
HETATM   28  C   UNL     1     -10.316  11.156  64.011  1.00  0.00    -0.437 A  
HETATM   29  C   UNL     1     -11.206  12.003  63.355  1.00  0.00    -0.481 A  
HETATM   30  C   UNL     1     -12.182  12.686  64.078  1.00  0.00    -0.544 A  
HETATM   31  C   UNL     1     -12.240  12.558  65.465  1.00  0.00    -0.442 A  
ENDBRANCH  25  26
ENDBRANCH  14  25
ENDBRANCH   4   7
TORSDOF 3
ENDMDL
MODEL       57
REMARK 921   NORMALIZED FREE ENERGY PREDICTED BY IDOCK:   -5.54 KCAL/MOL
REMARK 922        TOTAL FREE ENERGY PREDICTED BY IDOCK:   -6.65 KCAL/MOL
REMARK 923 INTER-LIGAND FREE ENERGY PREDICTED BY IDOCK:   -6.46 KCAL/MOL
REMARK 924 INTRA-LIGAND FREE ENERGY PREDICTED BY IDOCK:   -0.20 KCAL/MOL
REMARK 927      BINDING AFFINITY PREDICTED BY RF-SCORE:    0.00 PKD
ROOT
HETATM    1  N   UNL     1      -9.651   3.115  71.244  1.00  0.00    -0.153 N  
HETATM    2  H1  UNL     1      -8.721   3.274  70.856  1.00  0.00     0.000 HD 
HETATM    3  H2  UNL     1     -10.260   2.328  71.020  1.00  0.00     0.000 HD 
HETATM    4  S   UNL     1     -10.018   4.356  72.310  1.00  0.00    -0.182 S  
HETATM    5  O   UNL     1      -8.847   4.474  73.146  1.00  0.00    -0.110 OA 
HETATM    6  O   UNL     1     -11.330   4.132  72.857  1.00  0.00    -0.056 OA 
ENDROOT
BRANCH   4   7
HETATM    7  C   UNL     1     -10.087   5.759  71.220  1.00  0.00    -0.201 A  
HETATM    8  C   UNL     1      -9.860   5.502  69.866  1.00  0.00    -0.259 A  
HETATM    9  C   UNL     1      -9.980   6.527  68.929  1.00  0.00    -0.151 A  
HETATM   10  C   UNL     1     -10.314   7.828  69.285  1.00  0.00    -0.219 A  
HETATM   11  C   UNL     1     -10.544   8.069  70.651  1.00  0.00    -0.227 A  
HETATM   12  N   UNL     1     -10.579   8.830  68.348  1.00  0.00    -0.378 NA 
HETATM   13  H   UNL     1     -11.169   9.628  68.586  1.00  0.00     0.000 HD 
HETATM   14  C   UNL     1      -9.989   8.704  67.019  1.00  0.00    -0.249 C  
HETATM   15  C   UNL     1     -10.416   7.054  71.648  1.00  0.00    -0.219 A  
HETATM   16  N   UNL     1     -10.410   7.437  66.432  1.00  0.00    -0.474 N  
HETATM   17  O   UNL     1      -8.322   6.173  66.975  1.00  0.00    -0.106 OA 
HETATM   18  C   UNL     1     -10.654   7.479  73.080  1.00  0.00    -0.388 C  
HETATM   19  F   UNL     1     -10.617   6.517  74.034  1.00  0.00    -0.299 F  
HETATM   20  F   UNL     1      -9.747   8.419  73.476  1.00  0.00    -0.280 F  
HETATM   21  S   UNL     1      -9.742   6.130  67.241  1.00  0.00    -0.137 S  
HETATM   22  F   UNL     1     -11.873   8.075  73.230  1.00  0.00    -0.337 F  
HETATM   23  O   UNL     1     -10.541   4.974  66.909  1.00  0.00    -0.227 OA 
HETATM   24  H   UNL     1     -11.034   7.356  65.629  1.00  0.00     0.000 HD 
BRANCH  14  25
HETATM   25  C   UNL     1     -10.469   9.842  66.084  1.00  0.00    -0.144 C  
BRANCH  25  26
HETATM   26  C   UNL     1     -10.488  11.200  66.745  1.00  0.00    -0.297 A  
HETATM   27  C   UNL     1     -11.683  11.748  67.231  1.00  0.00    -0.293 A  
HETATM   28  C   UNL     1     -11.709  13.049  67.731  1.00  0.00    -0.405 A  
HETATM   29  C   UNL     1     -10.537  13.801  67.777  1.00  0.00    -0.250 A  
HETATM   30  C   UNL     1      -9.332  13.243  67.355  1.00  0.00    -0.217 A  
HETATM   31  C   UNL     1      -9.306  11.946  66.845  1.00  0.00    -0.198 A  
ENDBRANCH  25  26
ENDBRANCH  14  25
ENDBRANCH   4   7
TORSDOF 3
ENDMDL
MODEL       58
REMARK 921   NORMALIZED FREE ENERGY PREDICTED BY IDOCK:   -5.52 KCAL/MOL
REMARK 922        TOTAL FREE ENERGY PREDICTED BY IDOCK:   -6.62 KCAL/MOL
REMARK 923 INTER-LIGAND FREE ENERGY PREDICTED BY IDOCK:   -6.46 KCAL/MOL
REMARK 924 INTRA-LIGAND FREE ENERGY PREDICTED BY IDOCK:   -0.17 KCAL/MOL
REMARK 927      BINDING AFFINITY PREDICTED BY RF-SCORE:    0.00 PKD
ROOT
HETATM    1  N   UNL     1     -10.990  16.877  65.681  1.00  0.00    -0.077 N  
HETATM    2  H1  UNL     1     -11.760  16.614  66.296  1.00  0.00     0.000 HD 
HETATM    3  H2  UNL     1     -11.044  16.960  64.666  1.00  0.00     0.000 HD 
HETATM    4  S   UNL     1      -9.620  17.151  66.608  1.00  0.00    -0.279 S  
HETATM    5  O   UNL     1     -10.072  18.005  67.679  1.00  0.00    -0.315 OA 
HETATM    6  O   UNL     1      -8.533  17.522  65.740  1.00  0.00    -0.530 OA 
ENDROOT
BRANCH   4   7
HETATM    7  C   UNL     1      -9.297  15.531  67.264  1.00  0.00    -0.212 A  
HETATM    8  C   UNL     1     -10.223  14.536  66.937  1.00  0.00    -0.264 A  
HETATM    9  C   UNL     1     -10.004  13.219  67.336  1.00  0.00    -0.233 A  
HETATM   10  C   UNL     1      -8.887  12.836  68.069  1.00  0.00    -0.195 A  
HETATM   11  C   UNL     1      -7.964  13.848  68.386  1.00  0.00    -0.144 A  
HETATM   12  N   UNL     1      -8.581  11.502  68.351  1.00  0.00    -0.157 NA 
HETATM   13  H   UNL     1      -7.620  11.213  68.537  1.00  0.00     0.000 HD 
HETATM   14  C   UNL     1      -9.673  10.535  68.372  1.00  0.00    -0.159 C  
HETATM   15  C   UNL     1      -8.155  15.214  68.013  1.00  0.00    -0.138 A  
HETATM   16  N   UNL     1     -10.354  10.561  67.083  1.00  0.00    -0.222 N  
HETATM   17  O   UNL     1     -12.251  12.024  67.803  1.00  0.00    -0.474 OA 
HETATM   18  C   UNL     1      -7.092  16.192  68.464  1.00  0.00    -0.139 C  
HETATM   19  F   UNL     1      -7.211  17.479  68.054  1.00  0.00    -0.185 F  
HETATM   20  F   UNL     1      -7.017  16.250  69.825  1.00  0.00    -0.216 F  
HETATM   21  S   UNL     1     -11.168  12.007  66.845  1.00  0.00    -0.335 S  
HETATM   22  F   UNL     1      -5.849  15.807  68.055  1.00  0.00    -0.100 F  
HETATM   23  O   UNL     1     -11.409  12.128  65.426  1.00  0.00    -0.324 OA 
HETATM   24  H   UNL     1     -10.338   9.795  66.410  1.00  0.00     0.000 HD 
BRANCH  14  25
HETATM   25  C   UNL     1      -9.142   9.097  68.597  1.00  0.00    -0.136 C  
BRANCH  25  26
HETATM   26  C   UNL     1      -9.625   8.468  69.883  1.00  0.00    -0.171 A  
HETATM   27  C   UNL     1      -9.339   9.056  71.123  1.00  0.00    -0.336 A  
HETATM   28  C   UNL     1      -9.687   8.406  72.307  1.00  0.00    -0.386 A  
HETATM   29  C   UNL     1     -10.349   7.181  72.260  1.00  0.00    -0.226 A  
HETATM   30  C   UNL     1     -10.694   6.620  71.032  1.00  0.00    -0.278 A  
HETATM   31  C   UNL     1     -10.338   7.263  69.847  1.00  0.00    -0.226 A  
ENDBRANCH  25  26
ENDBRANCH  14  25
ENDBRANCH   4   7
TORSDOF 3
ENDMDL
MODEL       59
REMARK 921   NORMALIZED FREE ENERGY PREDICTED BY IDOCK:   -5.39 KCAL/MOL
REMARK 922        TOTAL FREE ENERGY PREDICTED BY IDOCK:   -6.47 KCAL/MOL
REMARK 923 INTER-LIGAND FREE ENERGY PREDICTED BY IDOCK:   -6.56 KCAL/MOL
REMARK 924 INTRA-LIGAND FREE ENERGY PREDICTED BY IDOCK:    0.08 KCAL/MOL
REMARK 927      BINDING AFFINITY PREDICTED BY RF-SCORE:    0.00 PKD
ROOT
HETATM    1  N   UNL     1     -11.082   8.969  68.747  1.00  0.00    -0.442 N  
HETATM    2  H1  UNL     1     -12.021   9.162  68.397  1.00  0.00     0.000 HD 
HETATM    3  H2  UNL     1     -10.814   8.927  69.730  1.00  0.00     0.000 HD 
HETATM    4  S   UNL     1     -10.052   8.733  67.447  1.00  0.00    -0.247 S  
HETATM    5  O   UNL     1     -10.755   7.809  66.589  1.00  0.00    -0.231 OA 
HETATM    6  O   UNL     1      -8.727   8.461  67.941  1.00  0.00    -0.136 OA 
ENDROOT
BRANCH   4   7
HETATM    7  C   UNL     1     -10.057  10.339  66.685  1.00  0.00    -0.223 A  
HETATM    8  C   UNL     1     -10.724  11.351  67.380  1.00  0.00    -0.274 A  
HETATM    9  C   UNL     1     -10.705  12.659  66.900  1.00  0.00    -0.242 A  
HETATM   10  C   UNL     1     -10.046  13.016  65.729  1.00  0.00    -0.287 A  
HETATM   11  C   UNL     1      -9.377  11.987  65.044  1.00  0.00     0.135 A  
HETATM   12  N   UNL     1      -9.896  14.341  65.313  1.00  0.00    -0.566 NA 
HETATM   13  H   UNL     1      -9.126  14.615  64.702  1.00  0.00     0.000 HD 
HETATM   14  C   UNL     1     -10.871  15.323  65.776  1.00  0.00    -0.358 C  
HETATM   15  C   UNL     1      -9.383  10.629  65.489  1.00  0.00    -0.245 A  
HETATM   16  N   UNL     1     -10.886  15.324  67.234  1.00  0.00    -0.313 N  
HETATM   17  O   UNL     1     -12.909  13.877  67.492  1.00  0.00     0.455 OA 
HETATM   18  C   UNL     1      -8.651   9.630  64.620  1.00  0.00    -0.183 C  
HETATM   19  F   UNL     1      -8.576   8.351  65.063  1.00  0.00    -0.165 F  
HETATM   20  F   UNL     1      -9.209   9.551  63.377  1.00  0.00    -0.269 F  
HETATM   21  S   UNL     1     -11.507  13.894  67.846  1.00  0.00    -0.338 S  
HETATM   22  F   UNL     1      -7.356  10.004  64.407  1.00  0.00    -0.122 F  
HETATM   23  O   UNL     1     -11.072  13.796  69.220  1.00  0.00    -0.251 OA 
HETATM   24  H   UNL     1     -10.558  16.100  67.811  1.00  0.00     0.000 HD 
BRANCH  14  25
HETATM   25  C   UNL     1     -10.494  16.750  65.305  1.00  0.00    -0.153 C  
BRANCH  25  26
HETATM   26  C   UNL     1      -9.808  17.576  66.368  1.00  0.00    -0.316 A  
HETATM   27  C   UNL     1     -10.530  18.493  67.144  1.00  0.00    -0.446 A  
HETATM   28  C   UNL     1      -9.867  19.333  68.038  1.00  0.00    -0.454 A  
HETATM   29  C   UNL     1      -8.484  19.242  68.186  1.00  0.00    -0.362 A  
HETATM   30  C   UNL     1      -7.767  18.290  67.465  1.00  0.00    -0.223 A  
HETATM   31  C   UNL     1      -8.426  17.456  66.563  1.00  0.00    -0.298 A  
ENDBRANCH  25  26
ENDBRANCH  14  25
ENDBRANCH   4   7
TORSDOF 3
ENDMDL
MODEL       60
REMARK 921   NORMALIZED FREE ENERGY PREDICTED BY IDOCK:   -5.34 KCAL/MOL
REMARK 922        TOTAL FREE ENERGY PREDICTED BY IDOCK:   -6.41 KCAL/MOL
REMARK 923 INTER-LIGAND FREE ENERGY PREDICTED BY IDOCK:   -6.25 KCAL/MOL
REMARK 924 INTRA-LIGAND FREE ENERGY PREDICTED BY IDOCK:   -0.17 KCAL/MOL
REMARK 927      BINDING AFFINITY PREDICTED BY RF-SCORE:    0.00 PKD
ROOT
HETATM    1  N   UNL     1      -9.693  14.379  69.620  1.00  0.00    -0.277 N  
HETATM    2  H1  UNL     1      -8.735  14.092  69.418  1.00  0.00     0.000 HD 
HETATM    3  H2  UNL     1     -10.046  14.662  70.533  1.00  0.00     0.000 HD 
HETATM    4  S   UNL     1     -10.593  14.311  68.207  1.00  0.00    -0.251 S  
HETATM    5  O   UNL     1      -9.780  14.987  67.225  1.00  0.00    -0.217 OA 
HETATM    6  O   UNL     1     -11.945  14.716  68.492  1.00  0.00    -0.315 OA 
ENDROOT
BRANCH   4   7
HETATM    7  C   UNL     1     -10.583  12.568  67.856  1.00  0.00    -0.218 A  
HETATM    8  C   UNL     1     -10.131  11.734  68.881  1.00  0.00    -0.088 A  
HETATM    9  C   UNL     1     -10.170  10.349  68.725  1.00  0.00    -0.187 A  
HETATM   10  C   UNL     1     -10.640   9.741  67.567  1.00  0.00    -0.275 A  
HETATM   11  C   UNL     1     -11.095  10.595  66.547  1.00  0.00    -0.012 A  
HETATM   12  N   UNL     1     -10.820   8.360  67.451  1.00  0.00    -0.485 NA 
HETATM   13  H   UNL     1     -11.491   7.973  66.787  1.00  0.00     0.000 HD 
HETATM   14  C   UNL     1     -10.023   7.488  68.306  1.00  0.00    -0.173 C  
HETATM   15  C   UNL     1     -11.059  12.019  66.656  1.00  0.00    -0.358 A  
HETATM   16  N   UNL     1     -10.263   7.841  69.700  1.00  0.00    -0.201 N  
HETATM   17  O   UNL     1      -8.207   9.235  69.990  1.00  0.00    -0.119 OA 
HETATM   18  C   UNL     1     -11.545  12.801  65.456  1.00  0.00    -0.362 C  
HETATM   19  F   UNL     1     -11.594  14.151  65.566  1.00  0.00    -0.314 F  
HETATM   20  F   UNL     1     -10.775  12.554  64.357  1.00  0.00    -0.296 F  
HETATM   21  S   UNL     1      -9.646   9.356  70.067  1.00  0.00    -0.242 S  
HETATM   22  F   UNL     1     -12.809  12.432  65.095  1.00  0.00    -0.522 F  
HETATM   23  O   UNL     1     -10.305   9.801  71.273  1.00  0.00    -0.201 OA 
HETATM   24  H   UNL     1     -10.747   7.242  70.369  1.00  0.00     0.000 HD 
BRANCH  14  25
HETATM   25  C   UNL     1     -10.424   6.003  68.119  1.00  0.00    -0.292 C  
BRANCH  25  26
HETATM   26  C   UNL     1      -9.834   5.369  66.881  1.00  0.00    -0.186 A  
HETATM   27  C   UNL     1     -10.605   4.529  66.065  1.00  0.00    -0.144 A  
HETATM   28  C   UNL     1     -10.017   3.856  64.994  1.00  0.00    -0.186 A  
HETATM   29  C   UNL     1      -8.665   4.040  64.713  1.00  0.00    -0.119 A  
HETATM   30  C   UNL     1      -7.907   4.922  65.480  1.00  0.00    -0.095 A  
HETATM   31  C   UNL     1      -8.489   5.587  66.558  1.00  0.00    -0.113 A  
ENDBRANCH  25  26
ENDBRANCH  14  25
ENDBRANCH   4   7
TORSDOF 3
ENDMDL
MODEL       61
REMARK 921   NORMALIZED FREE ENERGY PREDICTED BY IDOCK:   -5.33 KCAL/MOL
REMARK 922        TOTAL FREE ENERGY PREDICTED BY IDOCK:   -6.40 KCAL/MOL
REMARK 923 INTER-LIGAND FREE ENERGY PREDICTED BY IDOCK:   -7.17 KCAL/MOL
REMARK 924 INTRA-LIGAND FREE ENERGY PREDICTED BY IDOCK:    0.77 KCAL/MOL
REMARK 927      BINDING AFFINITY PREDICTED BY RF-SCORE:    0.00 PKD
ROOT
HETATM    1  N   UNL     1      -8.314  20.570  67.317  1.00  0.00    -0.428 N  
HETATM    2  H1  UNL     1      -9.214  20.489  66.844  1.00  0.00     0.000 HD 
HETATM    3  H2  UNL     1      -7.538  21.159  67.016  1.00  0.00     0.000 HD 
HETATM    4  S   UNL     1      -8.317  19.581  68.671  1.00  0.00    -0.282 S  
HETATM    5  O   UNL     1      -9.563  19.878  69.335  1.00  0.00    -0.195 OA 
HETATM    6  O   UNL     1      -7.047  19.695  69.338  1.00  0.00    -0.357 OA 
ENDROOT
BRANCH   4   7
HETATM    7  C   UNL     1      -8.431  17.965  67.937  1.00  0.00    -0.251 A  
HETATM    8  C   UNL     1      -9.491  17.164  68.368  1.00  0.00    -0.276 A  
HETATM    9  C   UNL     1      -9.707  15.917  67.784  1.00  0.00    -0.220 A  
HETATM   10  C   UNL     1      -8.896  15.414  66.775  1.00  0.00    -0.269 A  
HETATM   11  C   UNL     1      -7.837  16.235  66.349  1.00  0.00    -0.249 A  
HETATM   12  N   UNL     1      -9.183  14.235  66.082  1.00  0.00    -0.510 NA 
HETATM   13  H   UNL     1      -8.826  14.080  65.139  1.00  0.00     0.000 HD 
HETATM   14  C   UNL     1     -10.009  13.231  66.745  1.00  0.00    -0.263 C  
HETATM   15  C   UNL     1      -7.566  17.512  66.930  1.00  0.00    -0.245 A  
HETATM   16  N   UNL     1     -11.281  13.836  67.120  1.00  0.00    -0.302 N  
HETATM   17  O   UNL     1     -10.690  14.262  69.513  1.00  0.00    -0.183 OA 
HETATM   18  C   UNL     1      -6.365  18.258  66.392  1.00  0.00    -0.194 C  
HETATM   19  F   UNL     1      -6.136  19.505  66.871  1.00  0.00    -0.177 F  
HETATM   20  F   UNL     1      -5.210  17.565  66.615  1.00  0.00    -0.139 F  
HETATM   21  S   UNL     1     -11.086  14.984  68.325  1.00  0.00    -0.300 S  
HETATM   22  F   UNL     1      -6.433  18.409  65.038  1.00  0.00    -0.303 F  
HETATM   23  O   UNL     1     -12.262  15.822  68.305  1.00  0.00     0.028 OA 
HETATM   24  H   UNL     1     -12.179  13.591  66.702  1.00  0.00     0.000 HD 
BRANCH  14  25
HETATM   25  C   UNL     1     -10.311  12.042  65.798  1.00  0.00    -0.289 C  
BRANCH  25  26
HETATM   26  C   UNL     1     -10.371  10.708  66.504  1.00  0.00    -0.299 A  
HETATM   27  C   UNL     1     -10.786  10.618  67.840  1.00  0.00    -0.328 A  
HETATM   28  C   UNL     1     -10.724   9.400  68.516  1.00  0.00    -0.203 A  
HETATM   29  C   UNL     1     -10.277   8.258  67.855  1.00  0.00    -0.276 A  
HETATM   30  C   UNL     1      -9.923   8.325  66.509  1.00  0.00    -0.320 A  
HETATM   31  C   UNL     1      -9.974   9.543  65.834  1.00  0.00    -0.342 A  
ENDBRANCH  25  26
ENDBRANCH  14  25
ENDBRANCH   4   7
TORSDOF 3
ENDMDL
MODEL       62
REMARK 921   NORMALIZED FREE ENERGY PREDICTED BY IDOCK:   -5.33 KCAL/MOL
REMARK 922        TOTAL FREE ENERGY PREDICTED BY IDOCK:   -6.40 KCAL/MOL
REMARK 923 INTER-LIGAND FREE ENERGY PREDICTED BY IDOCK:   -7.09 KCAL/MOL
REMARK 924 INTRA-LIGAND FREE ENERGY PREDICTED BY IDOCK:    0.69 KCAL/MOL
REMARK 927      BINDING AFFINITY PREDICTED BY RF-SCORE:    0.00 PKD
ROOT
HETATM    1  N   UNL     1      -5.801  18.677  68.482  1.00  0.00    -0.202 N  
HETATM    2  H1  UNL     1      -5.420  18.170  67.683  1.00  0.00     0.000 HD 
HETATM    3  H2  UNL     1      -5.327  18.819  69.374  1.00  0.00     0.000 HD 
HETATM    4  S   UNL     1      -7.331  19.241  68.093  1.00  0.00    -0.292 S  
HETATM    5  O   UNL     1      -7.172  19.858  66.798  1.00  0.00    -0.219 OA 
HETATM    6  O   UNL     1      -7.869  19.956  69.220  1.00  0.00    -0.176 OA 
ENDROOT
BRANCH   4   7
HETATM    7  C   UNL     1      -8.236  17.723  67.897  1.00  0.00    -0.237 A  
HETATM    8  C   UNL     1      -7.541  16.547  68.191  1.00  0.00    -0.162 A  
HETATM    9  C   UNL     1      -8.197  15.318  68.148  1.00  0.00    -0.141 A  
HETATM   10  C   UNL     1      -9.540  15.199  67.810  1.00  0.00    -0.203 A  
HETATM   11  C   UNL     1     -10.225  16.392  67.522  1.00  0.00    -0.273 A  
HETATM   12  N   UNL     1     -10.246  13.997  67.903  1.00  0.00    -0.236 NA 
HETATM   13  H   UNL     1     -11.259  13.991  68.024  1.00  0.00     0.000 HD 
HETATM   14  C   UNL     1      -9.493  12.749  67.822  1.00  0.00    -0.205 C  
HETATM   15  C   UNL     1      -9.590  17.672  67.536  1.00  0.00    -0.267 A  
HETATM   16  N   UNL     1      -8.478  12.739  68.868  1.00  0.00    -0.339 N  
HETATM   17  O   UNL     1      -6.572  13.445  67.410  1.00  0.00    -0.197 OA 
HETATM   18  C   UNL     1     -10.452  18.858  67.162  1.00  0.00    -0.438 C  
HETATM   19  F   UNL     1      -9.893  20.090  67.246  1.00  0.00    -0.440 F  
HETATM   20  F   UNL     1     -10.910  18.754  65.880  1.00  0.00    -0.454 F  
HETATM   21  S   UNL     1      -7.290  13.886  68.585  1.00  0.00    -0.117 S  
HETATM   22  F   UNL     1     -11.574  18.928  67.936  1.00  0.00     0.020 F  
HETATM   23  O   UNL     1      -6.616  14.117  69.842  1.00  0.00    -0.134 OA 
HETATM   24  H   UNL     1      -8.488  12.111  69.672  1.00  0.00     0.000 HD 
BRANCH  14  25
HETATM   25  C   UNL     1     -10.416  11.524  68.046  1.00  0.00    -0.214 C  
BRANCH  25  26
HETATM   26  C   UNL     1     -11.383  11.699  69.193  1.00  0.00    -0.345 A  
HETATM   27  C   UNL     1     -11.974  12.943  69.454  1.00  0.00    -0.327 A  
HETATM   28  C   UNL     1     -12.771  13.120  70.584  1.00  0.00    -0.203 A  
HETATM   29  C   UNL     1     -13.008  12.050  71.445  1.00  0.00    -0.362 A  
HETATM   30  C   UNL     1     -12.477  10.794  71.159  1.00  0.00    -0.519 A  
HETATM   31  C   UNL     1     -11.671  10.617  70.035  1.00  0.00    -0.405 A  
ENDBRANCH  25  26
ENDBRANCH  14  25
ENDBRANCH   4   7
TORSDOF 3
ENDMDL
MODEL       63
REMARK 921   NORMALIZED FREE ENERGY PREDICTED BY IDOCK:   -5.32 KCAL/MOL
REMARK 922        TOTAL FREE ENERGY PREDICTED BY IDOCK:   -6.39 KCAL/MOL
REMARK 923 INTER-LIGAND FREE ENERGY PREDICTED BY IDOCK:   -6.23 KCAL/MOL
REMARK 924 INTRA-LIGAND FREE ENERGY PREDICTED BY IDOCK:   -0.17 KCAL/MOL
REMARK 927      BINDING AFFINITY PREDICTED BY RF-SCORE:    0.00 PKD
ROOT
HETATM    1  N   UNL     1      -9.045  15.215  67.058  1.00  0.00    -0.216 N  
HETATM    2  H1  UNL     1      -8.210  15.045  66.498  1.00  0.00     0.000 HD 
HETATM    3  H2  UNL     1      -9.055  15.555  68.020  1.00  0.00     0.000 HD 
HETATM    4  S   UNL     1     -10.401  14.849  66.143  1.00  0.00    -0.319 S  
HETATM    5  O   UNL     1     -10.176  15.509  64.880  1.00  0.00    -0.374 OA 
HETATM    6  O   UNL     1     -11.580  15.089  66.934  1.00  0.00    -0.323 OA 
ENDROOT
BRANCH   4   7
HETATM    7  C   UNL     1     -10.218  13.095  65.913  1.00  0.00    -0.291 A  
HETATM    8  C   UNL     1      -9.235  12.470  66.684  1.00  0.00    -0.223 A  
HETATM    9  C   UNL     1      -9.080  11.086  66.632  1.00  0.00    -0.166 A  
HETATM   10  C   UNL     1      -9.869  10.276  65.824  1.00  0.00    -0.257 A  
HETATM   11  C   UNL     1     -10.856  10.920  65.057  1.00  0.00    -0.142 A  
HETATM   12  N   UNL     1      -9.824   8.880  65.868  1.00  0.00    -0.452 NA 
HETATM   13  H   UNL     1     -10.626   8.320  65.579  1.00  0.00     0.000 HD 
HETATM   14  C   UNL     1      -8.598   8.246  66.340  1.00  0.00    -0.133 C  
HETATM   15  C   UNL     1     -11.040  12.337  65.066  1.00  0.00    -0.359 A  
HETATM   16  N   UNL     1      -8.297   8.733  67.680  1.00  0.00    -0.114 N  
HETATM   17  O   UNL     1      -6.601  10.434  66.983  1.00  0.00    -0.071 OA 
HETATM   18  C   UNL     1     -12.116  12.884  64.154  1.00  0.00    -0.432 C  
HETATM   19  F   UNL     1     -12.362  14.216  64.205  1.00  0.00    -0.467 F  
HETATM   20  F   UNL     1     -11.842  12.615  62.845  1.00  0.00    -0.469 F  
HETATM   21  S   UNL     1      -7.873  10.354  67.666  1.00  0.00    -0.105 S  
HETATM   22  F   UNL     1     -13.323  12.295  64.394  1.00  0.00    -0.452 F  
HETATM   23  O   UNL     1      -8.040  10.847  69.014  1.00  0.00    -0.142 OA 
HETATM   24  H   UNL     1      -8.339   8.159  68.523  1.00  0.00     0.000 HD 
BRANCH  14  25
HETATM   25  C   UNL     1      -8.760   6.706  66.421  1.00  0.00    -0.144 C  
BRANCH  25  26
HETATM   26  C   UNL     1      -8.424   5.995  65.132  1.00  0.00    -0.112 A  
HETATM   27  C   UNL     1      -8.853   4.680  64.903  1.00  0.00    -0.151 A  
HETATM   28  C   UNL     1      -8.437   3.993  63.763  1.00  0.00    -0.097 A  
HETATM   29  C   UNL     1      -7.616   4.623  62.830  1.00  0.00    -0.060 A  
HETATM   30  C   UNL     1      -7.238   5.950  63.018  1.00  0.00    -0.053 A  
HETATM   31  C   UNL     1      -7.643   6.636  64.162  1.00  0.00    -0.104 A  
ENDBRANCH  25  26
ENDBRANCH  14  25
ENDBRANCH   4   7
TORSDOF 3
ENDMDL
MODEL       64
REMARK 921   NORMALIZED FREE ENERGY PREDICTED BY IDOCK:   -5.32 KCAL/MOL
REMARK 922        TOTAL FREE ENERGY PREDICTED BY IDOCK:   -6.39 KCAL/MOL
REMARK 923 INTER-LIGAND FREE ENERGY PREDICTED BY IDOCK:   -6.25 KCAL/MOL
REMARK 924 INTRA-LIGAND FREE ENERGY PREDICTED BY IDOCK:   -0.14 KCAL/MOL
REMARK 927      BINDING AFFINITY PREDICTED BY RF-SCORE:    0.00 PKD
ROOT
HETATM    1  N   UNL     1      -6.885  10.037  68.745  1.00  0.00    -0.057 N  
HETATM    2  H1  UNL     1      -6.745  10.487  69.650  1.00  0.00     0.000 HD 
HETATM    3  H2  UNL     1      -6.148   9.646  68.158  1.00  0.00     0.000 HD 
HETATM    4  S   UNL     1      -8.521  10.045  68.378  1.00  0.00    -0.115 S  
HETATM    5  O   UNL     1      -9.164   9.569  69.579  1.00  0.00    -0.165 OA 
HETATM    6  O   UNL     1      -8.718   9.411  67.101  1.00  0.00    -0.127 OA 
ENDROOT
BRANCH   4   7
HETATM    7  C   UNL     1      -8.844  11.784  68.206  1.00  0.00    -0.172 A  
HETATM    8  C   UNL     1      -7.737  12.631  68.302  1.00  0.00    -0.135 A  
HETATM    9  C   UNL     1      -7.885  14.001  68.094  1.00  0.00    -0.144 A  
HETATM   10  C   UNL     1      -9.111  14.584  67.797  1.00  0.00    -0.190 A  
HETATM   11  C   UNL     1     -10.214  13.717  67.700  1.00  0.00    -0.242 A  
HETATM   12  N   UNL     1      -9.251  15.929  67.444  1.00  0.00    -0.200 NA 
HETATM   13  H   UNL     1     -10.041  16.244  66.881  1.00  0.00     0.000 HD 
HETATM   14  C   UNL     1      -8.235  16.870  67.904  1.00  0.00    -0.197 C  
HETATM   15  C   UNL     1     -10.113  12.310  67.921  1.00  0.00    -0.200 A  
HETATM   16  N   UNL     1      -6.929  16.429  67.427  1.00  0.00    -0.147 N  
HETATM   17  O   UNL     1      -6.214  15.329  69.556  1.00  0.00    -0.115 OA 
HETATM   18  C   UNL     1     -11.398  11.517  67.822  1.00  0.00    -0.296 C  
HETATM   19  F   UNL     1     -11.314  10.170  67.950  1.00  0.00    -0.341 F  
HETATM   20  F   UNL     1     -12.301  11.915  68.764  1.00  0.00    -0.322 F  
HETATM   21  S   UNL     1      -6.452  15.003  68.168  1.00  0.00    -0.145 S  
HETATM   22  F   UNL     1     -12.020  11.717  66.624  1.00  0.00    -0.345 F  
HETATM   23  O   UNL     1      -5.422  14.420  67.339  1.00  0.00    -0.338 OA 
HETATM   24  H   UNL     1      -6.375  16.926  66.729  1.00  0.00     0.000 HD 
BRANCH  14  25
HETATM   25  C   UNL     1      -8.490  18.290  67.337  1.00  0.00    -0.249 C  
BRANCH  25  26
HETATM   26  C   UNL     1      -7.421  19.290  67.709  1.00  0.00    -0.289 A  
HETATM   27  C   UNL     1      -6.918  19.353  69.016  1.00  0.00    -0.390 A  
HETATM   28  C   UNL     1      -6.019  20.357  69.376  1.00  0.00    -0.379 A  
HETATM   29  C   UNL     1      -5.595  21.285  68.428  1.00  0.00    -0.294 A  
HETATM   30  C   UNL     1      -6.040  21.191  67.111  1.00  0.00    -0.395 A  
HETATM   31  C   UNL     1      -6.947  20.195  66.751  1.00  0.00    -0.268 A  
ENDBRANCH  25  26
ENDBRANCH  14  25
ENDBRANCH   4   7
TORSDOF 3
ENDMDL
MODEL       65
REMARK 921   NORMALIZED FREE ENERGY PREDICTED BY IDOCK:   -5.31 KCAL/MOL
REMARK 922        TOTAL FREE ENERGY PREDICTED BY IDOCK:   -6.38 KCAL/MOL
REMARK 923 INTER-LIGAND FREE ENERGY PREDICTED BY IDOCK:   -6.15 KCAL/MOL
REMARK 924 INTRA-LIGAND FREE ENERGY PREDICTED BY IDOCK:   -0.23 KCAL/MOL
REMARK 927      BINDING AFFINITY PREDICTED BY RF-SCORE:    0.00 PKD
ROOT
HETATM    1  N   UNL     1      -7.127   7.374  70.014  1.00  0.00    -0.063 N  
HETATM    2  H1  UNL     1      -6.597   8.174  70.358  1.00  0.00     0.000 HD 
HETATM    3  H2  UNL     1      -6.827   6.737  69.276  1.00  0.00     0.000 HD 
HETATM    4  S   UNL     1      -8.572   7.272  70.858  1.00  0.00    -0.137 S  
HETATM    5  O   UNL     1      -8.192   7.403  72.245  1.00  0.00    -0.099 OA 
HETATM    6  O   UNL     1      -9.320   6.142  70.374  1.00  0.00    -0.158 OA 
ENDROOT
BRANCH   4   7
HETATM    7  C   UNL     1      -9.395   8.762  70.347  1.00  0.00    -0.180 A  
HETATM    8  C   UNL     1      -8.727   9.543  69.400  1.00  0.00    -0.166 A  
HETATM    9  C   UNL     1      -9.337  10.683  68.878  1.00  0.00    -0.184 A  
HETATM   10  C   UNL     1     -10.605  11.097  69.269  1.00  0.00    -0.175 A  
HETATM   11  C   UNL     1     -11.264  10.298  70.220  1.00  0.00    -0.395 A  
HETATM   12  N   UNL     1     -11.286  12.151  68.653  1.00  0.00    -0.247 NA 
HETATM   13  H   UNL     1     -12.304  12.200  68.674  1.00  0.00     0.000 HD 
HETATM   14  C   UNL     1     -10.499  13.178  67.979  1.00  0.00    -0.239 C  
HETATM   15  C   UNL     1     -10.672   9.132  70.794  1.00  0.00    -0.327 A  
HETATM   16  N   UNL     1      -9.665  12.546  66.963  1.00  0.00    -0.208 N  
HETATM   17  O   UNL     1      -7.568  12.488  68.324  1.00  0.00    -0.113 OA 
HETATM   18  C   UNL     1     -11.491   8.401  71.835  1.00  0.00    -0.318 C  
HETATM   19  F   UNL     1     -10.984   7.248  72.336  1.00  0.00    -0.234 F  
HETATM   20  F   UNL     1     -11.734   9.193  72.920  1.00  0.00    -0.042 F  
HETATM   21  S   UNL     1      -8.476  11.586  67.651  1.00  0.00    -0.141 S  
HETATM   22  F   UNL     1     -12.724   8.064  71.357  1.00  0.00    -0.310 F  
HETATM   23  O   UNL     1      -8.020  10.678  66.625  1.00  0.00    -0.123 OA 
HETATM   24  H   UNL     1      -9.790  12.673  65.958  1.00  0.00     0.000 HD 
BRANCH  14  25
HETATM   25  C   UNL     1     -11.415  14.206  67.267  1.00  0.00    -0.371 C  
BRANCH  25  26
HETATM   26  C   UNL     1     -10.936  15.633  67.396  1.00  0.00    -0.293 A  
HETATM   27  C   UNL     1     -10.494  16.348  66.274  1.00  0.00    -0.298 A  
HETATM   28  C   UNL     1      -9.944  17.620  66.422  1.00  0.00    -0.337 A  
HETATM   29  C   UNL     1      -9.859  18.199  67.687  1.00  0.00    -0.316 A  
HETATM   30  C   UNL     1     -10.354  17.522  68.799  1.00  0.00    -0.358 A  
HETATM   31  C   UNL     1     -10.895  16.246  68.655  1.00  0.00    -0.322 A  
ENDBRANCH  25  26
ENDBRANCH  14  25
ENDBRANCH   4   7
TORSDOF 3
ENDMDL
MODEL       66
REMARK 921   NORMALIZED FREE ENERGY PREDICTED BY IDOCK:   -5.30 KCAL/MOL
REMARK 922        TOTAL FREE ENERGY PREDICTED BY IDOCK:   -6.36 KCAL/MOL
REMARK 923 INTER-LIGAND FREE ENERGY PREDICTED BY IDOCK:   -6.34 KCAL/MOL
REMARK 924 INTRA-LIGAND FREE ENERGY PREDICTED BY IDOCK:   -0.02 KCAL/MOL
REMARK 927      BINDING AFFINITY PREDICTED BY RF-SCORE:    0.00 PKD
ROOT
HETATM    1  N   UNL     1      -7.393  14.779  67.303  1.00  0.00    -0.244 N  
HETATM    2  H1  UNL     1      -7.002  14.224  66.542  1.00  0.00     0.000 HD 
HETATM    3  H2  UNL     1      -6.883  15.098  68.127  1.00  0.00     0.000 HD 
HETATM    4  S   UNL     1      -9.010  15.082  66.983  1.00  0.00    -0.249 S  
HETATM    5  O   UNL     1      -9.030  15.537  65.614  1.00  0.00    -0.130 OA 
HETATM    6  O   UNL     1      -9.563  15.865  68.058  1.00  0.00    -0.209 OA 
ENDROOT
BRANCH   4   7
HETATM    7  C   UNL     1      -9.705  13.447  67.054  1.00  0.00    -0.239 A  
HETATM    8  C   UNL     1      -8.916  12.466  67.659  1.00  0.00    -0.183 A  
HETATM    9  C   UNL     1      -9.416  11.177  67.835  1.00  0.00    -0.175 A  
HETATM   10  C   UNL     1     -10.690  10.807  67.421  1.00  0.00    -0.268 A  
HETATM   11  C   UNL     1     -11.472  11.807  66.818  1.00  0.00    -0.352 A  
HETATM   12  N   UNL     1     -11.257   9.565  67.719  1.00  0.00    -0.454 NA 
HETATM   13  H   UNL     1     -12.269   9.445  67.753  1.00  0.00     0.000 HD 
HETATM   14  C   UNL     1     -10.360   8.443  67.980  1.00  0.00    -0.215 C  
HETATM   15  C   UNL     1     -10.996  13.136  66.602  1.00  0.00    -0.301 A  
HETATM   16  N   UNL     1      -9.474   8.792  69.083  1.00  0.00    -0.156 N  
HETATM   17  O   UNL     1      -7.512   9.433  67.670  1.00  0.00    -0.086 OA 
HETATM   18  C   UNL     1     -11.942  14.087  65.902  1.00  0.00    -0.408 C  
HETATM   19  F   UNL     1     -11.543  15.375  65.757  1.00  0.00    -0.263 F  
HETATM   20  F   UNL     1     -12.239  13.655  64.642  1.00  0.00    -0.384 F  
HETATM   21  S   UNL     1      -8.403  10.007  68.653  1.00  0.00    -0.122 S  
HETATM   22  F   UNL     1     -13.144  14.163  66.545  1.00  0.00    -0.232 F  
HETATM   23  O   UNL     1      -7.905  10.586  69.879  1.00  0.00    -0.117 OA 
HETATM   24  H   UNL     1      -9.501   8.351  70.003  1.00  0.00     0.000 HD 
BRANCH  14  25
HETATM   25  C   UNL     1     -11.154   7.178  68.392  1.00  0.00     0.003 C  
BRANCH  25  26
HETATM   26  C   UNL     1     -10.494   5.887  67.969  1.00  0.00    -0.294 A  
HETATM   27  C   UNL     1     -10.514   5.473  66.630  1.00  0.00    -0.355 A  
HETATM   28  C   UNL     1     -10.007   4.224  66.271  1.00  0.00    -0.229 A  
HETATM   29  C   UNL     1      -9.449   3.394  67.241  1.00  0.00    -0.211 A  
HETATM   30  C   UNL     1      -9.367   3.824  68.564  1.00  0.00    -0.227 A  
HETATM   31  C   UNL     1      -9.883   5.067  68.927  1.00  0.00    -0.245 A  
ENDBRANCH  25  26
ENDBRANCH  14  25
ENDBRANCH   4   7
TORSDOF 3
ENDMDL
MODEL       67
REMARK 921   NORMALIZED FREE ENERGY PREDICTED BY IDOCK:   -5.28 KCAL/MOL
REMARK 922        TOTAL FREE ENERGY PREDICTED BY IDOCK:   -6.35 KCAL/MOL
REMARK 923 INTER-LIGAND FREE ENERGY PREDICTED BY IDOCK:   -6.20 KCAL/MOL
REMARK 924 INTRA-LIGAND FREE ENERGY PREDICTED BY IDOCK:   -0.15 KCAL/MOL
REMARK 927      BINDING AFFINITY PREDICTED BY RF-SCORE:    0.00 PKD
ROOT
HETATM    1  N   UNL     1      -9.638   6.907  65.585  1.00  0.00    -0.179 N  
HETATM    2  H1  UNL     1      -8.708   7.288  65.411  1.00  0.00     0.000 HD 
HETATM    3  H2  UNL     1     -10.216   6.419  64.901  1.00  0.00     0.000 HD 
HETATM    4  S   UNL     1     -10.063   7.211  67.178  1.00  0.00    -0.252 S  
HETATM    5  O   UNL     1      -8.910   6.804  67.945  1.00  0.00    -0.120 OA 
HETATM    6  O   UNL     1     -11.375   6.673  67.424  1.00  0.00    -0.299 OA 
ENDROOT
BRANCH   4   7
HETATM    7  C   UNL     1     -10.164   8.986  67.192  1.00  0.00    -0.265 A  
HETATM    8  C   UNL     1     -10.159   9.615  65.945  1.00  0.00    -0.304 A  
HETATM    9  C   UNL     1     -10.322  10.997  65.859  1.00  0.00    -0.257 A  
HETATM   10  C   UNL     1     -10.482  11.802  66.980  1.00  0.00    -0.220 A  
HETATM   11  C   UNL     1     -10.488  11.152  68.226  1.00  0.00    -0.215 A  
HETATM   12  N   UNL     1     -10.789  13.163  66.903  1.00  0.00    -0.263 NA 
HETATM   13  H   UNL     1     -11.264  13.638  67.672  1.00  0.00     0.000 HD 
HETATM   14  C   UNL     1     -10.412  13.887  65.694  1.00  0.00    -0.312 C  
HETATM   15  C   UNL     1     -10.309   9.742  68.365  1.00  0.00    -0.230 A  
HETATM   16  N   UNL     1     -11.026  13.237  64.542  1.00  0.00    -0.362 N  
HETATM   17  O   UNL     1      -9.004  11.943  63.843  1.00  0.00     0.321 OA 
HETATM   18  C   UNL     1     -10.297   9.197  69.777  1.00  0.00    -0.215 C  
HETATM   19  F   UNL     1     -10.208   7.853  69.929  1.00  0.00    -0.193 F  
HETATM   20  F   UNL     1      -9.261   9.714  70.499  1.00  0.00    -0.262 F  
HETATM   21  S   UNL     1     -10.368  11.721  64.265  1.00  0.00    -0.344 S  
HETATM   22  F   UNL     1     -11.422   9.555  70.461  1.00  0.00    -0.271 F  
HETATM   23  O   UNL     1     -11.308  10.995  63.443  1.00  0.00     0.003 OA 
HETATM   24  H   UNL     1     -11.765  13.654  63.974  1.00  0.00     0.000 HD 
BRANCH  14  25
HETATM   25  C   UNL     1     -10.919  15.351  65.737  1.00  0.00    -0.311 C  
BRANCH  25  26
HETATM   26  C   UNL     1     -10.015  16.280  66.513  1.00  0.00    -0.290 A  
HETATM   27  C   UNL     1      -8.641  16.027  66.617  1.00  0.00    -0.316 A  
HETATM   28  C   UNL     1      -7.838  16.823  67.433  1.00  0.00    -0.193 A  
HETATM   29  C   UNL     1      -8.396  17.895  68.126  1.00  0.00    -0.267 A  
HETATM   30  C   UNL     1      -9.749  18.193  67.979  1.00  0.00    -0.316 A  
HETATM   31  C   UNL     1     -10.556  17.391  67.172  1.00  0.00    -0.264 A  
ENDBRANCH  25  26
ENDBRANCH  14  25
ENDBRANCH   4   7
TORSDOF 3
ENDMDL
MODEL       68
REMARK 921   NORMALIZED FREE ENERGY PREDICTED BY IDOCK:   -5.27 KCAL/MOL
REMARK 922        TOTAL FREE ENERGY PREDICTED BY IDOCK:   -6.34 KCAL/MOL
REMARK 923 INTER-LIGAND FREE ENERGY PREDICTED BY IDOCK:   -6.12 KCAL/MOL
REMARK 924 INTRA-LIGAND FREE ENERGY PREDICTED BY IDOCK:   -0.22 KCAL/MOL
REMARK 927      BINDING AFFINITY PREDICTED BY RF-SCORE:    0.00 PKD
ROOT
HETATM    1  N   UNL     1     -10.949  19.236  67.115  1.00  0.00    -0.438 N  
HETATM    2  H1  UNL     1     -11.524  18.639  67.711  1.00  0.00     0.000 HD 
HETATM    3  H2  UNL     1     -11.232  19.621  66.214  1.00  0.00     0.000 HD 
HETATM    4  S   UNL     1      -9.466  19.481  67.856  1.00  0.00    -0.352 S  
HETATM    5  O   UNL     1      -9.794  19.841  69.214  1.00  0.00    -0.385 OA 
HETATM    6  O   UNL     1      -8.655  20.323  67.015  1.00  0.00    -0.328 OA 
ENDROOT
BRANCH   4   7
HETATM    7  C   UNL     1      -8.782  17.840  67.847  1.00  0.00    -0.251 A  
HETATM    8  C   UNL     1      -9.567  16.846  67.257  1.00  0.00    -0.246 A  
HETATM    9  C   UNL     1      -9.074  15.550  67.129  1.00  0.00    -0.217 A  
HETATM   10  C   UNL     1      -7.811  15.183  67.578  1.00  0.00    -0.181 A  
HETATM   11  C   UNL     1      -7.032  16.195  68.165  1.00  0.00    -0.135 A  
HETATM   12  N   UNL     1      -7.247  13.929  67.328  1.00  0.00    -0.321 NA 
HETATM   13  H   UNL     1      -6.235  13.801  67.317  1.00  0.00     0.000 HD 
HETATM   14  C   UNL     1      -8.147  12.806  67.084  1.00  0.00    -0.129 C  
HETATM   15  C   UNL     1      -7.502  17.534  68.333  1.00  0.00    -0.247 A  
HETATM   16  N   UNL     1      -9.010  13.128  65.954  1.00  0.00    -0.267 N  
HETATM   17  O   UNL     1     -10.993  13.824  67.310  1.00  0.00    -0.284 OA 
HETATM   18  C   UNL     1      -6.562  18.499  69.021  1.00  0.00    -0.262 C  
HETATM   19  F   UNL     1      -6.955  19.793  69.120  1.00  0.00    -0.347 F  
HETATM   20  F   UNL     1      -6.292  18.103  70.299  1.00  0.00    -0.150 F  
HETATM   21  S   UNL     1     -10.080  14.363  66.327  1.00  0.00    -0.309 S  
HETATM   22  F   UNL     1      -5.348  18.547  68.400  1.00  0.00    -0.165 F  
HETATM   23  O   UNL     1     -10.550  14.908  65.075  1.00  0.00    -0.386 OA 
HETATM   24  H   UNL     1      -8.969  12.659  65.049  1.00  0.00     0.000 HD 
BRANCH  14  25
HETATM   25  C   UNL     1      -7.355  11.523  66.725  1.00  0.00    -0.111 C  
BRANCH  25  26
HETATM   26  C   UNL     1      -7.486  10.425  67.754  1.00  0.00    -0.088 A  
HETATM   27  C   UNL     1      -7.200  10.666  69.105  1.00  0.00    -0.102 A  
HETATM   28  C   UNL     1      -7.209   9.617  70.024  1.00  0.00    -0.119 A  
HETATM   29  C   UNL     1      -7.533   8.328  69.607  1.00  0.00    -0.081 A  
HETATM   30  C   UNL     1      -7.881   8.091  68.279  1.00  0.00    -0.123 A  
HETATM   31  C   UNL     1      -7.862   9.135  67.356  1.00  0.00    -0.099 A  
ENDBRANCH  25  26
ENDBRANCH  14  25
ENDBRANCH   4   7
TORSDOF 3
ENDMDL
MODEL       69
REMARK 921   NORMALIZED FREE ENERGY PREDICTED BY IDOCK:   -5.24 KCAL/MOL
REMARK 922        TOTAL FREE ENERGY PREDICTED BY IDOCK:   -6.30 KCAL/MOL
REMARK 923 INTER-LIGAND FREE ENERGY PREDICTED BY IDOCK:   -6.18 KCAL/MOL
REMARK 924 INTRA-LIGAND FREE ENERGY PREDICTED BY IDOCK:   -0.12 KCAL/MOL
REMARK 927      BINDING AFFINITY PREDICTED BY RF-SCORE:    0.00 PKD
ROOT
HETATM    1  N   UNL     1      -7.038   7.943  72.173  1.00  0.00    -0.070 N  
HETATM    2  H1  UNL     1      -7.236   8.928  72.348  1.00  0.00     0.000 HD 
HETATM    3  H2  UNL     1      -6.114   7.513  72.187  1.00  0.00     0.000 HD 
HETATM    4  S   UNL     1      -8.478   7.144  71.857  1.00  0.00    -0.108 S  
HETATM    5  O   UNL     1      -9.369   7.573  72.909  1.00  0.00    -0.153 OA 
HETATM    6  O   UNL     1      -8.199   5.754  71.610  1.00  0.00    -0.116 OA 
ENDROOT
BRANCH   4   7
HETATM    7  C   UNL     1      -8.985   7.903  70.332  1.00  0.00    -0.147 A  
HETATM    8  C   UNL     1      -8.211   8.978  69.889  1.00  0.00    -0.124 A  
HETATM    9  C   UNL     1      -8.484   9.577  68.660  1.00  0.00    -0.119 A  
HETATM   10  C   UNL     1      -9.520   9.154  67.837  1.00  0.00    -0.141 A  
HETATM   11  C   UNL     1     -10.287   8.069  68.296  1.00  0.00    -0.240 A  
HETATM   12  N   UNL     1      -9.716   9.646  66.543  1.00  0.00    -0.196 NA 
HETATM   13  H   UNL     1     -10.204   9.092  65.840  1.00  0.00     0.000 HD 
HETATM   14  C   UNL     1      -9.203  10.975  66.228  1.00  0.00    -0.182 C  
HETATM   15  C   UNL     1     -10.055   7.434  69.554  1.00  0.00    -0.187 A  
HETATM   16  N   UNL     1      -7.769  11.005  66.493  1.00  0.00    -0.151 N  
HETATM   17  O   UNL     1      -7.924  12.102  68.735  1.00  0.00    -0.098 OA 
HETATM   18  C   UNL     1     -10.992   6.307  69.926  1.00  0.00    -0.370 C  
HETATM   19  F   UNL     1     -10.743   5.639  71.078  1.00  0.00    -0.280 F  
HETATM   20  F   UNL     1     -12.280   6.747  70.033  1.00  0.00    -0.352 F  
HETATM   21  S   UNL     1      -7.441  10.880  68.131  1.00  0.00    -0.095 S  
HETATM   22  F   UNL     1     -11.025   5.342  68.961  1.00  0.00    -0.297 F  
HETATM   23  O   UNL     1      -6.063  10.465  68.257  1.00  0.00    -0.044 OA 
HETATM   24  H   UNL     1      -7.054  11.092  65.770  1.00  0.00     0.000 HD 
BRANCH  14  25
HETATM   25  C   UNL     1      -9.415  11.316  64.732  1.00  0.00    -0.221 C  
BRANCH  25  26
HETATM   26  C   UNL     1     -10.320  12.504  64.505  1.00  0.00    -0.362 A  
HETATM   27  C   UNL     1     -10.103  13.714  65.179  1.00  0.00    -0.298 A  
HETATM   28  C   UNL     1     -11.012  14.763  65.053  1.00  0.00    -0.426 A  
HETATM   29  C   UNL     1     -12.128  14.623  64.230  1.00  0.00    -0.437 A  
HETATM   30  C   UNL     1     -12.318  13.448  63.506  1.00  0.00    -0.398 A  
HETATM   31  C   UNL     1     -11.416  12.394  63.639  1.00  0.00    -0.568 A  
ENDBRANCH  25  26
ENDBRANCH  14  25
ENDBRANCH   4   7
TORSDOF 3
ENDMDL
MODEL       70
REMARK 921   NORMALIZED FREE ENERGY PREDICTED BY IDOCK:   -5.22 KCAL/MOL
REMARK 922        TOTAL FREE ENERGY PREDICTED BY IDOCK:   -6.27 KCAL/MOL
REMARK 923 INTER-LIGAND FREE ENERGY PREDICTED BY IDOCK:   -7.02 KCAL/MOL
REMARK 924 INTRA-LIGAND FREE ENERGY PREDICTED BY IDOCK:    0.75 KCAL/MOL
REMARK 927      BINDING AFFINITY PREDICTED BY RF-SCORE:    0.00 PKD
ROOT
HETATM    1  N   UNL     1      -7.081   6.619  69.820  1.00  0.00    -0.066 N  
HETATM    2  H1  UNL     1      -7.709   6.341  70.574  1.00  0.00     0.000 HD 
HETATM    3  H2  UNL     1      -6.071   6.730  69.901  1.00  0.00     0.000 HD 
HETATM    4  S   UNL     1      -7.979   6.866  68.426  1.00  0.00    -0.124 S  
HETATM    5  O   UNL     1      -8.825   5.701  68.329  1.00  0.00    -0.109 OA 
HETATM    6  O   UNL     1      -7.093   7.259  67.361  1.00  0.00    -0.082 OA 
ENDROOT
BRANCH   4   7
HETATM    7  C   UNL     1      -8.978   8.264  68.881  1.00  0.00    -0.144 A  
HETATM    8  C   UNL     1      -8.817   9.416  68.107  1.00  0.00    -0.124 A  
HETATM    9  C   UNL     1      -9.621  10.531  68.338  1.00  0.00    -0.160 A  
HETATM   10  C   UNL     1     -10.593  10.558  69.332  1.00  0.00    -0.240 A  
HETATM   11  C   UNL     1     -10.744   9.390  70.098  1.00  0.00    -0.282 A  
HETATM   12  N   UNL     1     -11.501  11.610  69.481  1.00  0.00    -0.299 NA 
HETATM   13  H   UNL     1     -12.406  11.462  69.928  1.00  0.00     0.000 HD 
HETATM   14  C   UNL     1     -11.119  12.926  68.978  1.00  0.00    -0.233 C  
HETATM   15  C   UNL     1      -9.932   8.230  69.908  1.00  0.00    -0.190 A  
HETATM   16  N   UNL     1     -10.808  12.818  67.558  1.00  0.00    -0.235 N  
HETATM   17  O   UNL     1      -8.324  12.710  67.826  1.00  0.00    -0.148 OA 
HETATM   18  C   UNL     1     -10.188   7.066  70.841  1.00  0.00    -0.197 C  
HETATM   19  F   UNL     1      -9.485   5.927  70.629  1.00  0.00    -0.168 F  
HETATM   20  F   UNL     1      -9.942   7.408  72.139  1.00  0.00    -0.176 F  
HETATM   21  S   UNL     1      -9.415  11.923  67.297  1.00  0.00    -0.178 S  
HETATM   22  F   UNL     1     -11.497   6.681  70.815  1.00  0.00    -0.309 F  
HETATM   23  O   UNL     1      -9.440  11.492  65.919  1.00  0.00    -0.221 OA 
HETATM   24  H   UNL     1     -11.368  13.236  66.814  1.00  0.00     0.000 HD 
BRANCH  14  25
HETATM   25  C   UNL     1     -12.279  13.942  69.133  1.00  0.00    -0.305 C  
BRANCH  25  26
HETATM   26  C   UNL     1     -12.448  14.455  70.543  1.00  0.00    -0.416 A  
HETATM   27  C   UNL     1     -13.318  13.821  71.441  1.00  0.00    -0.340 A  
HETATM   28  C   UNL     1     -13.555  14.373  72.699  1.00  0.00    -0.589 A  
HETATM   29  C   UNL     1     -12.904  15.544  73.081  1.00  0.00    -0.610 A  
HETATM   30  C   UNL     1     -11.989  16.146  72.220  1.00  0.00    -0.637 A  
HETATM   31  C   UNL     1     -11.758  15.602  70.957  1.00  0.00    -0.444 A  
ENDBRANCH  25  26
ENDBRANCH  14  25
ENDBRANCH   4   7
TORSDOF 3
ENDMDL
MODEL       71
REMARK 921   NORMALIZED FREE ENERGY PREDICTED BY IDOCK:   -5.22 KCAL/MOL
REMARK 922        TOTAL FREE ENERGY PREDICTED BY IDOCK:   -6.27 KCAL/MOL
REMARK 923 INTER-LIGAND FREE ENERGY PREDICTED BY IDOCK:   -6.15 KCAL/MOL
REMARK 924 INTRA-LIGAND FREE ENERGY PREDICTED BY IDOCK:   -0.12 KCAL/MOL
REMARK 927      BINDING AFFINITY PREDICTED BY RF-SCORE:    0.00 PKD
ROOT
HETATM    1  N   UNL     1     -13.933   9.462  72.758  1.00  0.00    -0.718 N  
HETATM    2  H1  UNL     1     -14.569   9.972  72.145  1.00  0.00     0.000 HD 
HETATM    3  H2  UNL     1     -13.847   9.595  73.765  1.00  0.00     0.000 HD 
HETATM    4  S   UNL     1     -13.052   8.368  71.842  1.00  0.00    -0.361 S  
HETATM    5  O   UNL     1     -14.039   7.698  71.030  1.00  0.00    -0.229 OA 
HETATM    6  O   UNL     1     -12.155   7.648  72.706  1.00  0.00    -0.167 OA 
ENDROOT
BRANCH   4   7
HETATM    7  C   UNL     1     -12.097   9.452  70.805  1.00  0.00    -0.203 A  
HETATM    8  C   UNL     1     -12.381  10.816  70.910  1.00  0.00    -0.497 A  
HETATM    9  C   UNL     1     -11.623  11.744  70.199  1.00  0.00    -0.195 A  
HETATM   10  C   UNL     1     -10.578  11.372  69.362  1.00  0.00    -0.052 A  
HETATM   11  C   UNL     1     -10.303   9.996  69.272  1.00  0.00    -0.237 A  
HETATM   12  N   UNL     1      -9.719  12.294  68.758  1.00  0.00    -0.411 NA 
HETATM   13  H   UNL     1      -8.775  12.027  68.479  1.00  0.00     0.000 HD 
HETATM   14  C   UNL     1     -10.211  13.650  68.537  1.00  0.00    -0.234 C  
HETATM   15  C   UNL     1     -11.063   9.007  69.969  1.00  0.00    -0.197 A  
HETATM   16  N   UNL     1     -10.629  14.217  69.813  1.00  0.00    -0.434 N  
HETATM   17  O   UNL     1     -13.074  13.778  69.524  1.00  0.00     0.583 OA 
HETATM   18  C   UNL     1     -10.671   7.565  69.735  1.00  0.00    -0.242 C  
HETATM   19  F   UNL     1     -11.326   6.615  70.446  1.00  0.00    -0.304 F  
HETATM   20  F   UNL     1     -10.829   7.213  68.426  1.00  0.00    -0.223 F  
HETATM   21  S   UNL     1     -11.987  13.443  70.417  1.00  0.00    -0.227 S  
HETATM   22  F   UNL     1      -9.349   7.355  70.003  1.00  0.00    -0.151 F  
HETATM   23  O   UNL     1     -12.049  13.736  71.830  1.00  0.00    -0.070 OA 
HETATM   24  H   UNL     1     -10.154  14.989  70.282  1.00  0.00     0.000 HD 
BRANCH  14  25
HETATM   25  C   UNL     1      -9.099  14.560  67.956  1.00  0.00    -0.185 C  
BRANCH  25  26
HETATM   26  C   UNL     1      -9.630  15.752  67.196  1.00  0.00    -0.224 A  
HETATM   27  C   UNL     1      -9.623  17.032  67.768  1.00  0.00    -0.244 A  
HETATM   28  C   UNL     1     -10.224  18.102  67.106  1.00  0.00    -0.376 A  
HETATM   29  C   UNL     1     -10.807  17.909  65.856  1.00  0.00     0.038 A  
HETATM   30  C   UNL     1     -10.762  16.655  65.251  1.00  0.00    -0.219 A  
HETATM   31  C   UNL     1     -10.172  15.581  65.916  1.00  0.00    -0.367 A  
ENDBRANCH  25  26
ENDBRANCH  14  25
ENDBRANCH   4   7
TORSDOF 3
ENDMDL
MODEL       72
REMARK 921   NORMALIZED FREE ENERGY PREDICTED BY IDOCK:   -5.21 KCAL/MOL
REMARK 922        TOTAL FREE ENERGY PREDICTED BY IDOCK:   -6.27 KCAL/MOL
REMARK 923 INTER-LIGAND FREE ENERGY PREDICTED BY IDOCK:   -6.03 KCAL/MOL
REMARK 924 INTRA-LIGAND FREE ENERGY PREDICTED BY IDOCK:   -0.24 KCAL/MOL
REMARK 927      BINDING AFFINITY PREDICTED BY RF-SCORE:    0.00 PKD
ROOT
HETATM    1  N   UNL     1      -8.535   3.976  69.025  1.00  0.00    -0.076 N  
HETATM    2  H1  UNL     1      -7.759   4.592  68.782  1.00  0.00     0.000 HD 
HETATM    3  H2  UNL     1      -8.997   3.325  68.390  1.00  0.00     0.000 HD 
HETATM    4  S   UNL     1      -8.927   4.204  70.639  1.00  0.00    -0.103 S  
HETATM    5  O   UNL     1      -7.661   4.154  71.331  1.00  0.00    -0.061 OA 
HETATM    6  O   UNL     1     -10.022   3.335  70.983  1.00  0.00    -0.116 OA 
ENDROOT
BRANCH   4   7
HETATM    7  C   UNL     1      -9.513   5.882  70.635  1.00  0.00    -0.171 A  
HETATM    8  C   UNL     1      -9.500   6.538  69.401  1.00  0.00    -0.147 A  
HETATM    9  C   UNL     1     -10.021   7.826  69.288  1.00  0.00    -0.182 A  
HETATM   10  C   UNL     1     -10.558   8.512  70.371  1.00  0.00    -0.223 A  
HETATM   11  C   UNL     1     -10.567   7.836  71.604  1.00  0.00    -0.252 A  
HETATM   12  N   UNL     1     -11.213   9.740  70.246  1.00  0.00    -0.270 NA 
HETATM   13  H   UNL     1     -11.906  10.037  70.933  1.00  0.00     0.000 HD 
HETATM   14  C   UNL     1     -10.878  10.586  69.106  1.00  0.00    -0.237 C  
HETATM   15  C   UNL     1     -10.029   6.523  71.771  1.00  0.00    -0.192 A  
HETATM   16  N   UNL     1     -11.115   9.840  67.876  1.00  0.00    -0.504 N  
HETATM   17  O   UNL     1      -8.736   9.173  67.493  1.00  0.00    -0.119 OA 
HETATM   18  C   UNL     1     -10.074   5.948  73.169  1.00  0.00    -0.185 C  
HETATM   19  F   UNL     1      -9.642   4.674  73.336  1.00  0.00    -0.122 F  
HETATM   20  F   UNL     1      -9.336   6.698  74.038  1.00  0.00    -0.151 F  
HETATM   21  S   UNL     1     -10.033   8.572  67.705  1.00  0.00    -0.214 S  
HETATM   22  F   UNL     1     -11.341   5.958  73.675  1.00  0.00    -0.183 F  
HETATM   23  O   UNL     1     -10.607   7.651  66.751  1.00  0.00    -0.325 OA 
HETATM   24  H   UNL     1     -11.849  10.062  67.202  1.00  0.00     0.000 HD 
BRANCH  14  25
HETATM   25  C   UNL     1     -11.768  11.854  69.069  1.00  0.00    -0.391 C  
BRANCH  25  26
HETATM   26  C   UNL     1     -11.194  12.971  68.231  1.00  0.00    -0.309 A  
HETATM   27  C   UNL     1     -12.010  13.721  67.373  1.00  0.00    -0.423 A  
HETATM   28  C   UNL     1     -11.450  14.669  66.517  1.00  0.00    -0.354 A  
HETATM   29  C   UNL     1     -10.076  14.896  66.534  1.00  0.00    -0.279 A  
HETATM   30  C   UNL     1      -9.264  14.202  67.429  1.00  0.00    -0.204 A  
HETATM   31  C   UNL     1      -9.821  13.246  68.277  1.00  0.00    -0.231 A  
ENDBRANCH  25  26
ENDBRANCH  14  25
ENDBRANCH   4   7
TORSDOF 3
ENDMDL
MODEL       73
REMARK 921   NORMALIZED FREE ENERGY PREDICTED BY IDOCK:   -5.21 KCAL/MOL
REMARK 922        TOTAL FREE ENERGY PREDICTED BY IDOCK:   -6.26 KCAL/MOL
REMARK 923 INTER-LIGAND FREE ENERGY PREDICTED BY IDOCK:   -6.09 KCAL/MOL
REMARK 924 INTRA-LIGAND FREE ENERGY PREDICTED BY IDOCK:   -0.17 KCAL/MOL
REMARK 927      BINDING AFFINITY PREDICTED BY RF-SCORE:    0.00 PKD
ROOT
HETATM    1  N   UNL     1      -6.641   7.800  66.198  1.00  0.00    -0.049 N  
HETATM    2  H1  UNL     1      -7.396   7.406  66.759  1.00  0.00     0.000 HD 
HETATM    3  H2  UNL     1      -5.659   7.839  66.470  1.00  0.00     0.000 HD 
HETATM    4  S   UNL     1      -7.275   8.372  64.755  1.00  0.00    -0.084 S  
HETATM    5  O   UNL     1      -8.109   7.297  64.273  1.00  0.00    -0.126 OA 
HETATM    6  O   UNL     1      -6.209   8.928  63.963  1.00  0.00    -0.072 OA 
ENDROOT
BRANCH   4   7
HETATM    7  C   UNL     1      -8.317   9.697  65.318  1.00  0.00    -0.134 A  
HETATM    8  C   UNL     1      -8.365   9.901  66.700  1.00  0.00    -0.125 A  
HETATM    9  C   UNL     1      -9.088  10.972  67.224  1.00  0.00    -0.138 A  
HETATM   10  C   UNL     1      -9.789  11.864  66.421  1.00  0.00    -0.213 A  
HETATM   11  C   UNL     1      -9.727  11.646  65.034  1.00  0.00    -0.237 A  
HETATM   12  N   UNL     1     -10.397  13.020  66.918  1.00  0.00    -0.244 NA 
HETATM   13  H   UNL     1     -10.564  13.825  66.314  1.00  0.00     0.000 HD 
HETATM   14  C   UNL     1     -10.785  13.044  68.324  1.00  0.00    -0.245 C  
HETATM   15  C   UNL     1      -9.013  10.554  64.453  1.00  0.00    -0.232 A  
HETATM   16  N   UNL     1      -9.609  12.784  69.146  1.00  0.00    -0.156 N  
HETATM   17  O   UNL     1     -10.075  10.358  69.535  1.00  0.00    -0.229 OA 
HETATM   18  C   UNL     1      -9.076  10.431  62.946  1.00  0.00    -0.277 C  
HETATM   19  F   UNL     1      -8.342   9.449  62.367  1.00  0.00    -0.126 F  
HETATM   20  F   UNL     1     -10.356  10.228  62.518  1.00  0.00    -0.037 F  
HETATM   21  S   UNL     1      -9.061  11.211  68.957  1.00  0.00     0.059 S  
HETATM   22  F   UNL     1      -8.673  11.580  62.331  1.00  0.00    -0.344 F  
HETATM   23  O   UNL     1      -7.693  11.182  69.419  1.00  0.00    -0.085 OA 
HETATM   24  H   UNL     1      -9.173  13.473  69.759  1.00  0.00     0.000 HD 
BRANCH  14  25
HETATM   25  C   UNL     1     -11.346  14.432  68.726  1.00  0.00    -0.299 C  
BRANCH  25  26
HETATM   26  C   UNL     1     -11.835  14.495  70.154  1.00  0.00    -0.371 A  
HETATM   27  C   UNL     1     -12.588  13.449  70.704  1.00  0.00    -0.325 A  
HETATM   28  C   UNL     1     -13.135  13.571  71.981  1.00  0.00    -0.481 A  
HETATM   29  C   UNL     1     -12.908  14.724  72.729  1.00  0.00    -0.527 A  
HETATM   30  C   UNL     1     -12.108  15.743  72.215  1.00  0.00    -0.574 A  
HETATM   31  C   UNL     1     -11.569  15.628  70.934  1.00  0.00    -0.424 A  
ENDBRANCH  25  26
ENDBRANCH  14  25
ENDBRANCH   4   7
TORSDOF 3
ENDMDL
MODEL       74
REMARK 921   NORMALIZED FREE ENERGY PREDICTED BY IDOCK:   -5.21 KCAL/MOL
REMARK 922        TOTAL FREE ENERGY PREDICTED BY IDOCK:   -6.26 KCAL/MOL
REMARK 923 INTER-LIGAND FREE ENERGY PREDICTED BY IDOCK:   -6.20 KCAL/MOL
REMARK 924 INTRA-LIGAND FREE ENERGY PREDICTED BY IDOCK:   -0.06 KCAL/MOL
REMARK 927      BINDING AFFINITY PREDICTED BY RF-SCORE:    0.00 PKD
ROOT
HETATM    1  N   UNL     1      -7.349   6.246  67.402  1.00  0.00    -0.082 N  
HETATM    2  H1  UNL     1      -8.302   5.940  67.595  1.00  0.00     0.000 HD 
HETATM    3  H2  UNL     1      -6.563   6.177  68.049  1.00  0.00     0.000 HD 
HETATM    4  S   UNL     1      -7.281   6.880  65.852  1.00  0.00    -0.075 S  
HETATM    5  O   UNL     1      -7.954   5.903  65.031  1.00  0.00    -0.109 OA 
HETATM    6  O   UNL     1      -5.935   7.312  65.580  1.00  0.00    -0.036 OA 
ENDROOT
BRANCH   4   7
HETATM    7  C   UNL     1      -8.319   8.315  66.003  1.00  0.00    -0.128 A  
HETATM    8  C   UNL     1      -8.795   8.602  67.285  1.00  0.00    -0.141 A  
HETATM    9  C   UNL     1      -9.544   9.755  67.511  1.00  0.00    -0.150 A  
HETATM   10  C   UNL     1      -9.859  10.653  66.497  1.00  0.00    -0.204 A  
HETATM   11  C   UNL     1      -9.369  10.351  65.215  1.00  0.00    -0.263 A  
HETATM   12  N   UNL     1     -10.483  11.881  66.733  1.00  0.00    -0.216 NA 
HETATM   13  H   UNL     1     -10.367  12.660  66.085  1.00  0.00     0.000 HD 
HETATM   14  C   UNL     1     -11.304  12.017  67.931  1.00  0.00    -0.305 C  
HETATM   15  C   UNL     1      -8.611   9.173  64.932  1.00  0.00    -0.208 A  
HETATM   16  N   UNL     1     -10.489  11.711  69.102  1.00  0.00    -0.405 N  
HETATM   17  O   UNL     1     -11.284   9.356  69.384  1.00  0.00    -0.137 OA 
HETATM   18  C   UNL     1      -8.192   8.969  63.493  1.00  0.00    -0.178 C  
HETATM   19  F   UNL     1      -7.405   7.900  63.216  1.00  0.00    -0.086 F  
HETATM   20  F   UNL     1      -9.275   8.844  62.673  1.00  0.00    -0.169 F  
HETATM   21  S   UNL     1     -10.061  10.091  69.149  1.00  0.00    -0.223 S  
HETATM   22  F   UNL     1      -7.503  10.045  63.013  1.00  0.00    -0.121 F  
HETATM   23  O   UNL     1      -8.927   9.979  70.036  1.00  0.00    -0.195 OA 
HETATM   24  H   UNL     1     -10.214  12.398  69.804  1.00  0.00     0.000 HD 
BRANCH  14  25
HETATM   25  C   UNL     1     -11.831  13.466  68.087  1.00  0.00    -0.396 C  
BRANCH  25  26
HETATM   26  C   UNL     1     -11.705  14.292  66.828  1.00  0.00    -0.424 A  
HETATM   27  C   UNL     1     -12.495  14.015  65.704  1.00  0.00    -0.531 A  
HETATM   28  C   UNL     1     -12.287  14.706  64.510  1.00  0.00    -0.416 A  
HETATM   29  C   UNL     1     -11.311  15.699  64.441  1.00  0.00    -0.272 A  
HETATM   30  C   UNL     1     -10.566  16.025  65.572  1.00  0.00    -0.415 A  
HETATM   31  C   UNL     1     -10.764  15.328  66.763  1.00  0.00    -0.313 A  
ENDBRANCH  25  26
ENDBRANCH  14  25
ENDBRANCH   4   7
TORSDOF 3
ENDMDL
MODEL       75
REMARK 921   NORMALIZED FREE ENERGY PREDICTED BY IDOCK:   -5.21 KCAL/MOL
REMARK 922        TOTAL FREE ENERGY PREDICTED BY IDOCK:   -6.26 KCAL/MOL
REMARK 923 INTER-LIGAND FREE ENERGY PREDICTED BY IDOCK:   -6.04 KCAL/MOL
REMARK 924 INTRA-LIGAND FREE ENERGY PREDICTED BY IDOCK:   -0.22 KCAL/MOL
REMARK 927      BINDING AFFINITY PREDICTED BY RF-SCORE:    0.00 PKD
ROOT
HETATM    1  N   UNL     1     -11.073  13.342  63.487  1.00  0.00    -0.494 N  
HETATM    2  H1  UNL     1     -11.647  12.533  63.723  1.00  0.00     0.000 HD 
HETATM    3  H2  UNL     1     -10.479  13.426  62.662  1.00  0.00     0.000 HD 
HETATM    4  S   UNL     1     -11.262  14.511  64.673  1.00  0.00    -0.318 S  
HETATM    5  O   UNL     1     -12.689  14.611  64.860  1.00  0.00    -0.504 OA 
HETATM    6  O   UNL     1     -10.451  15.653  64.340  1.00  0.00    -0.164 OA 
ENDROOT
BRANCH   4   7
HETATM    7  C   UNL     1     -10.554  13.705  66.091  1.00  0.00    -0.291 A  
HETATM    8  C   UNL     1     -10.079  12.406  65.890  1.00  0.00    -0.272 A  
HETATM    9  C   UNL     1      -9.431  11.732  66.923  1.00  0.00    -0.193 A  
HETATM   10  C   UNL     1      -9.236  12.296  68.178  1.00  0.00    -0.197 A  
HETATM   11  C   UNL     1      -9.717  13.604  68.362  1.00  0.00    -0.217 A  
HETATM   12  N   UNL     1      -8.465  11.692  69.175  1.00  0.00    -0.358 NA 
HETATM   13  H   UNL     1      -8.026  12.249  69.908  1.00  0.00     0.000 HD 
HETATM   14  C   UNL     1      -8.306  10.242  69.137  1.00  0.00    -0.154 C  
HETATM   15  C   UNL     1     -10.401  14.328  67.338  1.00  0.00    -0.259 A  
HETATM   16  N   UNL     1      -7.732   9.861  67.852  1.00  0.00    -0.090 N  
HETATM   17  O   UNL     1      -9.887   9.189  66.775  1.00  0.00    -0.187 OA 
HETATM   18  C   UNL     1     -10.895  15.711  67.703  1.00  0.00    -0.307 C  
HETATM   19  F   UNL     1     -11.477  16.447  66.725  1.00  0.00     0.070 F  
HETATM   20  F   UNL     1     -11.812  15.660  68.713  1.00  0.00    -0.339 F  
HETATM   21  S   UNL     1      -8.805  10.131  66.593  1.00  0.00    -0.132 S  
HETATM   22  F   UNL     1      -9.884  16.495  68.179  1.00  0.00    -0.228 F  
HETATM   23  O   UNL     1      -8.028  10.167  65.376  1.00  0.00    -0.133 OA 
HETATM   24  H   UNL     1      -6.794   9.477  67.734  1.00  0.00     0.000 HD 
BRANCH  14  25
HETATM   25  C   UNL     1      -7.341   9.757  70.249  1.00  0.00    -0.165 C  
BRANCH  25  26
HETATM   26  C   UNL     1      -8.001   8.864  71.274  1.00  0.00    -0.172 A  
HETATM   27  C   UNL     1      -7.245   8.230  72.269  1.00  0.00    -0.121 A  
HETATM   28  C   UNL     1      -7.845   7.316  73.134  1.00  0.00    -0.114 A  
HETATM   29  C   UNL     1      -9.210   7.052  73.032  1.00  0.00    -0.163 A  
HETATM   30  C   UNL     1      -9.981   7.726  72.087  1.00  0.00    -0.249 A  
HETATM   31  C   UNL     1      -9.381   8.631  71.214  1.00  0.00    -0.288 A  
ENDBRANCH  25  26
ENDBRANCH  14  25
ENDBRANCH   4   7
TORSDOF 3
ENDMDL
MODEL       76
REMARK 921   NORMALIZED FREE ENERGY PREDICTED BY IDOCK:   -5.20 KCAL/MOL
REMARK 922        TOTAL FREE ENERGY PREDICTED BY IDOCK:   -6.25 KCAL/MOL
REMARK 923 INTER-LIGAND FREE ENERGY PREDICTED BY IDOCK:   -6.26 KCAL/MOL
REMARK 924 INTRA-LIGAND FREE ENERGY PREDICTED BY IDOCK:    0.01 KCAL/MOL
REMARK 927      BINDING AFFINITY PREDICTED BY RF-SCORE:    0.00 PKD
ROOT
HETATM    1  N   UNL     1      -9.960  15.079  67.818  1.00  0.00    -0.228 N  
HETATM    2  H1  UNL     1      -9.034  15.203  67.408  1.00  0.00     0.000 HD 
HETATM    3  H2  UNL     1     -10.186  15.166  68.809  1.00  0.00     0.000 HD 
HETATM    4  S   UNL     1     -11.052  14.708  66.601  1.00  0.00    -0.339 S  
HETATM    5  O   UNL     1     -10.793  15.686  65.571  1.00  0.00    -0.338 OA 
HETATM    6  O   UNL     1     -12.358  14.533  67.179  1.00  0.00    -0.290 OA 
ENDROOT
BRANCH   4   7
HETATM    7  C   UNL     1     -10.456  13.126  66.050  1.00  0.00    -0.284 A  
HETATM    8  C   UNL     1      -9.369  12.597  66.751  1.00  0.00    -0.232 A  
HETATM    9  C   UNL     1      -8.892  11.324  66.444  1.00  0.00    -0.182 A  
HETATM   10  C   UNL     1      -9.451  10.538  65.444  1.00  0.00    -0.223 A  
HETATM   11  C   UNL     1     -10.546  11.083  64.752  1.00  0.00    -0.350 A  
HETATM   12  N   UNL     1      -9.080   9.209  65.222  1.00  0.00    -0.293 NA 
HETATM   13  H   UNL     1      -9.722   8.552  64.778  1.00  0.00     0.000 HD 
HETATM   14  C   UNL     1      -7.748   8.787  65.644  1.00  0.00    -0.091 C  
HETATM   15  C   UNL     1     -11.059  12.389  65.020  1.00  0.00    -0.344 A  
HETATM   16  N   UNL     1      -7.597   9.048  67.070  1.00  0.00    -0.090 N  
HETATM   17  O   UNL     1      -6.336  11.194  66.827  1.00  0.00    -0.099 OA 
HETATM   18  C   UNL     1     -12.216  12.851  64.161  1.00  0.00    -0.414 C  
HETATM   19  F   UNL     1     -12.769  14.054  64.450  1.00  0.00    -0.355 F  
HETATM   20  F   UNL     1     -11.859  12.922  62.846  1.00  0.00    -0.535 F  
HETATM   21  S   UNL     1      -7.567  10.692  67.397  1.00  0.00    -0.096 S  
HETATM   22  F   UNL     1     -13.255  11.967  64.202  1.00  0.00    -0.520 F  
HETATM   23  O   UNL     1      -7.873  10.850  68.799  1.00  0.00    -0.116 OA 
HETATM   24  H   UNL     1      -7.520   8.321  67.782  1.00  0.00     0.000 HD 
BRANCH  14  25
HETATM   25  C   UNL     1      -7.545   7.268  65.417  1.00  0.00    -0.100 C  
BRANCH  25  26
HETATM   26  C   UNL     1      -8.029   6.415  66.566  1.00  0.00    -0.109 A  
HETATM   27  C   UNL     1      -7.124   5.856  67.478  1.00  0.00    -0.074 A  
HETATM   28  C   UNL     1      -7.571   4.975  68.463  1.00  0.00    -0.078 A  
HETATM   29  C   UNL     1      -8.927   4.671  68.562  1.00  0.00    -0.139 A  
HETATM   30  C   UNL     1      -9.842   5.272  67.700  1.00  0.00    -0.187 A  
HETATM   31  C   UNL     1      -9.396   6.144  66.708  1.00  0.00    -0.152 A  
ENDBRANCH  25  26
ENDBRANCH  14  25
ENDBRANCH   4   7
TORSDOF 3
ENDMDL
MODEL       77
REMARK 921   NORMALIZED FREE ENERGY PREDICTED BY IDOCK:   -5.17 KCAL/MOL
REMARK 922        TOTAL FREE ENERGY PREDICTED BY IDOCK:   -6.22 KCAL/MOL
REMARK 923 INTER-LIGAND FREE ENERGY PREDICTED BY IDOCK:   -7.03 KCAL/MOL
REMARK 924 INTRA-LIGAND FREE ENERGY PREDICTED BY IDOCK:    0.82 KCAL/MOL
REMARK 927      BINDING AFFINITY PREDICTED BY RF-SCORE:    0.00 PKD
ROOT
HETATM    1  N   UNL     1      -9.493   2.891  69.123  1.00  0.00    -0.135 N  
HETATM    2  H1  UNL     1      -9.870   2.871  68.175  1.00  0.00     0.000 HD 
HETATM    3  H2  UNL     1      -9.807   2.307  69.898  1.00  0.00     0.000 HD 
HETATM    4  S   UNL     1      -8.274   4.039  69.202  1.00  0.00    -0.069 S  
HETATM    5  O   UNL     1      -7.445   3.767  68.052  1.00  0.00    -0.061 OA 
HETATM    6  O   UNL     1      -7.742   4.067  70.539  1.00  0.00    -0.047 OA 
ENDROOT
BRANCH   4   7
HETATM    7  C   UNL     1      -9.176   5.544  68.916  1.00  0.00    -0.119 A  
HETATM    8  C   UNL     1      -9.199   6.460  69.971  1.00  0.00    -0.159 A  
HETATM    9  C   UNL     1      -9.809   7.702  69.805  1.00  0.00    -0.181 A  
HETATM   10  C   UNL     1     -10.418   8.082  68.615  1.00  0.00    -0.167 A  
HETATM   11  C   UNL     1     -10.382   7.151  67.563  1.00  0.00    -0.303 A  
HETATM   12  N   UNL     1     -10.904   9.372  68.386  1.00  0.00    -0.427 NA 
HETATM   13  H   UNL     1     -10.991   9.739  67.438  1.00  0.00     0.000 HD 
HETATM   14  C   UNL     1     -11.286  10.179  69.540  1.00  0.00    -0.238 C  
HETATM   15  C   UNL     1      -9.783   5.860  67.692  1.00  0.00    -0.122 A  
HETATM   16  N   UNL     1     -10.140  10.299  70.434  1.00  0.00    -0.371 N  
HETATM   17  O   UNL     1     -10.848   8.511  72.032  1.00  0.00    -0.286 OA 
HETATM   18  C   UNL     1      -9.862   4.954  66.482  1.00  0.00    -0.207 C  
HETATM   19  F   UNL     1      -9.232   3.756  66.555  1.00  0.00    -0.127 F  
HETATM   20  F   UNL     1     -11.156   4.665  66.162  1.00  0.00    -0.258 F  
HETATM   21  S   UNL     1      -9.754   8.830  71.142  1.00  0.00    -0.273 S  
HETATM   22  F   UNL     1      -9.346   5.555  65.371  1.00  0.00    -0.158 F  
HETATM   23  O   UNL     1      -8.395   8.934  71.619  1.00  0.00    -0.284 OA 
HETATM   24  H   UNL     1      -9.635  11.169  70.607  1.00  0.00     0.000 HD 
BRANCH  14  25
HETATM   25  C   UNL     1     -11.702  11.609  69.109  1.00  0.00    -0.390 C  
BRANCH  25  26
HETATM   26  C   UNL     1     -12.245  12.446  70.243  1.00  0.00    -0.345 A  
HETATM   27  C   UNL     1     -12.935  11.854  71.309  1.00  0.00    -0.334 A  
HETATM   28  C   UNL     1     -13.535  12.647  72.287  1.00  0.00    -0.541 A  
HETATM   29  C   UNL     1     -13.423  14.035  72.223  1.00  0.00    -0.597 A  
HETATM   30  C   UNL     1     -12.686  14.629  71.202  1.00  0.00    -0.409 A  
HETATM   31  C   UNL     1     -12.095  13.839  70.217  1.00  0.00    -0.425 A  
ENDBRANCH  25  26
ENDBRANCH  14  25
ENDBRANCH   4   7
TORSDOF 3
ENDMDL
MODEL       78
REMARK 921   NORMALIZED FREE ENERGY PREDICTED BY IDOCK:   -5.16 KCAL/MOL
REMARK 922        TOTAL FREE ENERGY PREDICTED BY IDOCK:   -6.20 KCAL/MOL
REMARK 923 INTER-LIGAND FREE ENERGY PREDICTED BY IDOCK:   -7.07 KCAL/MOL
REMARK 924 INTRA-LIGAND FREE ENERGY PREDICTED BY IDOCK:    0.86 KCAL/MOL
REMARK 927      BINDING AFFINITY PREDICTED BY RF-SCORE:    0.00 PKD
ROOT
HETATM    1  N   UNL     1     -11.405   9.666  68.039  1.00  0.00    -0.485 N  
HETATM    2  H1  UNL     1     -10.841   9.665  67.189  1.00  0.00     0.000 HD 
HETATM    3  H2  UNL     1     -12.331   9.251  68.136  1.00  0.00     0.000 HD 
HETATM    4  S   UNL     1     -10.564  10.461  69.252  1.00  0.00    -0.247 S  
HETATM    5  O   UNL     1      -9.240   9.888  69.210  1.00  0.00    -0.174 OA 
HETATM    6  O   UNL     1     -11.359  10.463  70.451  1.00  0.00    -0.297 OA 
ENDROOT
BRANCH   4   7
HETATM    7  C   UNL     1     -10.491  12.119  68.614  1.00  0.00    -0.216 A  
HETATM    8  C   UNL     1     -11.045  13.116  69.421  1.00  0.00    -0.140 A  
HETATM    9  C   UNL     1     -10.955  14.453  69.040  1.00  0.00    -0.256 A  
HETATM   10  C   UNL     1     -10.334  14.855  67.864  1.00  0.00    -0.237 A  
HETATM   11  C   UNL     1      -9.779  13.840  67.066  1.00  0.00    -0.251 A  
HETATM   12  N   UNL     1     -10.109  16.196  67.540  1.00  0.00    -0.251 NA 
HETATM   13  H   UNL     1      -9.355  16.463  66.907  1.00  0.00     0.000 HD 
HETATM   14  C   UNL     1     -10.984  17.203  68.131  1.00  0.00    -0.231 C  
HETATM   15  C   UNL     1      -9.861  12.455  67.407  1.00  0.00    -0.199 A  
HETATM   16  N   UNL     1     -10.923  17.090  69.584  1.00  0.00    -0.337 N  
HETATM   17  O   UNL     1     -13.030  15.770  69.848  1.00  0.00    -0.105 OA 
HETATM   18  C   UNL     1      -9.251  11.480  66.425  1.00  0.00    -0.208 C  
HETATM   19  F   UNL     1      -9.247  10.168  66.766  1.00  0.00    -0.154 F  
HETATM   20  F   UNL     1      -9.877  11.538  65.214  1.00  0.00    -0.239 F  
HETATM   21  S   UNL     1     -11.615  15.662  70.121  1.00  0.00    -0.384 S  
HETATM   22  F   UNL     1      -7.945  11.779  66.166  1.00  0.00    -0.075 F  
HETATM   23  O   UNL     1     -11.116  15.426  71.456  1.00  0.00    -0.363 OA 
HETATM   24  H   UNL     1     -10.510  17.794  70.197  1.00  0.00     0.000 HD 
BRANCH  14  25
HETATM   25  C   UNL     1     -10.529  18.634  67.748  1.00  0.00    -0.457 C  
BRANCH  25  26
HETATM   26  C   UNL     1      -9.029  18.783  67.646  1.00  0.00    -0.299 A  
HETATM   27  C   UNL     1      -8.249  19.007  68.789  1.00  0.00    -0.369 A  
HETATM   28  C   UNL     1      -6.883  19.262  68.670  1.00  0.00    -0.336 A  
HETATM   29  C   UNL     1      -6.282  19.265  67.413  1.00  0.00    -0.198 A  
HETATM   30  C   UNL     1      -7.037  18.981  66.278  1.00  0.00    -0.263 A  
HETATM   31  C   UNL     1      -8.405  18.737  66.393  1.00  0.00    -0.294 A  
ENDBRANCH  25  26
ENDBRANCH  14  25
ENDBRANCH   4   7
TORSDOF 3
ENDMDL
MODEL       79
REMARK 921   NORMALIZED FREE ENERGY PREDICTED BY IDOCK:   -5.15 KCAL/MOL
REMARK 922        TOTAL FREE ENERGY PREDICTED BY IDOCK:   -6.19 KCAL/MOL
REMARK 923 INTER-LIGAND FREE ENERGY PREDICTED BY IDOCK:   -6.29 KCAL/MOL
REMARK 924 INTRA-LIGAND FREE ENERGY PREDICTED BY IDOCK:    0.10 KCAL/MOL
REMARK 927      BINDING AFFINITY PREDICTED BY RF-SCORE:    0.00 PKD
ROOT
HETATM    1  N   UNL     1      -6.960  16.982  67.914  1.00  0.00    -0.156 N  
HETATM    2  H1  UNL     1      -6.268  16.514  67.330  1.00  0.00     0.000 HD 
HETATM    3  H2  UNL     1      -6.759  17.504  68.767  1.00  0.00     0.000 HD 
HETATM    4  S   UNL     1      -8.481  16.757  67.247  1.00  0.00    -0.190 S  
HETATM    5  O   UNL     1      -8.315  17.075  65.849  1.00  0.00    -0.515 OA 
HETATM    6  O   UNL     1      -9.458  17.418  68.072  1.00  0.00    -0.266 OA 
ENDROOT
BRANCH   4   7
HETATM    7  C   UNL     1      -8.691  14.999  67.413  1.00  0.00    -0.194 A  
HETATM    8  C   UNL     1      -7.698  14.322  68.125  1.00  0.00    -0.141 A  
HETATM    9  C   UNL     1      -7.825  12.958  68.378  1.00  0.00    -0.133 A  
HETATM   10  C   UNL     1      -8.914  12.215  67.938  1.00  0.00    -0.184 A  
HETATM   11  C   UNL     1      -9.907  12.912  67.227  1.00  0.00    -0.218 A  
HETATM   12  N   UNL     1      -9.127  10.884  68.306  1.00  0.00    -0.151 NA 
HETATM   13  H   UNL     1     -10.065  10.483  68.305  1.00  0.00     0.000 HD 
HETATM   14  C   UNL     1      -7.970  10.082  68.690  1.00  0.00    -0.097 C  
HETATM   15  C   UNL     1      -9.811  14.306  66.930  1.00  0.00    -0.264 A  
HETATM   16  N   UNL     1      -7.289  10.736  69.802  1.00  0.00    -0.318 N  
HETATM   17  O   UNL     1      -5.501  11.822  68.430  1.00  0.00    -0.046 OA 
HETATM   18  C   UNL     1     -10.940  14.903  66.119  1.00  0.00    -0.334 C  
HETATM   19  F   UNL     1     -10.910  16.239  65.893  1.00  0.00    -0.307 F  
HETATM   20  F   UNL     1     -11.023  14.328  64.885  1.00  0.00    -0.328 F  
HETATM   21  S   UNL     1      -6.578  12.178  69.327  1.00  0.00    -0.083 S  
HETATM   22  F   UNL     1     -12.153  14.672  66.702  1.00  0.00    -0.396 F  
HETATM   23  O   UNL     1      -6.342  12.948  70.525  1.00  0.00    -0.029 OA 
HETATM   24  H   UNL     1      -7.250  10.363  70.750  1.00  0.00     0.000 HD 
BRANCH  14  25
HETATM   25  C   UNL     1      -8.400   8.671  69.164  1.00  0.00    -0.119 C  
BRANCH  25  26
HETATM   26  C   UNL     1      -9.434   8.692  70.264  1.00  0.00    -0.182 A  
HETATM   27  C   UNL     1      -9.081   8.403  71.590  1.00  0.00    -0.268 A  
HETATM   28  C   UNL     1     -10.063   8.309  72.575  1.00  0.00    -0.376 A  
HETATM   29  C   UNL     1     -11.400   8.532  72.251  1.00  0.00    -0.441 A  
HETATM   30  C   UNL     1     -11.753   8.882  70.949  1.00  0.00    -0.312 A  
HETATM   31  C   UNL     1     -10.774   8.966  69.960  1.00  0.00    -0.241 A  
ENDBRANCH  25  26
ENDBRANCH  14  25
ENDBRANCH   4   7
TORSDOF 3
ENDMDL
MODEL       80
REMARK 921   NORMALIZED FREE ENERGY PREDICTED BY IDOCK:   -5.07 KCAL/MOL
REMARK 922        TOTAL FREE ENERGY PREDICTED BY IDOCK:   -6.10 KCAL/MOL
REMARK 923 INTER-LIGAND FREE ENERGY PREDICTED BY IDOCK:   -6.89 KCAL/MOL
REMARK 924 INTRA-LIGAND FREE ENERGY PREDICTED BY IDOCK:    0.79 KCAL/MOL
REMARK 927      BINDING AFFINITY PREDICTED BY RF-SCORE:    0.00 PKD
ROOT
HETATM    1  N   UNL     1      -9.496  15.977  69.576  1.00  0.00    -0.226 N  
HETATM    2  H1  UNL     1      -8.631  15.437  69.565  1.00  0.00     0.000 HD 
HETATM    3  H2  UNL     1      -9.731  16.706  70.250  1.00  0.00     0.000 HD 
HETATM    4  S   UNL     1     -10.470  15.475  68.307  1.00  0.00    -0.248 S  
HETATM    5  O   UNL     1      -9.592  15.454  67.162  1.00  0.00    -0.208 OA 
HETATM    6  O   UNL     1     -11.691  16.237  68.322  1.00  0.00    -0.238 OA 
ENDROOT
BRANCH   4   7
HETATM    7  C   UNL     1     -10.839  13.800  68.776  1.00  0.00    -0.259 A  
HETATM    8  C   UNL     1     -10.201  12.798  68.041  1.00  0.00    -0.228 A  
HETATM    9  C   UNL     1     -10.364  11.460  68.395  1.00  0.00    -0.195 A  
HETATM   10  C   UNL     1     -11.157  11.061  69.464  1.00  0.00    -0.263 A  
HETATM   11  C   UNL     1     -11.789  12.082  70.196  1.00  0.00    -0.383 A  
HETATM   12  N   UNL     1     -11.216   9.741  69.919  1.00  0.00    -0.295 NA 
HETATM   13  H   UNL     1     -11.474   9.530  70.883  1.00  0.00     0.000 HD 
HETATM   14  C   UNL     1     -10.898   8.673  68.977  1.00  0.00    -0.019 C  
HETATM   15  C   UNL     1     -11.664  13.465  69.860  1.00  0.00    -0.337 A  
HETATM   16  N   UNL     1      -9.556   8.892  68.449  1.00  0.00    -0.144 N  
HETATM   17  O   UNL     1     -10.275   9.947  66.298  1.00  0.00    -0.243 OA 
HETATM   18  C   UNL     1     -12.439  14.441  70.718  1.00  0.00    -0.352 C  
HETATM   19  F   UNL     1     -12.273  15.763  70.468  1.00  0.00    -0.342 F  
HETATM   20  F   UNL     1     -13.783  14.221  70.630  1.00  0.00    -0.277 F  
HETATM   21  S   UNL     1      -9.492  10.253  67.474  1.00  0.00    -0.153 S  
HETATM   22  F   UNL     1     -12.139  14.294  72.041  1.00  0.00    -0.354 F  
HETATM   23  O   UNL     1      -8.104  10.641  67.380  1.00  0.00    -0.110 OA 
HETATM   24  H   UNL     1      -8.756   8.290  68.647  1.00  0.00     0.000 HD 
BRANCH  14  25
HETATM   25  C   UNL     1     -10.912   7.290  69.675  1.00  0.00    -0.204 C  
BRANCH  25  26
HETATM   26  C   UNL     1     -10.585   6.143  68.748  1.00  0.00    -0.330 A  
HETATM   27  C   UNL     1      -9.926   4.999  69.222  1.00  0.00    -0.277 A  
HETATM   28  C   UNL     1      -9.524   4.001  68.336  1.00  0.00    -0.211 A  
HETATM   29  C   UNL     1      -9.804   4.122  66.976  1.00  0.00    -0.190 A  
HETATM   30  C   UNL     1     -10.514   5.224  66.505  1.00  0.00    -0.354 A  
HETATM   31  C   UNL     1     -10.908   6.229  67.388  1.00  0.00    -0.448 A  
ENDBRANCH  25  26
ENDBRANCH  14  25
ENDBRANCH   4   7
TORSDOF 3
ENDMDL
MODEL       81
REMARK 921   NORMALIZED FREE ENERGY PREDICTED BY IDOCK:   -5.07 KCAL/MOL
REMARK 922        TOTAL FREE ENERGY PREDICTED BY IDOCK:   -6.10 KCAL/MOL
REMARK 923 INTER-LIGAND FREE ENERGY PREDICTED BY IDOCK:   -7.13 KCAL/MOL
REMARK 924 INTRA-LIGAND FREE ENERGY PREDICTED BY IDOCK:    1.03 KCAL/MOL
REMARK 927      BINDING AFFINITY PREDICTED BY RF-SCORE:    0.00 PKD
ROOT
HETATM    1  N   UNL     1     -11.239  13.639  63.667  1.00  0.00    -0.461 N  
HETATM    2  H1  UNL     1     -10.517  13.133  63.155  1.00  0.00     0.000 HD 
HETATM    3  H2  UNL     1     -11.305  14.653  63.753  1.00  0.00     0.000 HD 
HETATM    4  S   UNL     1     -12.302  12.534  64.347  1.00  0.00    -0.433 S  
HETATM    5  O   UNL     1     -12.617  11.625  63.272  1.00  0.00    -0.491 OA 
HETATM    6  O   UNL     1     -13.321  13.248  65.071  1.00  0.00    -0.587 OA 
ENDROOT
BRANCH   4   7
HETATM    7  C   UNL     1     -11.254  11.698  65.515  1.00  0.00    -0.205 A  
HETATM    8  C   UNL     1     -11.640  11.774  66.856  1.00  0.00    -0.310 A  
HETATM    9  C   UNL     1     -10.927  11.077  67.830  1.00  0.00    -0.269 A  
HETATM   10  C   UNL     1      -9.817  10.297  67.527  1.00  0.00    -0.173 A  
HETATM   11  C   UNL     1      -9.445  10.227  66.174  1.00  0.00    -0.229 A  
HETATM   12  N   UNL     1      -9.181   9.479  68.466  1.00  0.00    -0.131 NA 
HETATM   13  H   UNL     1      -8.647   8.662  68.173  1.00  0.00     0.000 HD 
HETATM   14  C   UNL     1      -9.303   9.829  69.878  1.00  0.00    -0.231 C  
HETATM   15  C   UNL     1     -10.136  10.937  65.144  1.00  0.00    -0.352 A  
HETATM   16  N   UNL     1     -10.716   9.882  70.233  1.00  0.00    -0.290 N  
HETATM   17  O   UNL     1     -10.950  12.366  70.073  1.00  0.00     0.271 OA 
HETATM   18  C   UNL     1      -9.589  10.794  63.741  1.00  0.00    -0.295 C  
HETATM   19  F   UNL     1     -10.274  11.395  62.737  1.00  0.00    -0.279 F  
HETATM   20  F   UNL     1      -8.316  11.280  63.653  1.00  0.00     0.066 F  
HETATM   21  S   UNL     1     -11.494  11.163  69.483  1.00  0.00    -0.334 S  
HETATM   22  F   UNL     1      -9.497   9.485  63.369  1.00  0.00    -0.263 F  
HETATM   23  O   UNL     1     -12.909  10.876  69.515  1.00  0.00    -0.211 OA 
HETATM   24  H   UNL     1     -11.175   9.220  70.860  1.00  0.00     0.000 HD 
BRANCH  14  25
HETATM   25  C   UNL     1      -8.628   8.764  70.778  1.00  0.00    -0.218 C  
BRANCH  25  26
HETATM   26  C   UNL     1      -9.600   7.777  71.379  1.00  0.00    -0.182 A  
HETATM   27  C   UNL     1     -10.087   6.697  70.630  1.00  0.00    -0.205 A  
HETATM   28  C   UNL     1     -11.073   5.863  71.155  1.00  0.00    -0.305 A  
HETATM   29  C   UNL     1     -11.558   6.083  72.443  1.00  0.00    -0.349 A  
HETATM   30  C   UNL     1     -11.034   7.114  73.219  1.00  0.00    -0.325 A  
HETATM   31  C   UNL     1     -10.056   7.956  72.692  1.00  0.00    -0.343 A  
ENDBRANCH  25  26
ENDBRANCH  14  25
ENDBRANCH   4   7
TORSDOF 3
ENDMDL
MODEL       82
REMARK 921   NORMALIZED FREE ENERGY PREDICTED BY IDOCK:   -5.05 KCAL/MOL
REMARK 922        TOTAL FREE ENERGY PREDICTED BY IDOCK:   -6.08 KCAL/MOL
REMARK 923 INTER-LIGAND FREE ENERGY PREDICTED BY IDOCK:   -6.46 KCAL/MOL
REMARK 924 INTRA-LIGAND FREE ENERGY PREDICTED BY IDOCK:    0.38 KCAL/MOL
REMARK 927      BINDING AFFINITY PREDICTED BY RF-SCORE:    0.00 PKD
ROOT
HETATM    1  N   UNL     1     -11.214  11.259  63.438  1.00  0.00    -0.779 N  
HETATM    2  H1  UNL     1     -11.925  10.540  63.571  1.00  0.00     0.000 HD 
HETATM    3  H2  UNL     1     -10.483  11.245  62.727  1.00  0.00     0.000 HD 
HETATM    4  S   UNL     1     -11.440  12.467  64.579  1.00  0.00    -0.356 S  
HETATM    5  O   UNL     1     -12.851  12.763  64.518  1.00  0.00    -0.701 OA 
HETATM    6  O   UNL     1     -10.436  13.482  64.392  1.00  0.00    -0.430 OA 
ENDROOT
BRANCH   4   7
HETATM    7  C   UNL     1     -11.100  11.602  66.094  1.00  0.00    -0.280 A  
HETATM    8  C   UNL     1     -10.747  10.255  65.971  1.00  0.00    -0.017 A  
HETATM    9  C   UNL     1     -10.380   9.523  67.099  1.00  0.00    -0.253 A  
HETATM   10  C   UNL     1     -10.356  10.076  68.374  1.00  0.00    -0.191 A  
HETATM   11  C   UNL     1     -10.711  11.432  68.479  1.00  0.00    -0.235 A  
HETATM   12  N   UNL     1      -9.855   9.400  69.489  1.00  0.00    -0.174 NA 
HETATM   13  H   UNL     1      -9.497   9.912  70.295  1.00  0.00     0.000 HD 
HETATM   14  C   UNL     1      -9.856   7.941  69.467  1.00  0.00    -0.176 C  
HETATM   15  C   UNL     1     -11.110  12.218  67.354  1.00  0.00    -0.333 A  
HETATM   16  N   UNL     1      -9.103   7.483  68.306  1.00  0.00    -0.133 N  
HETATM   17  O   UNL     1     -11.085   7.047  66.844  1.00  0.00    -0.359 OA 
HETATM   18  C   UNL     1     -11.502  13.651  67.636  1.00  0.00    -0.325 C  
HETATM   19  F   UNL     1     -11.808  14.437  66.575  1.00  0.00    -0.356 F  
HETATM   20  F   UNL     1     -12.589  13.715  68.460  1.00  0.00    -0.247 F  
HETATM   21  S   UNL     1      -9.889   7.858  66.874  1.00  0.00    -0.261 S  
HETATM   22  F   UNL     1     -10.514  14.322  68.297  1.00  0.00    -0.226 F  
HETATM   23  O   UNL     1      -8.903   7.793  65.820  1.00  0.00    -0.160 OA 
HETATM   24  H   UNL     1      -8.208   6.995  68.358  1.00  0.00     0.000 HD 
BRANCH  14  25
HETATM   25  C   UNL     1      -9.174   7.362  70.732  1.00  0.00    -0.159 C  
BRANCH  25  26
HETATM   26  C   UNL     1      -7.779   7.894  70.963  1.00  0.00    -0.084 A  
HETATM   27  C   UNL     1      -7.418   8.457  72.195  1.00  0.00    -0.146 A  
HETATM   28  C   UNL     1      -6.167   9.052  72.358  1.00  0.00     0.028 A  
HETATM   29  C   UNL     1      -5.258   9.062  71.302  1.00  0.00    -0.037 A  
HETATM   30  C   UNL     1      -5.584   8.449  70.094  1.00  0.00    -0.021 A  
HETATM   31  C   UNL     1      -6.838   7.863  69.926  1.00  0.00    -0.045 A  
ENDBRANCH  25  26
ENDBRANCH  14  25
ENDBRANCH   4   7
TORSDOF 3
ENDMDL
MODEL       83
REMARK 921   NORMALIZED FREE ENERGY PREDICTED BY IDOCK:   -5.04 KCAL/MOL
REMARK 922        TOTAL FREE ENERGY PREDICTED BY IDOCK:   -6.06 KCAL/MOL
REMARK 923 INTER-LIGAND FREE ENERGY PREDICTED BY IDOCK:   -5.93 KCAL/MOL
REMARK 924 INTRA-LIGAND FREE ENERGY PREDICTED BY IDOCK:   -0.13 KCAL/MOL
REMARK 927      BINDING AFFINITY PREDICTED BY RF-SCORE:    0.00 PKD
ROOT
HETATM    1  N   UNL     1     -11.027   6.086  70.072  1.00  0.00    -0.357 N  
HETATM    2  H1  UNL     1     -11.309   6.181  69.096  1.00  0.00     0.000 HD 
HETATM    3  H2  UNL     1     -11.659   5.946  70.860  1.00  0.00     0.000 HD 
HETATM    4  S   UNL     1      -9.357   6.196  70.171  1.00  0.00    -0.156 S  
HETATM    5  O   UNL     1      -8.873   5.307  69.142  1.00  0.00    -0.099 OA 
HETATM    6  O   UNL     1      -8.959   6.063  71.548  1.00  0.00    -0.142 OA 
ENDROOT
BRANCH   4   7
HETATM    7  C   UNL     1      -9.075   7.875  69.657  1.00  0.00    -0.153 A  
HETATM    8  C   UNL     1     -10.203   8.696  69.582  1.00  0.00    -0.208 A  
HETATM    9  C   UNL     1     -10.065  10.047  69.272  1.00  0.00    -0.213 A  
HETATM   10  C   UNL     1      -8.830  10.633  69.018  1.00  0.00    -0.148 A  
HETATM   11  C   UNL     1      -7.706   9.794  69.101  1.00  0.00    -0.092 A  
HETATM   12  N   UNL     1      -8.660  12.010  68.848  1.00  0.00    -0.365 NA 
HETATM   13  H   UNL     1      -7.762  12.455  69.040  1.00  0.00     0.000 HD 
HETATM   14  C   UNL     1      -9.802  12.793  68.389  1.00  0.00    -0.196 C  
HETATM   15  C   UNL     1      -7.800   8.400  69.399  1.00  0.00    -0.103 A  
HETATM   16  N   UNL     1     -10.911  12.603  69.316  1.00  0.00    -0.436 N  
HETATM   17  O   UNL     1     -12.123  10.893  67.952  1.00  0.00    -0.527 OA 
HETATM   18  C   UNL     1      -6.503   7.622  69.412  1.00  0.00    -0.035 C  
HETATM   19  F   UNL     1      -6.559   6.316  69.770  1.00  0.00    -0.037 F  
HETATM   20  F   UNL     1      -5.904   7.637  68.186  1.00  0.00    -0.032 F  
HETATM   21  S   UNL     1     -11.508  11.038  69.252  1.00  0.00    -0.330 S  
HETATM   22  F   UNL     1      -5.591   8.180  70.261  1.00  0.00    -0.023 F  
HETATM   23  O   UNL     1     -12.251  10.818  70.471  1.00  0.00    -0.304 OA 
HETATM   24  H   UNL     1     -11.279  13.332  69.928  1.00  0.00     0.000 HD 
BRANCH  14  25
HETATM   25  C   UNL     1      -9.466  14.306  68.357  1.00  0.00    -0.213 C  
BRANCH  25  26
HETATM   26  C   UNL     1     -10.013  15.020  67.144  1.00  0.00    -0.237 A  
HETATM   27  C   UNL     1     -10.657  14.312  66.120  1.00  0.00    -0.293 A  
HETATM   28  C   UNL     1     -11.051  14.964  64.952  1.00  0.00    -0.424 A  
HETATM   29  C   UNL     1     -10.833  16.333  64.811  1.00  0.00    -0.245 A  
HETATM   30  C   UNL     1     -10.251  17.057  65.850  1.00  0.00    -0.311 A  
HETATM   31  C   UNL     1      -9.846  16.405  67.013  1.00  0.00    -0.253 A  
ENDBRANCH  25  26
ENDBRANCH  14  25
ENDBRANCH   4   7
TORSDOF 3
ENDMDL
MODEL       84
REMARK 921   NORMALIZED FREE ENERGY PREDICTED BY IDOCK:   -5.04 KCAL/MOL
REMARK 922        TOTAL FREE ENERGY PREDICTED BY IDOCK:   -6.06 KCAL/MOL
REMARK 923 INTER-LIGAND FREE ENERGY PREDICTED BY IDOCK:   -5.82 KCAL/MOL
REMARK 924 INTRA-LIGAND FREE ENERGY PREDICTED BY IDOCK:   -0.24 KCAL/MOL
REMARK 927      BINDING AFFINITY PREDICTED BY RF-SCORE:    0.00 PKD
ROOT
HETATM    1  N   UNL     1     -11.423  11.799  64.616  1.00  0.00    -0.275 N  
HETATM    2  H1  UNL     1     -11.065  12.484  63.950  1.00  0.00     0.000 HD 
HETATM    3  H2  UNL     1     -12.397  11.701  64.900  1.00  0.00     0.000 HD 
HETATM    4  S   UNL     1     -10.150  10.858  65.168  1.00  0.00    -0.308 S  
HETATM    5  O   UNL     1      -9.441  10.469  63.973  1.00  0.00    -0.238 OA 
HETATM    6  O   UNL     1     -10.654   9.891  66.108  1.00  0.00    -0.121 OA 
ENDROOT
BRANCH   4   7
HETATM    7  C   UNL     1      -9.173  12.053  66.051  1.00  0.00    -0.149 A  
HETATM    8  C   UNL     1      -9.689  13.350  66.110  1.00  0.00    -0.260 A  
HETATM    9  C   UNL     1      -9.034  14.330  66.853  1.00  0.00    -0.236 A  
HETATM   10  C   UNL     1      -7.858  14.078  67.550  1.00  0.00    -0.184 A  
HETATM   11  C   UNL     1      -7.355  12.767  67.483  1.00  0.00    -0.153 A  
HETATM   12  N   UNL     1      -7.270  15.006  68.413  1.00  0.00    -0.107 NA 
HETATM   13  H   UNL     1      -6.664  14.702  69.175  1.00  0.00     0.000 HD 
HETATM   14  C   UNL     1      -7.546  16.422  68.193  1.00  0.00    -0.155 C  
HETATM   15  C   UNL     1      -7.983  11.735  66.721  1.00  0.00    -0.116 A  
HETATM   16  N   UNL     1      -8.987  16.637  68.241  1.00  0.00    -0.208 N  
HETATM   17  O   UNL     1      -9.346  16.657  65.766  1.00  0.00    -0.501 OA 
HETATM   18  C   UNL     1      -7.297  10.386  66.715  1.00  0.00    -0.110 C  
HETATM   19  F   UNL     1      -7.916   9.371  66.064  1.00  0.00    -0.105 F  
HETATM   20  F   UNL     1      -6.051  10.466  66.162  1.00  0.00    -0.065 F  
HETATM   21  S   UNL     1      -9.761  15.920  66.939  1.00  0.00    -0.238 S  
HETATM   22  F   UNL     1      -7.095   9.920  67.981  1.00  0.00    -0.077 F  
HETATM   23  O   UNL     1     -11.154  15.786  67.296  1.00  0.00    -0.302 OA 
HETATM   24  H   UNL     1      -9.465  17.159  68.976  1.00  0.00     0.000 HD 
BRANCH  14  25
HETATM   25  C   UNL     1      -6.900  17.295  69.299  1.00  0.00    -0.208 C  
BRANCH  25  26
HETATM   26  C   UNL     1      -6.350  18.606  68.788  1.00  0.00    -0.235 A  
HETATM   27  C   UNL     1      -6.038  19.649  69.672  1.00  0.00    -0.339 A  
HETATM   28  C   UNL     1      -5.645  20.893  69.181  1.00  0.00    -0.394 A  
HETATM   29  C   UNL     1      -5.530  21.096  67.807  1.00  0.00    -0.369 A  
HETATM   30  C   UNL     1      -5.775  20.046  66.924  1.00  0.00    -0.183 A  
HETATM   31  C   UNL     1      -6.180  18.805  67.412  1.00  0.00    -0.185 A  
ENDBRANCH  25  26
ENDBRANCH  14  25
ENDBRANCH   4   7
TORSDOF 3
ENDMDL
MODEL       85
REMARK 921   NORMALIZED FREE ENERGY PREDICTED BY IDOCK:   -5.03 KCAL/MOL
REMARK 922        TOTAL FREE ENERGY PREDICTED BY IDOCK:   -6.05 KCAL/MOL
REMARK 923 INTER-LIGAND FREE ENERGY PREDICTED BY IDOCK:   -6.57 KCAL/MOL
REMARK 924 INTRA-LIGAND FREE ENERGY PREDICTED BY IDOCK:    0.52 KCAL/MOL
REMARK 927      BINDING AFFINITY PREDICTED BY RF-SCORE:    0.00 PKD
ROOT
HETATM    1  N   UNL     1     -10.774  10.071  66.386  1.00  0.00    -0.063 N  
HETATM    2  H1  UNL     1      -9.806   9.837  66.163  1.00  0.00     0.000 HD 
HETATM    3  H2  UNL     1     -11.581   9.878  65.794  1.00  0.00     0.000 HD 
HETATM    4  S   UNL     1     -10.823  10.823  67.883  1.00  0.00    -0.286 S  
HETATM    5  O   UNL     1     -10.020   9.983  68.739  1.00  0.00    -0.159 OA 
HETATM    6  O   UNL     1     -12.188  11.154  68.197  1.00  0.00    -0.612 OA 
ENDROOT
BRANCH   4   7
HETATM    7  C   UNL     1      -9.933  12.328  67.560  1.00  0.00    -0.199 A  
HETATM    8  C   UNL     1      -8.749  12.512  68.279  1.00  0.00    -0.171 A  
HETATM    9  C   UNL     1      -7.943  13.621  68.027  1.00  0.00    -0.154 A  
HETATM   10  C   UNL     1      -8.271  14.583  67.079  1.00  0.00    -0.135 A  
HETATM   11  C   UNL     1      -9.463  14.380  66.363  1.00  0.00    -0.309 A  
HETATM   12  N   UNL     1      -7.406  15.618  66.714  1.00  0.00    -0.223 NA 
HETATM   13  H   UNL     1      -7.479  16.064  65.800  1.00  0.00     0.000 HD 
HETATM   14  C   UNL     1      -6.397  16.045  67.678  1.00  0.00    -0.162 C  
HETATM   15  C   UNL     1     -10.328  13.268  66.598  1.00  0.00    -0.274 A  
HETATM   16  N   UNL     1      -5.573  14.898  68.040  1.00  0.00    -0.133 N  
HETATM   17  O   UNL     1      -6.742  14.382  70.189  1.00  0.00    -0.143 OA 
HETATM   18  C   UNL     1     -11.596  13.213  65.774  1.00  0.00    -0.347 C  
HETATM   19  F   UNL     1     -12.393  12.126  65.924  1.00  0.00    -0.405 F  
HETATM   20  F   UNL     1     -12.398  14.288  66.025  1.00  0.00    -0.409 F  
HETATM   21  S   UNL     1      -6.442  13.765  68.917  1.00  0.00    -0.106 S  
HETATM   22  F   UNL     1     -11.329  13.271  64.437  1.00  0.00    -0.335 F  
HETATM   23  O   UNL     1      -5.719  12.518  68.831  1.00  0.00    -0.064 OA 
HETATM   24  H   UNL     1      -4.588  14.797  67.790  1.00  0.00     0.000 HD 
BRANCH  14  25
HETATM   25  C   UNL     1      -5.466  17.125  67.072  1.00  0.00    -0.200 C  
BRANCH  25  26
HETATM   26  C   UNL     1      -6.017  18.527  67.180  1.00  0.00    -0.171 A  
HETATM   27  C   UNL     1      -6.676  19.127  66.098  1.00  0.00    -0.243 A  
HETATM   28  C   UNL     1      -7.074  20.461  66.168  1.00  0.00    -0.273 A  
HETATM   29  C   UNL     1      -6.845  21.196  67.330  1.00  0.00    -0.408 A  
HETATM   30  C   UNL     1      -6.248  20.590  68.433  1.00  0.00    -0.359 A  
HETATM   31  C   UNL     1      -5.839  19.259  68.361  1.00  0.00    -0.227 A  
ENDBRANCH  25  26
ENDBRANCH  14  25
ENDBRANCH   4   7
TORSDOF 3
ENDMDL
MODEL       86
REMARK 921   NORMALIZED FREE ENERGY PREDICTED BY IDOCK:   -4.99 KCAL/MOL
REMARK 922        TOTAL FREE ENERGY PREDICTED BY IDOCK:   -6.01 KCAL/MOL
REMARK 923 INTER-LIGAND FREE ENERGY PREDICTED BY IDOCK:   -5.81 KCAL/MOL
REMARK 924 INTRA-LIGAND FREE ENERGY PREDICTED BY IDOCK:   -0.20 KCAL/MOL
REMARK 927      BINDING AFFINITY PREDICTED BY RF-SCORE:    0.00 PKD
ROOT
HETATM    1  N   UNL     1      -9.419   4.500  71.704  1.00  0.00    -0.143 N  
HETATM    2  H1  UNL     1     -10.407   4.746  71.641  1.00  0.00     0.000 HD 
HETATM    3  H2  UNL     1      -8.853   4.534  72.552  1.00  0.00     0.000 HD 
HETATM    4  S   UNL     1      -8.876   4.028  70.190  1.00  0.00    -0.091 S  
HETATM    5  O   UNL     1      -9.872   3.094  69.722  1.00  0.00    -0.030 OA 
HETATM    6  O   UNL     1      -7.482   3.680  70.279  1.00  0.00    -0.041 OA 
ENDROOT
BRANCH   4   7
HETATM    7  C   UNL     1      -9.028   5.539  69.265  1.00  0.00    -0.112 A  
HETATM    8  C   UNL     1      -9.397   6.674  69.992  1.00  0.00    -0.158 A  
HETATM    9  C   UNL     1      -9.456   7.917  69.365  1.00  0.00    -0.156 A  
HETATM   10  C   UNL     1      -9.168   8.087  68.016  1.00  0.00    -0.135 A  
HETATM   11  C   UNL     1      -8.795   6.936  67.300  1.00  0.00    -0.118 A  
HETATM   12  N   UNL     1      -9.082   9.343  67.407  1.00  0.00    -0.127 NA 
HETATM   13  H   UNL     1      -8.523   9.480  66.566  1.00  0.00     0.000 HD 
HETATM   14  C   UNL     1      -9.816  10.451  68.010  1.00  0.00    -0.150 C  
HETATM   15  C   UNL     1      -8.737   5.639  67.897  1.00  0.00    -0.107 A  
HETATM   16  N   UNL     1      -9.384  10.608  69.394  1.00  0.00    -0.392 N  
HETATM   17  O   UNL     1     -11.306   9.383  70.423  1.00  0.00    -0.250 OA 
HETATM   18  C   UNL     1      -8.360   4.493  66.985  1.00  0.00    -0.105 C  
HETATM   19  F   UNL     1      -8.221   3.266  67.546  1.00  0.00    -0.079 F  
HETATM   20  F   UNL     1      -9.274   4.333  65.984  1.00  0.00    -0.122 F  
HETATM   21  S   UNL     1      -9.865   9.311  70.340  1.00  0.00    -0.259 S  
HETATM   22  F   UNL     1      -7.174   4.725  66.351  1.00  0.00    -0.070 F  
HETATM   23  O   UNL     1      -9.036   9.321  71.523  1.00  0.00    -0.315 OA 
HETATM   24  H   UNL     1      -8.856  11.408  69.743  1.00  0.00     0.000 HD 
BRANCH  14  25
HETATM   25  C   UNL     1      -9.525  11.781  67.270  1.00  0.00    -0.173 C  
BRANCH  25  26
HETATM   26  C   UNL     1     -10.375  11.985  66.038  1.00  0.00    -0.271 A  
HETATM   27  C   UNL     1     -11.620  12.625  66.119  1.00  0.00    -0.445 A  
HETATM   28  C   UNL     1     -12.447  12.701  64.999  1.00  0.00    -0.556 A  
HETATM   29  C   UNL     1     -12.025  12.166  63.784  1.00  0.00    -0.607 A  
HETATM   30  C   UNL     1     -10.763  11.585  63.678  1.00  0.00    -0.491 A  
HETATM   31  C   UNL     1      -9.939  11.498  64.799  1.00  0.00    -0.304 A  
ENDBRANCH  25  26
ENDBRANCH  14  25
ENDBRANCH   4   7
TORSDOF 3
ENDMDL
MODEL       87
REMARK 921   NORMALIZED FREE ENERGY PREDICTED BY IDOCK:   -4.94 KCAL/MOL
REMARK 922        TOTAL FREE ENERGY PREDICTED BY IDOCK:   -5.94 KCAL/MOL
REMARK 923 INTER-LIGAND FREE ENERGY PREDICTED BY IDOCK:   -7.20 KCAL/MOL
REMARK 924 INTRA-LIGAND FREE ENERGY PREDICTED BY IDOCK:    1.25 KCAL/MOL
REMARK 927      BINDING AFFINITY PREDICTED BY RF-SCORE:    0.00 PKD
ROOT
HETATM    1  N   UNL     1      -9.374  15.903  67.686  1.00  0.00    -0.216 N  
HETATM    2  H1  UNL     1      -9.618  15.908  66.695  1.00  0.00     0.000 HD 
HETATM    3  H2  UNL     1      -8.494  16.234  68.080  1.00  0.00     0.000 HD 
HETATM    4  S   UNL     1     -10.653  15.263  68.561  1.00  0.00    -0.244 S  
HETATM    5  O   UNL     1     -11.817  15.955  68.061  1.00  0.00    -0.170 OA 
HETATM    6  O   UNL     1     -10.308  15.256  69.958  1.00  0.00    -0.273 OA 
ENDROOT
BRANCH   4   7
HETATM    7  C   UNL     1     -10.688  13.585  67.974  1.00  0.00    -0.251 A  
HETATM    8  C   UNL     1     -10.531  12.589  68.942  1.00  0.00    -0.109 A  
HETATM    9  C   UNL     1     -10.632  11.246  68.585  1.00  0.00    -0.202 A  
HETATM   10  C   UNL     1     -10.878  10.836  67.280  1.00  0.00    -0.288 A  
HETATM   11  C   UNL     1     -11.038  11.850  66.320  1.00  0.00    -0.364 A  
HETATM   12  N   UNL     1     -11.125   9.505  66.933  1.00  0.00    -0.046 NA 
HETATM   13  H   UNL     1     -11.658   9.272  66.095  1.00  0.00     0.000 HD 
HETATM   14  C   UNL     1     -10.598   8.458  67.802  1.00  0.00    -0.171 C  
HETATM   15  C   UNL     1     -10.926  13.239  66.636  1.00  0.00    -0.297 A  
HETATM   16  N   UNL     1     -11.113   8.658  69.151  1.00  0.00    -0.426 N  
HETATM   17  O   UNL     1      -9.078   9.794  70.058  1.00  0.00    -0.218 OA 
HETATM   18  C   UNL     1     -11.081  14.209  65.485  1.00  0.00    -0.310 C  
HETATM   19  F   UNL     1     -11.059  15.533  65.774  1.00  0.00    -0.324 F  
HETATM   20  F   UNL     1     -10.107  14.025  64.547  1.00  0.00    -0.449 F  
HETATM   21  S   UNL     1     -10.487  10.046  69.851  1.00  0.00    -0.283 S  
HETATM   22  F   UNL     1     -12.257  14.014  64.820  1.00  0.00    -0.372 F  
HETATM   23  O   UNL     1     -11.362  10.401  70.943  1.00  0.00    -0.335 OA 
HETATM   24  H   UNL     1     -11.773   8.030  69.612  1.00  0.00     0.000 HD 
BRANCH  14  25
HETATM   25  C   UNL     1     -11.051   7.055  67.325  1.00  0.00    -0.302 C  
BRANCH  25  26
HETATM   26  C   UNL     1     -10.462   5.923  68.132  1.00  0.00    -0.291 A  
HETATM   27  C   UNL     1     -10.767   5.773  69.492  1.00  0.00    -0.408 A  
HETATM   28  C   UNL     1     -10.125   4.798  70.255  1.00  0.00    -0.304 A  
HETATM   29  C   UNL     1      -9.199   3.945  69.658  1.00  0.00    -0.221 A  
HETATM   30  C   UNL     1      -8.937   4.044  68.293  1.00  0.00    -0.156 A  
HETATM   31  C   UNL     1      -9.569   5.026  67.531  1.00  0.00    -0.169 A  
ENDBRANCH  25  26
ENDBRANCH  14  25
ENDBRANCH   4   7
TORSDOF 3
ENDMDL
MODEL       88
REMARK 921   NORMALIZED FREE ENERGY PREDICTED BY IDOCK:   -4.93 KCAL/MOL
REMARK 922        TOTAL FREE ENERGY PREDICTED BY IDOCK:   -5.94 KCAL/MOL
REMARK 923 INTER-LIGAND FREE ENERGY PREDICTED BY IDOCK:   -5.92 KCAL/MOL
REMARK 924 INTRA-LIGAND FREE ENERGY PREDICTED BY IDOCK:   -0.02 KCAL/MOL
REMARK 927      BINDING AFFINITY PREDICTED BY RF-SCORE:    0.00 PKD
ROOT
HETATM    1  N   UNL     1      -9.423   9.420  63.646  1.00  0.00    -0.401 N  
HETATM    2  H1  UNL     1     -10.262   8.873  63.459  1.00  0.00     0.000 HD 
HETATM    3  H2  UNL     1      -8.522   9.302  63.181  1.00  0.00     0.000 HD 
HETATM    4  S   UNL     1      -9.760  10.547  64.840  1.00  0.00    -0.327 S  
HETATM    5  O   UNL     1     -10.998  11.160  64.421  1.00  0.00    -0.322 OA 
HETATM    6  O   UNL     1      -8.575  11.320  65.104  1.00  0.00    -0.016 OA 
ENDROOT
BRANCH   4   7
HETATM    7  C   UNL     1     -10.083   9.503  66.242  1.00  0.00    -0.257 A  
HETATM    8  C   UNL     1      -9.794   8.145  66.080  1.00  0.00    -0.093 A  
HETATM    9  C   UNL     1      -9.935   7.268  67.154  1.00  0.00    -0.215 A  
HETATM   10  C   UNL     1     -10.368   7.684  68.407  1.00  0.00    -0.194 A  
HETATM   11  C   UNL     1     -10.650   9.054  68.554  1.00  0.00    -0.196 A  
HETATM   12  N   UNL     1     -10.376   6.849  69.528  1.00  0.00    -0.199 NA 
HETATM   13  H   UNL     1     -10.324   7.235  70.470  1.00  0.00     0.000 HD 
HETATM   14  C   UNL     1     -10.460   5.408  69.311  1.00  0.00    -0.239 C  
HETATM   15  C   UNL     1     -10.537   9.987  67.478  1.00  0.00    -0.336 A  
HETATM   16  N   UNL     1      -9.349   4.990  68.465  1.00  0.00    -0.120 N  
HETATM   17  O   UNL     1     -10.641   4.921  66.325  1.00  0.00    -0.306 OA 
HETATM   18  C   UNL     1     -10.917  11.419  67.782  1.00  0.00    -0.247 C  
HETATM   19  F   UNL     1     -10.742  12.336  66.799  1.00  0.00    -0.240 F  
HETATM   20  F   UNL     1     -12.230  11.518  68.141  1.00  0.00    -0.322 F  
HETATM   21  S   UNL     1      -9.500   5.591  66.907  1.00  0.00    -0.144 S  
HETATM   22  F   UNL     1     -10.219  11.908  68.847  1.00  0.00    -0.210 F  
HETATM   23  O   UNL     1      -8.191   5.524  66.300  1.00  0.00    -0.108 OA 
HETATM   24  H   UNL     1      -8.575   4.405  68.781  1.00  0.00     0.000 HD 
BRANCH  14  25
HETATM   25  C   UNL     1     -10.353   4.635  70.650  1.00  0.00    -0.119 C  
BRANCH  25  26
HETATM   26  C   UNL     1      -9.978   5.508  71.824  1.00  0.00    -0.228 A  
HETATM   27  C   UNL     1      -8.668   5.983  71.978  1.00  0.00    -0.136 A  
HETATM   28  C   UNL     1      -8.306   6.688  73.126  1.00  0.00    -0.122 A  
HETATM   29  C   UNL     1      -9.255   6.950  74.111  1.00  0.00    -0.253 A  
HETATM   30  C   UNL     1     -10.574   6.537  73.937  1.00  0.00    -0.250 A  
HETATM   31  C   UNL     1     -10.936   5.823  72.796  1.00  0.00    -0.314 A  
ENDBRANCH  25  26
ENDBRANCH  14  25
ENDBRANCH   4   7
TORSDOF 3
ENDMDL
MODEL       89
REMARK 921   NORMALIZED FREE ENERGY PREDICTED BY IDOCK:   -4.91 KCAL/MOL
REMARK 922        TOTAL FREE ENERGY PREDICTED BY IDOCK:   -5.91 KCAL/MOL
REMARK 923 INTER-LIGAND FREE ENERGY PREDICTED BY IDOCK:   -5.92 KCAL/MOL
REMARK 924 INTRA-LIGAND FREE ENERGY PREDICTED BY IDOCK:    0.01 KCAL/MOL
REMARK 927      BINDING AFFINITY PREDICTED BY RF-SCORE:    0.00 PKD
ROOT
HETATM    1  N   UNL     1      -8.240   3.841  70.492  1.00  0.00    -0.057 N  
HETATM    2  H1  UNL     1      -7.634   4.119  69.720  1.00  0.00     0.000 HD 
HETATM    3  H2  UNL     1      -8.923   3.084  70.466  1.00  0.00     0.000 HD 
HETATM    4  S   UNL     1      -7.933   4.829  71.811  1.00  0.00    -0.102 S  
HETATM    5  O   UNL     1      -6.495   4.839  71.930  1.00  0.00    -0.028 OA 
HETATM    6  O   UNL     1      -8.789   4.437  72.900  1.00  0.00    -0.113 OA 
ENDROOT
BRANCH   4   7
HETATM    7  C   UNL     1      -8.469   6.413  71.208  1.00  0.00    -0.123 A  
HETATM    8  C   UNL     1      -9.089   6.420  69.956  1.00  0.00    -0.150 A  
HETATM    9  C   UNL     1      -9.618   7.604  69.444  1.00  0.00    -0.159 A  
HETATM   10  C   UNL     1      -9.549   8.811  70.130  1.00  0.00    -0.173 A  
HETATM   11  C   UNL     1      -8.925   8.785  71.389  1.00  0.00    -0.307 A  
HETATM   12  N   UNL     1     -10.198   9.971  69.698  1.00  0.00    -0.225 NA 
HETATM   13  H   UNL     1     -10.456  10.704  70.359  1.00  0.00     0.000 HD 
HETATM   14  C   UNL     1     -10.495  10.105  68.276  1.00  0.00    -0.211 C  
HETATM   15  C   UNL     1      -8.355   7.600  71.947  1.00  0.00    -0.125 A  
HETATM   16  N   UNL     1     -11.307   8.970  67.853  1.00  0.00    -0.087 N  
HETATM   17  O   UNL     1      -9.432   7.643  66.864  1.00  0.00    -0.152 OA 
HETATM   18  C   UNL     1      -7.681   7.743  73.294  1.00  0.00    -0.124 C  
HETATM   19  F   UNL     1      -7.203   6.617  73.877  1.00  0.00    -0.083 F  
HETATM   20  F   UNL     1      -6.619   8.598  73.229  1.00  0.00    -0.117 F  
HETATM   21  S   UNL     1     -10.436   7.538  67.898  1.00  0.00    -0.184 S  
HETATM   22  F   UNL     1      -8.522   8.289  74.220  1.00  0.00    -0.304 F  
HETATM   23  O   UNL     1     -11.397   6.459  67.916  1.00  0.00    -0.263 OA 
HETATM   24  H   UNL     1     -12.283   9.038  67.564  1.00  0.00     0.000 HD 
BRANCH  14  25
HETATM   25  C   UNL     1     -11.304  11.396  67.993  1.00  0.00    -0.372 C  
BRANCH  25  26
HETATM   26  C   UNL     1     -11.349  11.772  66.531  1.00  0.00    -0.370 A  
HETATM   27  C   UNL     1     -10.631  11.039  65.576  1.00  0.00    -0.267 A  
HETATM   28  C   UNL     1     -10.584  11.466  64.250  1.00  0.00    -0.416 A  
HETATM   29  C   UNL     1     -11.279  12.610  63.861  1.00  0.00    -0.497 A  
HETATM   30  C   UNL     1     -12.048  13.308  64.790  1.00  0.00    -0.456 A  
HETATM   31  C   UNL     1     -12.087  12.890  66.119  1.00  0.00    -0.458 A  
ENDBRANCH  25  26
ENDBRANCH  14  25
ENDBRANCH   4   7
TORSDOF 3
ENDMDL
MODEL       90
REMARK 921   NORMALIZED FREE ENERGY PREDICTED BY IDOCK:   -4.90 KCAL/MOL
REMARK 922        TOTAL FREE ENERGY PREDICTED BY IDOCK:   -5.90 KCAL/MOL
REMARK 923 INTER-LIGAND FREE ENERGY PREDICTED BY IDOCK:   -5.91 KCAL/MOL
REMARK 924 INTRA-LIGAND FREE ENERGY PREDICTED BY IDOCK:    0.01 KCAL/MOL
REMARK 927      BINDING AFFINITY PREDICTED BY RF-SCORE:    0.00 PKD
ROOT
HETATM    1  N   UNL     1      -6.507   5.275  66.003  1.00  0.00    -0.039 N  
HETATM    2  H1  UNL     1      -5.882   6.027  66.291  1.00  0.00     0.000 HD 
HETATM    3  H2  UNL     1      -6.594   4.907  65.055  1.00  0.00     0.000 HD 
HETATM    4  S   UNL     1      -7.370   4.741  67.337  1.00  0.00    -0.075 S  
HETATM    5  O   UNL     1      -6.373   4.558  68.364  1.00  0.00    -0.034 OA 
HETATM    6  O   UNL     1      -8.253   3.679  66.930  1.00  0.00    -0.094 OA 
ENDROOT
BRANCH   4   7
HETATM    7  C   UNL     1      -8.346   6.173  67.734  1.00  0.00    -0.116 A  
HETATM    8  C   UNL     1      -8.218   7.265  66.872  1.00  0.00    -0.117 A  
HETATM    9  C   UNL     1      -9.010   8.398  67.057  1.00  0.00    -0.142 A  
HETATM   10  C   UNL     1      -9.936   8.501  68.088  1.00  0.00    -0.181 A  
HETATM   11  C   UNL     1     -10.055   7.392  68.943  1.00  0.00    -0.188 A  
HETATM   12  N   UNL     1     -10.836   9.565  68.201  1.00  0.00    -0.430 NA 
HETATM   13  H   UNL     1     -11.719   9.454  68.698  1.00  0.00     0.000 HD 
HETATM   14  C   UNL     1     -10.474  10.839  67.587  1.00  0.00    -0.214 C  
HETATM   15  C   UNL     1      -9.254   6.217  68.802  1.00  0.00    -0.125 A  
HETATM   16  N   UNL     1     -10.227  10.628  66.166  1.00  0.00    -0.247 N  
HETATM   17  O   UNL     1      -7.733  10.528  66.332  1.00  0.00    -0.122 OA 
HETATM   18  C   UNL     1      -9.469   5.125  69.827  1.00  0.00    -0.150 C  
HETATM   19  F   UNL     1      -8.778   3.971  69.667  1.00  0.00    -0.087 F  
HETATM   20  F   UNL     1      -9.166   5.559  71.085  1.00  0.00    -0.146 F  
HETATM   21  S   UNL     1      -8.848   9.710  65.910  1.00  0.00    -0.162 S  
HETATM   22  F   UNL     1     -10.778   4.745  69.887  1.00  0.00    -0.265 F  
HETATM   23  O   UNL     1      -8.935   9.180  64.569  1.00  0.00    -0.180 OA 
HETATM   24  H   UNL     1     -10.819  10.994  65.420  1.00  0.00     0.000 HD 
BRANCH  14  25
HETATM   25  C   UNL     1     -11.625  11.869  67.720  1.00  0.00    -0.393 C  
BRANCH  25  26
HETATM   26  C   UNL     1     -11.565  12.976  66.693  1.00  0.00    -0.410 A  
HETATM   27  C   UNL     1     -12.359  12.930  65.539  1.00  0.00    -0.517 A  
HETATM   28  C   UNL     1     -12.209  13.895  64.543  1.00  0.00    -0.451 A  
HETATM   29  C   UNL     1     -11.289  14.928  64.707  1.00  0.00    -0.400 A  
HETATM   30  C   UNL     1     -10.542  15.018  65.880  1.00  0.00    -0.338 A  
HETATM   31  C   UNL     1     -10.682  14.048  66.872  1.00  0.00    -0.285 A  
ENDBRANCH  25  26
ENDBRANCH  14  25
ENDBRANCH   4   7
TORSDOF 3
ENDMDL
MODEL       91
REMARK 921   NORMALIZED FREE ENERGY PREDICTED BY IDOCK:   -4.90 KCAL/MOL
REMARK 922        TOTAL FREE ENERGY PREDICTED BY IDOCK:   -5.89 KCAL/MOL
REMARK 923 INTER-LIGAND FREE ENERGY PREDICTED BY IDOCK:   -6.74 KCAL/MOL
REMARK 924 INTRA-LIGAND FREE ENERGY PREDICTED BY IDOCK:    0.85 KCAL/MOL
REMARK 927      BINDING AFFINITY PREDICTED BY RF-SCORE:    0.00 PKD
ROOT
HETATM    1  N   UNL     1      -7.933   5.225  72.394  1.00  0.00    -0.102 N  
HETATM    2  H1  UNL     1      -8.641   5.377  73.112  1.00  0.00     0.000 HD 
HETATM    3  H2  UNL     1      -6.924   5.252  72.543  1.00  0.00     0.000 HD 
HETATM    4  S   UNL     1      -8.693   4.924  70.931  1.00  0.00    -0.122 S  
HETATM    5  O   UNL     1      -9.697   3.934  71.240  1.00  0.00    -0.163 OA 
HETATM    6  O   UNL     1      -7.693   4.710  69.918  1.00  0.00    -0.057 OA 
ENDROOT
BRANCH   4   7
HETATM    7  C   UNL     1      -9.498   6.478  70.616  1.00  0.00    -0.166 A  
HETATM    8  C   UNL     1      -8.998   7.228  69.548  1.00  0.00    -0.144 A  
HETATM    9  C   UNL     1      -9.623   8.416  69.176  1.00  0.00    -0.164 A  
HETATM   10  C   UNL     1     -10.741   8.911  69.836  1.00  0.00    -0.227 A  
HETATM   11  C   UNL     1     -11.234   8.143  70.904  1.00  0.00    -0.286 A  
HETATM   12  N   UNL     1     -11.463  10.021  69.386  1.00  0.00    -0.430 NA 
HETATM   13  H   UNL     1     -12.446  10.140  69.630  1.00  0.00     0.000 HD 
HETATM   14  C   UNL     1     -10.770  11.003  68.560  1.00  0.00    -0.202 C  
HETATM   15  C   UNL     1     -10.617   6.927  71.332  1.00  0.00    -0.242 A  
HETATM   16  N   UNL     1     -10.224  10.334  67.384  1.00  0.00    -0.205 N  
HETATM   17  O   UNL     1      -7.891  10.104  68.255  1.00  0.00    -0.091 OA 
HETATM   18  C   UNL     1     -11.241   6.236  72.525  1.00  0.00    -0.279 C  
HETATM   19  F   UNL     1     -10.721   5.041  72.899  1.00  0.00    -0.225 F  
HETATM   20  F   UNL     1     -11.184   7.022  73.640  1.00  0.00    -0.257 F  
HETATM   21  S   UNL     1      -8.987   9.281  67.793  1.00  0.00    -0.126 S  
HETATM   22  F   UNL     1     -12.569   5.995  72.327  1.00  0.00    -0.361 F  
HETATM   23  O   UNL     1      -8.832   8.362  66.690  1.00  0.00    -0.130 OA 
HETATM   24  H   UNL     1     -10.555  10.488  66.431  1.00  0.00     0.000 HD 
BRANCH  14  25
HETATM   25  C   UNL     1     -11.742  12.106  68.068  1.00  0.00    -0.409 C  
BRANCH  25  26
HETATM   26  C   UNL     1     -11.804  13.307  68.982  1.00  0.00    -0.365 A  
HETATM   27  C   UNL     1     -12.136  13.165  70.336  1.00  0.00    -0.392 A  
HETATM   28  C   UNL     1     -12.307  14.290  71.141  1.00  0.00    -0.440 A  
HETATM   29  C   UNL     1     -12.118  15.564  70.608  1.00  0.00    -0.430 A  
HETATM   30  C   UNL     1     -11.726  15.712  69.279  1.00  0.00    -0.388 A  
HETATM   31  C   UNL     1     -11.565  14.589  68.469  1.00  0.00    -0.344 A  
ENDBRANCH  25  26
ENDBRANCH  14  25
ENDBRANCH   4   7
TORSDOF 3
ENDMDL
MODEL       92
REMARK 921   NORMALIZED FREE ENERGY PREDICTED BY IDOCK:   -4.88 KCAL/MOL
REMARK 922        TOTAL FREE ENERGY PREDICTED BY IDOCK:   -5.87 KCAL/MOL
REMARK 923 INTER-LIGAND FREE ENERGY PREDICTED BY IDOCK:   -6.55 KCAL/MOL
REMARK 924 INTRA-LIGAND FREE ENERGY PREDICTED BY IDOCK:    0.68 KCAL/MOL
REMARK 927      BINDING AFFINITY PREDICTED BY RF-SCORE:    0.00 PKD
ROOT
HETATM    1  N   UNL     1      -7.869   4.814  70.268  1.00  0.00    -0.057 N  
HETATM    2  H1  UNL     1      -8.635   5.194  70.824  1.00  0.00     0.000 HD 
HETATM    3  H2  UNL     1      -6.895   4.751  70.565  1.00  0.00     0.000 HD 
HETATM    4  S   UNL     1      -8.469   4.306  68.787  1.00  0.00    -0.084 S  
HETATM    5  O   UNL     1      -9.638   3.527  69.117  1.00  0.00    -0.173 OA 
HETATM    6  O   UNL     1      -7.388   3.768  68.002  1.00  0.00    -0.061 OA 
ENDROOT
BRANCH   4   7
HETATM    7  C   UNL     1      -8.989   5.843  68.062  1.00  0.00    -0.118 A  
HETATM    8  C   UNL     1      -8.309   6.244  66.909  1.00  0.00    -0.109 A  
HETATM    9  C   UNL     1      -8.708   7.392  66.226  1.00  0.00    -0.149 A  
HETATM   10  C   UNL     1      -9.770   8.182  66.649  1.00  0.00    -0.248 A  
HETATM   11  C   UNL     1     -10.446   7.762  67.807  1.00  0.00    -0.277 A  
HETATM   12  N   UNL     1     -10.272   9.249  65.898  1.00  0.00    -0.310 NA 
HETATM   13  H   UNL     1     -11.236   9.563  66.013  1.00  0.00     0.000 HD 
HETATM   14  C   UNL     1      -9.378   9.902  64.947  1.00  0.00    -0.268 C  
HETATM   15  C   UNL     1     -10.062   6.603  68.550  1.00  0.00    -0.166 A  
HETATM   16  N   UNL     1      -8.878   8.907  64.007  1.00  0.00    -0.429 N  
HETATM   17  O   UNL     1      -6.672   8.551  65.128  1.00  0.00    -0.063 OA 
HETATM   18  C   UNL     1     -10.863   6.306  69.799  1.00  0.00    -0.336 C  
HETATM   19  F   UNL     1     -10.568   5.168  70.475  1.00  0.00    -0.324 F  
HETATM   20  F   UNL     1     -10.747   7.312  70.713  1.00  0.00    -0.223 F  
HETATM   21  S   UNL     1      -7.856   7.810  64.755  1.00  0.00    -0.133 S  
HETATM   22  F   UNL     1     -12.198   6.219  69.531  1.00  0.00    -0.204 F  
HETATM   23  O   UNL     1      -7.785   6.647  63.901  1.00  0.00    -0.102 OA 
HETATM   24  H   UNL     1      -9.120   8.881  63.016  1.00  0.00     0.000 HD 
BRANCH  14  25
HETATM   25  C   UNL     1     -10.126  10.989  64.134  1.00  0.00    -0.403 C  
BRANCH  25  26
HETATM   26  C   UNL     1     -10.719  12.083  64.990  1.00  0.00    -0.341 A  
HETATM   27  C   UNL     1     -12.052  12.485  64.823  1.00  0.00    -0.497 A  
HETATM   28  C   UNL     1     -12.553  13.574  65.535  1.00  0.00    -0.531 A  
HETATM   29  C   UNL     1     -11.737  14.250  66.440  1.00  0.00    -0.403 A  
HETATM   30  C   UNL     1     -10.430  13.818  66.658  1.00  0.00    -0.272 A  
HETATM   31  C   UNL     1      -9.924  12.736  65.940  1.00  0.00    -0.273 A  
ENDBRANCH  25  26
ENDBRANCH  14  25
ENDBRANCH   4   7
TORSDOF 3
ENDMDL
MODEL       93
REMARK 921   NORMALIZED FREE ENERGY PREDICTED BY IDOCK:   -4.84 KCAL/MOL
REMARK 922        TOTAL FREE ENERGY PREDICTED BY IDOCK:   -5.83 KCAL/MOL
REMARK 923 INTER-LIGAND FREE ENERGY PREDICTED BY IDOCK:   -5.62 KCAL/MOL
REMARK 924 INTRA-LIGAND FREE ENERGY PREDICTED BY IDOCK:   -0.21 KCAL/MOL
REMARK 927      BINDING AFFINITY PREDICTED BY RF-SCORE:    0.00 PKD
ROOT
HETATM    1  N   UNL     1      -8.696   4.610  72.843  1.00  0.00    -0.116 N  
HETATM    2  H1  UNL     1      -9.326   4.343  72.087  1.00  0.00     0.000 HD 
HETATM    3  H2  UNL     1      -8.838   4.407  73.833  1.00  0.00     0.000 HD 
HETATM    4  S   UNL     1      -7.388   5.436  72.198  1.00  0.00    -0.095 S  
HETATM    5  O   UNL     1      -6.954   4.620  71.090  1.00  0.00    -0.037 OA 
HETATM    6  O   UNL     1      -6.498   5.813  73.265  1.00  0.00    -0.064 OA 
ENDROOT
BRANCH   4   7
HETATM    7  C   UNL     1      -8.165   6.902  71.561  1.00  0.00    -0.110 A  
HETATM    8  C   UNL     1      -9.539   7.023  71.790  1.00  0.00    -0.161 A  
HETATM    9  C   UNL     1     -10.213   8.179  71.401  1.00  0.00    -0.198 A  
HETATM   10  C   UNL     1      -9.574   9.241  70.772  1.00  0.00    -0.275 A  
HETATM   11  C   UNL     1      -8.193   9.105  70.553  1.00  0.00    -0.203 A  
HETATM   12  N   UNL     1     -10.204  10.461  70.508  1.00  0.00    -0.283 NA 
HETATM   13  H   UNL     1      -9.663  11.320  70.410  1.00  0.00     0.000 HD 
HETATM   14  C   UNL     1     -11.657  10.470  70.376  1.00  0.00    -0.342 C  
HETATM   15  C   UNL     1      -7.463   7.933  70.919  1.00  0.00    -0.073 A  
HETATM   16  N   UNL     1     -12.248   9.932  71.595  1.00  0.00    -0.401 N  
HETATM   17  O   UNL     1     -12.645   7.625  70.714  1.00  0.00    -0.115 OA 
HETATM   18  C   UNL     1      -5.989   7.921  70.579  1.00  0.00    -0.029 C  
HETATM   19  F   UNL     1      -5.260   6.853  70.987  1.00  0.00    -0.021 F  
HETATM   20  F   UNL     1      -5.790   8.002  69.231  1.00  0.00    -0.031 F  
HETATM   21  S   UNL     1     -11.920   8.297  71.769  1.00  0.00    -0.339 S  
HETATM   22  F   UNL     1      -5.345   9.005  71.099  1.00  0.00    -0.030 F  
HETATM   23  O   UNL     1     -12.129   7.969  73.160  1.00  0.00    -0.138 OA 
HETATM   24  H   UNL     1     -12.793  10.481  72.260  1.00  0.00     0.000 HD 
BRANCH  14  25
HETATM   25  C   UNL     1     -12.191  11.913  70.188  1.00  0.00    -0.319 C  
BRANCH  25  26
HETATM   26  C   UNL     1     -11.887  12.498  68.830  1.00  0.00    -0.347 A  
HETATM   27  C   UNL     1     -11.741  13.882  68.658  1.00  0.00    -0.396 A  
HETATM   28  C   UNL     1     -11.579  14.419  67.381  1.00  0.00    -0.398 A  
HETATM   29  C   UNL     1     -11.529  13.578  66.272  1.00  0.00    -0.350 A  
HETATM   30  C   UNL     1     -11.609  12.197  66.440  1.00  0.00    -0.429 A  
HETATM   31  C   UNL     1     -11.782  11.658  67.713  1.00  0.00    -0.315 A  
ENDBRANCH  25  26
ENDBRANCH  14  25
ENDBRANCH   4   7
TORSDOF 3
ENDMDL
MODEL       94
REMARK 921   NORMALIZED FREE ENERGY PREDICTED BY IDOCK:   -4.80 KCAL/MOL
REMARK 922        TOTAL FREE ENERGY PREDICTED BY IDOCK:   -5.78 KCAL/MOL
REMARK 923 INTER-LIGAND FREE ENERGY PREDICTED BY IDOCK:   -5.99 KCAL/MOL
REMARK 924 INTRA-LIGAND FREE ENERGY PREDICTED BY IDOCK:    0.21 KCAL/MOL
REMARK 927      BINDING AFFINITY PREDICTED BY RF-SCORE:    0.00 PKD
ROOT
HETATM    1  N   UNL     1      -5.762  10.254  71.376  1.00  0.00     0.003 N  
HETATM    2  H1  UNL     1      -6.178  10.975  71.967  1.00  0.00     0.000 HD 
HETATM    3  H2  UNL     1      -4.776  10.190  71.124  1.00  0.00     0.000 HD 
HETATM    4  S   UNL     1      -6.962   9.190  70.888  1.00  0.00    -0.097 S  
HETATM    5  O   UNL     1      -7.680   8.872  72.099  1.00  0.00    -0.341 OA 
HETATM    6  O   UNL     1      -6.377   8.173  70.055  1.00  0.00    -0.032 OA 
ENDROOT
BRANCH   4   7
HETATM    7  C   UNL     1      -7.983  10.237  69.876  1.00  0.00    -0.076 A  
HETATM    8  C   UNL     1      -7.386  11.407  69.398  1.00  0.00     0.012 A  
HETATM    9  C   UNL     1      -8.083  12.242  68.528  1.00  0.00    -0.101 A  
HETATM   10  C   UNL     1      -9.380  11.969  68.107  1.00  0.00    -0.199 A  
HETATM   11  C   UNL     1      -9.964  10.786  68.594  1.00  0.00    -0.189 A  
HETATM   12  N   UNL     1     -10.037  12.716  67.126  1.00  0.00    -0.221 NA 
HETATM   13  H   UNL     1     -10.789  12.308  66.572  1.00  0.00     0.000 HD 
HETATM   14  C   UNL     1      -9.617  14.098  66.919  1.00  0.00    -0.270 C  
HETATM   15  C   UNL     1      -9.294   9.908  69.500  1.00  0.00    -0.236 A  
HETATM   16  N   UNL     1      -8.194  14.119  66.600  1.00  0.00    -0.335 N  
HETATM   17  O   UNL     1      -7.406  14.711  68.899  1.00  0.00    -0.113 OA 
HETATM   18  C   UNL     1     -10.071   8.697  69.967  1.00  0.00    -0.189 C  
HETATM   19  F   UNL     1      -9.428   7.809  70.764  1.00  0.00    -0.159 F  
HETATM   20  F   UNL     1     -11.190   9.061  70.658  1.00  0.00    -0.260 F  
HETATM   21  S   UNL     1      -7.262  13.661  67.915  1.00  0.00    -0.167 S  
HETATM   22  F   UNL     1     -10.527   7.958  68.914  1.00  0.00    -0.206 F  
HETATM   23  O   UNL     1      -5.968  13.275  67.403  1.00  0.00    -0.313 OA 
HETATM   24  H   UNL     1      -7.813  14.380  65.690  1.00  0.00     0.000 HD 
BRANCH  14  25
HETATM   25  C   UNL     1     -10.377  14.740  65.730  1.00  0.00    -0.358 C  
BRANCH  25  26
HETATM   26  C   UNL     1     -11.114  13.739  64.872  1.00  0.00    -0.364 A  
HETATM   27  C   UNL     1     -12.504  13.592  64.971  1.00  0.00    -0.462 A  
HETATM   28  C   UNL     1     -13.157  12.584  64.262  1.00  0.00    -0.093 A  
HETATM   29  C   UNL     1     -12.431  11.736  63.427  1.00  0.00    -0.490 A  
HETATM   30  C   UNL     1     -11.058  11.916  63.274  1.00  0.00    -0.390 A  
HETATM   31  C   UNL     1     -10.401  12.916  63.990  1.00  0.00    -0.346 A  
ENDBRANCH  25  26
ENDBRANCH  14  25
ENDBRANCH   4   7
TORSDOF 3
ENDMDL
MODEL       95
REMARK 921   NORMALIZED FREE ENERGY PREDICTED BY IDOCK:   -4.78 KCAL/MOL
REMARK 922        TOTAL FREE ENERGY PREDICTED BY IDOCK:   -5.75 KCAL/MOL
REMARK 923 INTER-LIGAND FREE ENERGY PREDICTED BY IDOCK:   -6.56 KCAL/MOL
REMARK 924 INTRA-LIGAND FREE ENERGY PREDICTED BY IDOCK:    0.81 KCAL/MOL
REMARK 927      BINDING AFFINITY PREDICTED BY RF-SCORE:    0.00 PKD
ROOT
HETATM    1  N   UNL     1      -7.476  10.759  64.653  1.00  0.00    -0.341 N  
HETATM    2  H1  UNL     1      -6.834  10.258  65.267  1.00  0.00     0.000 HD 
HETATM    3  H2  UNL     1      -7.398  11.741  64.388  1.00  0.00     0.000 HD 
HETATM    4  S   UNL     1      -8.682   9.709  64.150  1.00  0.00    -0.224 S  
HETATM    5  O   UNL     1      -7.977   8.525  63.721  1.00  0.00    -0.147 OA 
HETATM    6  O   UNL     1      -9.589  10.416  63.283  1.00  0.00    -0.302 OA 
ENDROOT
BRANCH   4   7
HETATM    7  C   UNL     1      -9.516   9.356  65.680  1.00  0.00    -0.262 A  
HETATM    8  C   UNL     1      -9.388   8.052  66.166  1.00  0.00    -0.212 A  
HETATM    9  C   UNL     1      -9.936   7.711  67.401  1.00  0.00    -0.192 A  
HETATM   10  C   UNL     1     -10.629   8.622  68.190  1.00  0.00    -0.133 A  
HETATM   11  C   UNL     1     -10.744   9.930  67.687  1.00  0.00    -0.339 A  
HETATM   12  N   UNL     1     -11.057   8.335  69.489  1.00  0.00    -0.442 NA 
HETATM   13  H   UNL     1     -11.208   9.082  70.168  1.00  0.00     0.000 HD 
HETATM   14  C   UNL     1     -11.282   6.939  69.847  1.00  0.00    -0.285 C  
HETATM   15  C   UNL     1     -10.214  10.321  66.420  1.00  0.00    -0.290 A  
HETATM   16  N   UNL     1     -10.054   6.187  69.618  1.00  0.00    -0.170 N  
HETATM   17  O   UNL     1     -10.716   5.244  67.399  1.00  0.00    -0.163 OA 
HETATM   18  C   UNL     1     -10.456  11.754  66.000  1.00  0.00    -0.246 C  
HETATM   19  F   UNL     1      -9.895  12.170  64.838  1.00  0.00    -0.261 F  
HETATM   20  F   UNL     1     -11.790  12.015  65.872  1.00  0.00    -0.424 F  
HETATM   21  S   UNL     1      -9.692   6.079  67.985  1.00  0.00    -0.124 S  
HETATM   22  F   UNL     1     -10.010  12.636  66.941  1.00  0.00    -0.217 F  
HETATM   23  O   UNL     1      -8.291   5.743  67.884  1.00  0.00    -0.104 OA 
HETATM   24  H   UNL     1      -9.485   5.777  70.360  1.00  0.00     0.000 HD 
BRANCH  14  25
HETATM   25  C   UNL     1     -11.650   6.799  71.346  1.00  0.00    -0.350 C  
BRANCH  25  26
HETATM   26  C   UNL     1     -10.456   6.847  72.269  1.00  0.00    -0.233 A  
HETATM   27  C   UNL     1      -9.905   8.071  72.670  1.00  0.00    -0.347 A  
HETATM   28  C   UNL     1      -8.732   8.102  73.425  1.00  0.00    -0.318 A  
HETATM   29  C   UNL     1      -8.119   6.911  73.808  1.00  0.00    -0.129 A  
HETATM   30  C   UNL     1      -8.694   5.689  73.468  1.00  0.00    -0.120 A  
HETATM   31  C   UNL     1      -9.861   5.656  72.705  1.00  0.00    -0.182 A  
ENDBRANCH  25  26
ENDBRANCH  14  25
ENDBRANCH   4   7
TORSDOF 3
ENDMDL
MODEL       96
REMARK 921   NORMALIZED FREE ENERGY PREDICTED BY IDOCK:   -4.76 KCAL/MOL
REMARK 922        TOTAL FREE ENERGY PREDICTED BY IDOCK:   -5.73 KCAL/MOL
REMARK 923 INTER-LIGAND FREE ENERGY PREDICTED BY IDOCK:   -5.62 KCAL/MOL
REMARK 924 INTRA-LIGAND FREE ENERGY PREDICTED BY IDOCK:   -0.11 KCAL/MOL
REMARK 927      BINDING AFFINITY PREDICTED BY RF-SCORE:    0.00 PKD
ROOT
HETATM    1  N   UNL     1      -7.829   5.878  69.361  1.00  0.00    -0.093 N  
HETATM    2  H1  UNL     1      -8.814   5.646  69.485  1.00  0.00     0.000 HD 
HETATM    3  H2  UNL     1      -7.122   5.874  70.097  1.00  0.00     0.000 HD 
HETATM    4  S   UNL     1      -7.556   6.267  67.754  1.00  0.00    -0.103 S  
HETATM    5  O   UNL     1      -8.195   5.206  67.011  1.00  0.00    -0.107 OA 
HETATM    6  O   UNL     1      -6.165   6.594  67.579  1.00  0.00    -0.035 OA 
ENDROOT
BRANCH   4   7
HETATM    7  C   UNL     1      -8.517   7.751  67.573  1.00  0.00    -0.120 A  
HETATM    8  C   UNL     1      -9.215   8.177  68.706  1.00  0.00    -0.144 A  
HETATM    9  C   UNL     1      -9.924   9.377  68.681  1.00  0.00    -0.173 A  
HETATM   10  C   UNL     1      -9.981  10.187  67.553  1.00  0.00    -0.191 A  
HETATM   11  C   UNL     1      -9.271   9.746  66.423  1.00  0.00    -0.200 A  
HETATM   12  N   UNL     1     -10.565  11.457  67.556  1.00  0.00    -0.204 NA 
HETATM   13  H   UNL     1     -10.279  12.167  66.881  1.00  0.00     0.000 HD 
HETATM   14  C   UNL     1     -11.594  11.740  68.551  1.00  0.00    -0.321 C  
HETATM   15  C   UNL     1      -8.544   8.516  66.398  1.00  0.00    -0.136 A  
HETATM   16  N   UNL     1     -11.042  11.512  69.881  1.00  0.00    -0.478 N  
HETATM   17  O   UNL     1     -12.015   9.230  70.198  1.00  0.00    -0.009 OA 
HETATM   18  C   UNL     1      -7.866   8.159  65.093  1.00  0.00    -0.118 C  
HETATM   19  F   UNL     1      -7.105   7.037  65.070  1.00  0.00    -0.056 F  
HETATM   20  F   UNL     1      -8.775   8.003  64.087  1.00  0.00    -0.027 F  
HETATM   21  S   UNL     1     -10.728   9.888  70.149  1.00  0.00    -0.327 S  
HETATM   22  F   UNL     1      -7.034   9.156  64.671  1.00  0.00    -0.085 F  
HETATM   23  O   UNL     1      -9.797   9.813  71.250  1.00  0.00    -0.045 OA 
HETATM   24  H   UNL     1     -10.868  12.250  70.564  1.00  0.00     0.000 HD 
BRANCH  14  25
HETATM   25  C   UNL     1     -12.053  13.218  68.475  1.00  0.00    -0.256 C  
BRANCH  25  26
HETATM   26  C   UNL     1     -11.683  13.900  67.180  1.00  0.00    -0.419 A  
HETATM   27  C   UNL     1     -10.619  14.811  67.124  1.00  0.00    -0.285 A  
HETATM   28  C   UNL     1     -10.363  15.523  65.953  1.00  0.00    -0.365 A  
HETATM   29  C   UNL     1     -11.146  15.308  64.821  1.00  0.00    -0.407 A  
HETATM   30  C   UNL     1     -12.165  14.358  64.848  1.00  0.00    -0.440 A  
HETATM   31  C   UNL     1     -12.431  13.653  66.021  1.00  0.00    -0.477 A  
ENDBRANCH  25  26
ENDBRANCH  14  25
ENDBRANCH   4   7
TORSDOF 3
ENDMDL
MODEL       97
REMARK 921   NORMALIZED FREE ENERGY PREDICTED BY IDOCK:   -4.75 KCAL/MOL
REMARK 922        TOTAL FREE ENERGY PREDICTED BY IDOCK:   -5.73 KCAL/MOL
REMARK 923 INTER-LIGAND FREE ENERGY PREDICTED BY IDOCK:   -6.45 KCAL/MOL
REMARK 924 INTRA-LIGAND FREE ENERGY PREDICTED BY IDOCK:    0.72 KCAL/MOL
REMARK 927      BINDING AFFINITY PREDICTED BY RF-SCORE:    0.00 PKD
ROOT
HETATM    1  N   UNL     1     -10.287  10.068  66.575  1.00  0.00    -0.221 N  
HETATM    2  H1  UNL     1      -9.306   9.797  66.641  1.00  0.00     0.000 HD 
HETATM    3  H2  UNL     1     -10.882   9.947  65.756  1.00  0.00     0.000 HD 
HETATM    4  S   UNL     1     -10.766  10.745  68.032  1.00  0.00    -0.249 S  
HETATM    5  O   UNL     1     -10.290   9.822  69.035  1.00  0.00    -0.190 OA 
HETATM    6  O   UNL     1     -12.150  11.128  67.940  1.00  0.00    -0.627 OA 
ENDROOT
BRANCH   4   7
HETATM    7  C   UNL     1      -9.771  12.218  68.091  1.00  0.00    -0.213 A  
HETATM    8  C   UNL     1     -10.459  13.432  68.027  1.00  0.00    -0.243 A  
HETATM    9  C   UNL     1      -9.767  14.635  68.152  1.00  0.00    -0.220 A  
HETATM   10  C   UNL     1      -8.391  14.690  68.334  1.00  0.00    -0.157 A  
HETATM   11  C   UNL     1      -7.714  13.460  68.400  1.00  0.00    -0.138 A  
HETATM   12  N   UNL     1      -7.704  15.877  68.605  1.00  0.00    -0.151 NA 
HETATM   13  H   UNL     1      -6.810  15.865  69.095  1.00  0.00     0.000 HD 
HETATM   14  C   UNL     1      -8.303  17.134  68.168  1.00  0.00    -0.226 C  
HETATM   15  C   UNL     1      -8.378  12.203  68.260  1.00  0.00    -0.172 A  
HETATM   16  N   UNL     1      -9.632  17.256  68.755  1.00  0.00    -0.277 N  
HETATM   17  O   UNL     1     -10.897  16.485  66.740  1.00  0.00    -0.217 OA 
HETATM   18  C   UNL     1      -7.506  10.968  68.312  1.00  0.00    -0.092 C  
HETATM   19  F   UNL     1      -8.123   9.762  68.261  1.00  0.00    -0.100 F  
HETATM   20  F   UNL     1      -6.601  10.956  67.291  1.00  0.00    -0.065 F  
HETATM   21  S   UNL     1     -10.692  16.121  68.124  1.00  0.00    -0.326 S  
HETATM   22  F   UNL     1      -6.757  10.931  69.452  1.00  0.00    -0.062 F  
HETATM   23  O   UNL     1     -11.794  16.011  69.051  1.00  0.00    -0.362 OA 
HETATM   24  H   UNL     1      -9.885  17.946  69.463  1.00  0.00     0.000 HD 
BRANCH  14  25
HETATM   25  C   UNL     1      -7.463  18.347  68.640  1.00  0.00    -0.314 C  
BRANCH  25  26
HETATM   26  C   UNL     1      -7.051  19.270  67.518  1.00  0.00    -0.236 A  
HETATM   27  C   UNL     1      -7.135  18.859  66.180  1.00  0.00    -0.284 A  
HETATM   28  C   UNL     1      -6.641  19.673  65.161  1.00  0.00    -0.299 A  
HETATM   29  C   UNL     1      -6.087  20.914  65.468  1.00  0.00    -0.277 A  
HETATM   30  C   UNL     1      -6.057  21.358  66.788  1.00  0.00    -0.386 A  
HETATM   31  C   UNL     1      -6.540  20.542  67.810  1.00  0.00    -0.343 A  
ENDBRANCH  25  26
ENDBRANCH  14  25
ENDBRANCH   4   7
TORSDOF 3
ENDMDL
MODEL       98
REMARK 921   NORMALIZED FREE ENERGY PREDICTED BY IDOCK:   -4.74 KCAL/MOL
REMARK 922        TOTAL FREE ENERGY PREDICTED BY IDOCK:   -5.71 KCAL/MOL
REMARK 923 INTER-LIGAND FREE ENERGY PREDICTED BY IDOCK:   -6.92 KCAL/MOL
REMARK 924 INTRA-LIGAND FREE ENERGY PREDICTED BY IDOCK:    1.22 KCAL/MOL
REMARK 927      BINDING AFFINITY PREDICTED BY RF-SCORE:    0.00 PKD
ROOT
HETATM    1  N   UNL     1     -12.442  14.127  63.218  1.00  0.00    -1.098 N  
HETATM    2  H1  UNL     1     -11.880  13.450  62.702  1.00  0.00     0.000 HD 
HETATM    3  H2  UNL     1     -12.719  15.048  62.879  1.00  0.00     0.000 HD 
HETATM    4  S   UNL     1     -12.836  13.483  64.715  1.00  0.00    -0.031 S  
HETATM    5  O   UNL     1     -13.315  12.153  64.422  1.00  0.00    -0.740 OA 
HETATM    6  O   UNL     1     -13.628  14.438  65.444  1.00  0.00    -0.428 OA 
ENDROOT
BRANCH   4   7
HETATM    7  C   UNL     1     -11.239  13.359  65.487  1.00  0.00    -0.288 A  
HETATM    8  C   UNL     1     -11.007  14.216  66.566  1.00  0.00    -0.309 A  
HETATM    9  C   UNL     1      -9.816  14.128  67.284  1.00  0.00    -0.238 A  
HETATM   10  C   UNL     1      -8.818  13.214  66.968  1.00  0.00    -0.210 A  
HETATM   11  C   UNL     1      -9.070  12.357  65.883  1.00  0.00     0.090 A  
HETATM   12  N   UNL     1      -7.686  13.015  67.763  1.00  0.00    -0.136 NA 
HETATM   13  H   UNL     1      -7.181  12.129  67.745  1.00  0.00     0.000 HD 
HETATM   14  C   UNL     1      -7.247  14.111  68.621  1.00  0.00    -0.116 C  
HETATM   15  C   UNL     1     -10.268  12.422  65.107  1.00  0.00    -0.305 A  
HETATM   16  N   UNL     1      -8.341  14.487  69.508  1.00  0.00    -0.376 N  
HETATM   17  O   UNL     1      -9.116  16.455  68.173  1.00  0.00    -0.195 OA 
HETATM   18  C   UNL     1     -10.372  11.460  63.944  1.00  0.00    -0.379 C  
HETATM   19  F   UNL     1     -11.532  11.449  63.243  1.00  0.00    -0.464 F  
HETATM   20  F   UNL     1      -9.393  11.688  63.021  1.00  0.00    -0.331 F  
HETATM   21  S   UNL     1      -9.608  15.187  68.663  1.00  0.00    -0.221 S  
HETATM   22  F   UNL     1     -10.191  10.168  64.343  1.00  0.00    -0.395 F  
HETATM   23  O   UNL     1     -10.777  15.102  69.506  1.00  0.00    -0.244 OA 
HETATM   24  H   UNL     1      -8.336  14.343  70.518  1.00  0.00     0.000 HD 
BRANCH  14  25
HETATM   25  C   UNL     1      -6.047  13.683  69.503  1.00  0.00    -0.114 C  
BRANCH  25  26
HETATM   26  C   UNL     1      -5.738  12.207  69.428  1.00  0.00    -0.083 A  
HETATM   27  C   UNL     1      -5.330  11.617  68.224  1.00  0.00    -0.042 A  
HETATM   28  C   UNL     1      -5.163  10.235  68.138  1.00  0.00    -0.034 A  
HETATM   29  C   UNL     1      -5.371   9.437  69.261  1.00  0.00    -0.036 A  
HETATM   30  C   UNL     1      -5.714  10.021  70.478  1.00  0.00    -0.070 A  
HETATM   31  C   UNL     1      -5.892  11.401  70.564  1.00  0.00    -0.131 A  
ENDBRANCH  25  26
ENDBRANCH  14  25
ENDBRANCH   4   7
TORSDOF 3
ENDMDL
MODEL       99
REMARK 921   NORMALIZED FREE ENERGY PREDICTED BY IDOCK:   -4.73 KCAL/MOL
REMARK 922        TOTAL FREE ENERGY PREDICTED BY IDOCK:   -5.70 KCAL/MOL
REMARK 923 INTER-LIGAND FREE ENERGY PREDICTED BY IDOCK:   -6.04 KCAL/MOL
REMARK 924 INTRA-LIGAND FREE ENERGY PREDICTED BY IDOCK:    0.34 KCAL/MOL
REMARK 927      BINDING AFFINITY PREDICTED BY RF-SCORE:    0.00 PKD
ROOT
HETATM    1  N   UNL     1      -9.121   5.183  63.440  1.00  0.00    -0.350 N  
HETATM    2  H1  UNL     1      -8.198   5.609  63.520  1.00  0.00     0.000 HD 
HETATM    3  H2  UNL     1      -9.863   5.490  62.811  1.00  0.00     0.000 HD 
HETATM    4  S   UNL     1      -9.223   3.896  64.510  1.00  0.00    -0.157 S  
HETATM    5  O   UNL     1      -8.010   3.146  64.291  1.00  0.00    -0.081 OA 
HETATM    6  O   UNL     1     -10.526   3.295  64.397  1.00  0.00    -0.116 OA 
ENDROOT
BRANCH   4   7
HETATM    7  C   UNL     1      -9.111   4.722  66.080  1.00  0.00    -0.129 A  
HETATM    8  C   UNL     1      -9.135   6.118  66.047  1.00  0.00    -0.136 A  
HETATM    9  C   UNL     1      -9.139   6.846  67.236  1.00  0.00    -0.124 A  
HETATM   10  C   UNL     1      -9.110   6.236  68.485  1.00  0.00    -0.125 A  
HETATM   11  C   UNL     1      -9.089   4.831  68.500  1.00  0.00    -0.150 A  
HETATM   12  N   UNL     1      -9.259   6.943  69.682  1.00  0.00    -0.146 NA 
HETATM   13  H   UNL     1      -9.608   6.483  70.522  1.00  0.00     0.000 HD 
HETATM   14  C   UNL     1      -8.900   8.357  69.695  1.00  0.00    -0.141 C  
HETATM   15  C   UNL     1      -9.067   4.044  67.308  1.00  0.00    -0.169 A  
HETATM   16  N   UNL     1      -9.680   9.054  68.679  1.00  0.00    -0.157 N  
HETATM   17  O   UNL     1      -7.890   9.091  66.933  1.00  0.00    -0.100 OA 
HETATM   18  C   UNL     1      -9.003   2.544  67.489  1.00  0.00    -0.161 C  
HETATM   19  F   UNL     1      -9.062   1.775  66.374  1.00  0.00    -0.121 F  
HETATM   20  F   UNL     1      -7.857   2.170  68.128  1.00  0.00    -0.056 F  
HETATM   21  S   UNL     1      -9.232   8.591  67.132  1.00  0.00    -0.148 S  
HETATM   22  F   UNL     1     -10.017   2.090  68.282  1.00  0.00    -0.207 F  
HETATM   23  O   UNL     1     -10.316   8.956  66.250  1.00  0.00    -0.240 OA 
HETATM   24  H   UNL     1     -10.409   9.738  68.884  1.00  0.00     0.000 HD 
BRANCH  14  25
HETATM   25  C   UNL     1      -9.224   9.003  71.066  1.00  0.00    -0.331 C  
BRANCH  25  26
HETATM   26  C   UNL     1     -10.697   9.258  71.280  1.00  0.00    -0.422 A  
HETATM   27  C   UNL     1     -11.360  10.279  70.586  1.00  0.00    -0.431 A  
HETATM   28  C   UNL     1     -12.689  10.583  70.879  1.00  0.00    -0.495 A  
HETATM   29  C   UNL     1     -13.374   9.848  71.845  1.00  0.00    -0.524 A  
HETATM   30  C   UNL     1     -12.743   8.789  72.495  1.00  0.00    -0.378 A  
HETATM   31  C   UNL     1     -11.411   8.492  72.211  1.00  0.00    -0.445 A  
ENDBRANCH  25  26
ENDBRANCH  14  25
ENDBRANCH   4   7
TORSDOF 3
ENDMDL
MODEL      100
REMARK 921   NORMALIZED FREE ENERGY PREDICTED BY IDOCK:   -4.72 KCAL/MOL
REMARK 922        TOTAL FREE ENERGY PREDICTED BY IDOCK:   -5.68 KCAL/MOL
REMARK 923 INTER-LIGAND FREE ENERGY PREDICTED BY IDOCK:   -6.45 KCAL/MOL
REMARK 924 INTRA-LIGAND FREE ENERGY PREDICTED BY IDOCK:    0.76 KCAL/MOL
REMARK 927      BINDING AFFINITY PREDICTED BY RF-SCORE:    0.00 PKD
ROOT
HETATM    1  N   UNL     1     -11.872  15.466  66.972  1.00  0.00     0.027 N  
HETATM    2  H1  UNL     1     -11.605  15.141  67.901  1.00  0.00     0.000 HD 
HETATM    3  H2  UNL     1     -12.821  15.683  66.670  1.00  0.00     0.000 HD 
HETATM    4  S   UNL     1     -10.497  15.586  66.020  1.00  0.00    -0.340 S  
HETATM    5  O   UNL     1      -9.549  16.301  66.841  1.00  0.00    -0.222 OA 
HETATM    6  O   UNL     1     -10.872  16.044  64.708  1.00  0.00    -0.587 OA 
ENDROOT
BRANCH   4   7
HETATM    7  C   UNL     1      -9.988  13.886  65.906  1.00  0.00    -0.300 A  
HETATM    8  C   UNL     1      -8.822  13.542  66.595  1.00  0.00    -0.080 A  
HETATM    9  C   UNL     1      -8.397  12.216  66.631  1.00  0.00    -0.051 A  
HETATM   10  C   UNL     1      -9.086  11.192  65.992  1.00  0.00    -0.203 A  
HETATM   11  C   UNL     1     -10.259  11.555  65.307  1.00  0.00    -0.315 A  
HETATM   12  N   UNL     1      -8.755   9.842  66.139  1.00  0.00    -0.134 NA 
HETATM   13  H   UNL     1      -9.453   9.113  65.996  1.00  0.00     0.000 HD 
HETATM   14  C   UNL     1      -7.382   9.506  66.502  1.00  0.00    -0.090 C  
HETATM   15  C   UNL     1     -10.724  12.903  65.228  1.00  0.00    -0.318 A  
HETATM   16  N   UNL     1      -7.045  10.175  67.753  1.00  0.00    -0.085 N  
HETATM   17  O   UNL     1      -5.814  12.091  66.720  1.00  0.00    -0.232 OA 
HETATM   18  C   UNL     1     -11.980  13.139  64.418  1.00  0.00    -0.397 C  
HETATM   19  F   UNL     1     -12.484  14.397  64.395  1.00  0.00    -0.455 F  
HETATM   20  F   UNL     1     -11.797  12.797  63.109  1.00  0.00    -0.548 F  
HETATM   21  S   UNL     1      -6.962  11.838  67.561  1.00  0.00    -0.125 S  
HETATM   22  F   UNL     1     -13.010  12.355  64.850  1.00  0.00    -0.560 F  
HETATM   23  O   UNL     1      -7.082  12.422  68.876  1.00  0.00    -0.101 OA 
HETATM   24  H   UNL     1      -6.881   9.691  68.636  1.00  0.00     0.000 HD 
BRANCH  14  25
HETATM   25  C   UNL     1      -7.220   7.981  66.722  1.00  0.00    -0.082 C  
BRANCH  25  26
HETATM   26  C   UNL     1      -8.520   7.271  67.015  1.00  0.00    -0.118 A  
HETATM   27  C   UNL     1      -9.044   6.328  66.120  1.00  0.00    -0.153 A  
HETATM   28  C   UNL     1     -10.302   5.768  66.343  1.00  0.00    -0.207 A  
HETATM   29  C   UNL     1     -11.031   6.122  67.476  1.00  0.00    -0.404 A  
HETATM   30  C   UNL     1     -10.491   7.010  68.404  1.00  0.00    -0.231 A  
HETATM   31  C   UNL     1      -9.239   7.579  68.178  1.00  0.00    -0.137 A  
ENDBRANCH  25  26
ENDBRANCH  14  25
ENDBRANCH   4   7
TORSDOF 3
ENDMDL
MODEL      101
REMARK 921   NORMALIZED FREE ENERGY PREDICTED BY IDOCK:   -4.68 KCAL/MOL
REMARK 922        TOTAL FREE ENERGY PREDICTED BY IDOCK:   -5.64 KCAL/MOL
REMARK 923 INTER-LIGAND FREE ENERGY PREDICTED BY IDOCK:   -5.55 KCAL/MOL
REMARK 924 INTRA-LIGAND FREE ENERGY PREDICTED BY IDOCK:   -0.09 KCAL/MOL
REMARK 927      BINDING AFFINITY PREDICTED BY RF-SCORE:    0.00 PKD
ROOT
HETATM    1  N   UNL     1     -10.056  14.222  66.298  1.00  0.00    -0.288 N  
HETATM    2  H1  UNL     1     -10.544  13.876  65.472  1.00  0.00     0.000 HD 
HETATM    3  H2  UNL     1      -9.235  14.827  66.291  1.00  0.00     0.000 HD 
HETATM    4  S   UNL     1     -10.820  13.635  67.670  1.00  0.00    -0.260 S  
HETATM    5  O   UNL     1     -12.222  13.893  67.443  1.00  0.00    -0.378 OA 
HETATM    6  O   UNL     1     -10.131  14.122  68.836  1.00  0.00    -0.220 OA 
ENDROOT
BRANCH   4   7
HETATM    7  C   UNL     1     -10.529  11.887  67.526  1.00  0.00    -0.209 A  
HETATM    8  C   UNL     1      -9.756  11.477  66.436  1.00  0.00    -0.231 A  
HETATM    9  C   UNL     1      -9.406  10.136  66.293  1.00  0.00    -0.172 A  
HETATM   10  C   UNL     1      -9.804   9.158  67.197  1.00  0.00    -0.195 A  
HETATM   11  C   UNL     1     -10.578   9.588  68.289  1.00  0.00    -0.260 A  
HETATM   12  N   UNL     1      -9.343   7.840  67.147  1.00  0.00    -0.143 NA 
HETATM   13  H   UNL     1      -9.327   7.258  67.985  1.00  0.00     0.000 HD 
HETATM   14  C   UNL     1      -8.886   7.319  65.863  1.00  0.00    -0.109 C  
HETATM   15  C   UNL     1     -10.975  10.949  68.469  1.00  0.00    -0.278 A  
HETATM   16  N   UNL     1      -7.817   8.173  65.359  1.00  0.00    -0.107 N  
HETATM   17  O   UNL     1      -9.240   9.502  63.790  1.00  0.00    -0.209 OA 
HETATM   18  C   UNL     1     -11.842  11.247  69.672  1.00  0.00    -0.360 C  
HETATM   19  F   UNL     1     -12.165  12.542  69.906  1.00  0.00    -0.341 F  
HETATM   20  F   UNL     1     -13.032  10.583  69.603  1.00  0.00    -0.239 F  
HETATM   21  S   UNL     1      -8.386   9.693  64.941  1.00  0.00    -0.161 S  
HETATM   22  F   UNL     1     -11.261  10.815  70.829  1.00  0.00    -0.369 F  
HETATM   23  O   UNL     1      -7.244  10.576  64.899  1.00  0.00    -0.089 OA 
HETATM   24  H   UNL     1      -6.842   7.882  65.272  1.00  0.00     0.000 HD 
BRANCH  14  25
HETATM   25  C   UNL     1      -8.316   5.886  66.013  1.00  0.00    -0.128 C  
BRANCH  25  26
HETATM   26  C   UNL     1      -8.372   5.358  67.427  1.00  0.00    -0.103 A  
HETATM   27  C   UNL     1      -9.465   4.601  67.870  1.00  0.00    -0.194 A  
HETATM   28  C   UNL     1      -9.562   4.221  69.208  1.00  0.00    -0.261 A  
HETATM   29  C   UNL     1      -8.554   4.567  70.105  1.00  0.00    -0.104 A  
HETATM   30  C   UNL     1      -7.433   5.264  69.660  1.00  0.00    -0.065 A  
HETATM   31  C   UNL     1      -7.339   5.655  68.325  1.00  0.00    -0.076 A  
ENDBRANCH  25  26
ENDBRANCH  14  25
ENDBRANCH   4   7
TORSDOF 3
ENDMDL
MODEL      102
REMARK 921   NORMALIZED FREE ENERGY PREDICTED BY IDOCK:   -4.68 KCAL/MOL
REMARK 922        TOTAL FREE ENERGY PREDICTED BY IDOCK:   -5.64 KCAL/MOL
REMARK 923 INTER-LIGAND FREE ENERGY PREDICTED BY IDOCK:   -5.50 KCAL/MOL
REMARK 924 INTRA-LIGAND FREE ENERGY PREDICTED BY IDOCK:   -0.14 KCAL/MOL
REMARK 927      BINDING AFFINITY PREDICTED BY RF-SCORE:    0.00 PKD
ROOT
HETATM    1  N   UNL     1      -9.123  12.740  66.434  1.00  0.00    -0.411 N  
HETATM    2  H1  UNL     1      -9.334  11.984  65.782  1.00  0.00     0.000 HD 
HETATM    3  H2  UNL     1      -8.309  13.353  66.387  1.00  0.00     0.000 HD 
HETATM    4  S   UNL     1     -10.330  12.813  67.595  1.00  0.00    -0.224 S  
HETATM    5  O   UNL     1     -11.561  12.770  66.843  1.00  0.00    -0.327 OA 
HETATM    6  O   UNL     1     -10.032  13.880  68.515  1.00  0.00    -0.226 OA 
ENDROOT
BRANCH   4   7
HETATM    7  C   UNL     1     -10.118  11.261  68.435  1.00  0.00    -0.195 A  
HETATM    8  C   UNL     1      -9.033  10.480  68.026  1.00  0.00    -0.135 A  
HETATM    9  C   UNL     1      -8.740   9.289  68.688  1.00  0.00    -0.132 A  
HETATM   10  C   UNL     1      -9.497   8.822  69.756  1.00  0.00    -0.167 A  
HETATM   11  C   UNL     1     -10.581   9.622  70.158  1.00  0.00    -0.320 A  
HETATM   12  N   UNL     1      -9.133   7.710  70.520  1.00  0.00    -0.151 NA 
HETATM   13  H   UNL     1      -9.455   7.606  71.482  1.00  0.00     0.000 HD 
HETATM   14  C   UNL     1      -8.280   6.700  69.902  1.00  0.00    -0.127 C  
HETATM   15  C   UNL     1     -10.930  10.841  69.499  1.00  0.00    -0.317 A  
HETATM   16  N   UNL     1      -7.049   7.335  69.444  1.00  0.00    -0.072 N  
HETATM   17  O   UNL     1      -7.730   7.562  67.048  1.00  0.00    -0.106 OA 
HETATM   18  C   UNL     1     -12.150  11.567  70.022  1.00  0.00    -0.331 C  
HETATM   19  F   UNL     1     -12.452  12.765  69.465  1.00  0.00    -0.221 F  
HETATM   20  F   UNL     1     -13.276  10.808  69.885  1.00  0.00    -0.212 F  
HETATM   21  S   UNL     1      -7.334   8.385  68.169  1.00  0.00    -0.097 S  
HETATM   22  F   UNL     1     -12.050  11.817  71.360  1.00  0.00    -0.298 F  
HETATM   23  O   UNL     1      -6.200   9.275  68.093  1.00  0.00    -0.052 OA 
HETATM   24  H   UNL     1      -6.129   7.162  69.849  1.00  0.00     0.000 HD 
BRANCH  14  25
HETATM   25  C   UNL     1      -7.893   5.596  70.918  1.00  0.00    -0.105 C  
BRANCH  25  26
HETATM   26  C   UNL     1      -8.856   5.477  72.076  1.00  0.00    -0.137 A  
HETATM   27  C   UNL     1      -8.472   5.847  73.373  1.00  0.00    -0.117 A  
HETATM   28  C   UNL     1      -9.327   5.621  74.451  1.00  0.00    -0.136 A  
HETATM   29  C   UNL     1     -10.582   5.054  74.238  1.00  0.00    -0.310 A  
HETATM   30  C   UNL     1     -10.997   4.743  72.945  1.00  0.00    -0.312 A  
HETATM   31  C   UNL     1     -10.140   4.958  71.867  1.00  0.00    -0.262 A  
ENDBRANCH  25  26
ENDBRANCH  14  25
ENDBRANCH   4   7
TORSDOF 3
ENDMDL
MODEL      103
REMARK 921   NORMALIZED FREE ENERGY PREDICTED BY IDOCK:   -4.65 KCAL/MOL
REMARK 922        TOTAL FREE ENERGY PREDICTED BY IDOCK:   -5.61 KCAL/MOL
REMARK 923 INTER-LIGAND FREE ENERGY PREDICTED BY IDOCK:   -5.89 KCAL/MOL
REMARK 924 INTRA-LIGAND FREE ENERGY PREDICTED BY IDOCK:    0.29 KCAL/MOL
REMARK 927      BINDING AFFINITY PREDICTED BY RF-SCORE:    0.00 PKD
ROOT
HETATM    1  N   UNL     1     -10.850  15.892  64.292  1.00  0.00    -0.425 N  
HETATM    2  H1  UNL     1     -11.825  15.645  64.460  1.00  0.00     0.000 HD 
HETATM    3  H2  UNL     1     -10.352  15.771  63.410  1.00  0.00     0.000 HD 
HETATM    4  S   UNL     1     -10.198  16.530  65.698  1.00  0.00    -0.239 S  
HETATM    5  O   UNL     1     -11.169  17.500  66.141  1.00  0.00     0.357 OA 
HETATM    6  O   UNL     1      -8.821  16.878  65.461  1.00  0.00    -0.353 OA 
ENDROOT
BRANCH   4   7
HETATM    7  C   UNL     1     -10.250  15.127  66.789  1.00  0.00    -0.264 A  
HETATM    8  C   UNL     1     -10.322  13.872  66.179  1.00  0.00    -0.303 A  
HETATM    9  C   UNL     1     -10.280  12.714  66.954  1.00  0.00    -0.234 A  
HETATM   10  C   UNL     1     -10.177  12.746  68.340  1.00  0.00    -0.236 A  
HETATM   11  C   UNL     1     -10.102  14.016  68.937  1.00  0.00    -0.133 A  
HETATM   12  N   UNL     1      -9.989  11.600  69.117  1.00  0.00    -0.418 NA 
HETATM   13  H   UNL     1      -9.549  11.655  70.035  1.00  0.00     0.000 HD 
HETATM   14  C   UNL     1     -10.440  10.321  68.577  1.00  0.00    -0.192 C  
HETATM   15  C   UNL     1     -10.158  15.230  68.185  1.00  0.00    -0.229 A  
HETATM   16  N   UNL     1      -9.785  10.090  67.295  1.00  0.00    -0.162 N  
HETATM   17  O   UNL     1     -11.697  10.841  65.868  1.00  0.00     0.470 OA 
HETATM   18  C   UNL     1     -10.107  16.518  68.976  1.00  0.00    -0.279 C  
HETATM   19  F   UNL     1     -10.078  17.680  68.279  1.00  0.00    -0.286 F  
HETATM   20  F   UNL     1     -11.175  16.626  69.818  1.00  0.00    -0.310 F  
HETATM   21  S   UNL     1     -10.314  11.171  66.129  1.00  0.00    -0.253 S  
HETATM   22  F   UNL     1      -9.009  16.567  69.786  1.00  0.00    -0.038 F  
HETATM   23  O   UNL     1      -9.324  11.175  65.076  1.00  0.00    -0.220 OA 
HETATM   24  H   UNL     1      -9.092   9.360  67.129  1.00  0.00     0.000 HD 
BRANCH  14  25
HETATM   25  C   UNL     1     -10.061   9.152  69.521  1.00  0.00    -0.202 C  
BRANCH  25  26
HETATM   26  C   UNL     1     -11.017   8.973  70.676  1.00  0.00    -0.308 A  
HETATM   27  C   UNL     1     -10.838   7.940  71.606  1.00  0.00    -0.275 A  
HETATM   28  C   UNL     1     -11.792   7.712  72.597  1.00  0.00    -0.269 A  
HETATM   29  C   UNL     1     -12.914   8.532  72.686  1.00  0.00    -0.214 A  
HETATM   30  C   UNL     1     -13.069   9.601  71.806  1.00  0.00    -0.514 A  
HETATM   31  C   UNL     1     -12.122   9.824  70.807  1.00  0.00    -0.364 A  
ENDBRANCH  25  26
ENDBRANCH  14  25
ENDBRANCH   4   7
TORSDOF 3
ENDMDL
MODEL      104
REMARK 921   NORMALIZED FREE ENERGY PREDICTED BY IDOCK:   -4.65 KCAL/MOL
REMARK 922        TOTAL FREE ENERGY PREDICTED BY IDOCK:   -5.61 KCAL/MOL
REMARK 923 INTER-LIGAND FREE ENERGY PREDICTED BY IDOCK:   -6.33 KCAL/MOL
REMARK 924 INTRA-LIGAND FREE ENERGY PREDICTED BY IDOCK:    0.72 KCAL/MOL
REMARK 927      BINDING AFFINITY PREDICTED BY RF-SCORE:    0.00 PKD
ROOT
HETATM    1  N   UNL     1      -8.916  17.124  66.187  1.00  0.00    -0.223 N  
HETATM    2  H1  UNL     1      -8.277  16.883  65.429  1.00  0.00     0.000 HD 
HETATM    3  H2  UNL     1      -8.703  17.745  66.967  1.00  0.00     0.000 HD 
HETATM    4  S   UNL     1     -10.376  16.336  65.942  1.00  0.00    -0.359 S  
HETATM    5  O   UNL     1     -10.696  16.588  64.558  1.00  0.00    -0.721 OA 
HETATM    6  O   UNL     1     -11.278  16.675  67.011  1.00  0.00     0.056 OA 
ENDROOT
BRANCH   4   7
HETATM    7  C   UNL     1      -9.900  14.632  66.119  1.00  0.00    -0.312 A  
HETATM    8  C   UNL     1      -8.720  14.390  66.828  1.00  0.00    -0.187 A  
HETATM    9  C   UNL     1      -8.317  13.082  67.089  1.00  0.00    -0.150 A  
HETATM   10  C   UNL     1      -9.043  11.977  66.661  1.00  0.00    -0.205 A  
HETATM   11  C   UNL     1     -10.229  12.238  65.952  1.00  0.00    -0.274 A  
HETATM   12  N   UNL     1      -8.731  10.667  67.037  1.00  0.00    -0.128 NA 
HETATM   13  H   UNL     1      -9.446   9.939  67.044  1.00  0.00     0.000 HD 
HETATM   14  C   UNL     1      -7.355  10.370  67.418  1.00  0.00    -0.093 C  
HETATM   15  C   UNL     1     -10.673  13.561  65.647  1.00  0.00    -0.284 A  
HETATM   16  N   UNL     1      -6.970  11.243  68.521  1.00  0.00    -0.073 N  
HETATM   17  O   UNL     1      -5.736  12.916  67.132  1.00  0.00    -0.347 OA 
HETATM   18  C   UNL     1     -11.948  13.677  64.840  1.00  0.00    -0.383 C  
HETATM   19  F   UNL     1     -12.430  14.922  64.607  1.00  0.00    -0.417 F  
HETATM   20  F   UNL     1     -11.810  13.104  63.609  1.00  0.00    -0.449 F  
HETATM   21  S   UNL     1      -6.863  12.842  68.034  1.00  0.00    -0.127 S  
HETATM   22  F   UNL     1     -12.978  13.006  65.432  1.00  0.00    -0.535 F  
HETATM   23  O   UNL     1      -6.934  13.654  69.227  1.00  0.00    -0.098 OA 
HETATM   24  H   UNL     1      -6.787  10.919  69.472  1.00  0.00     0.000 HD 
BRANCH  14  25
HETATM   25  C   UNL     1      -7.213   8.905  67.902  1.00  0.00    -0.083 C  
BRANCH  25  26
HETATM   26  C   UNL     1      -7.959   8.617  69.183  1.00  0.00    -0.110 A  
HETATM   27  C   UNL     1      -9.282   9.045  69.358  1.00  0.00    -0.150 A  
HETATM   28  C   UNL     1      -9.920   8.878  70.587  1.00  0.00    -0.265 A  
HETATM   29  C   UNL     1      -9.252   8.256  71.639  1.00  0.00    -0.245 A  
HETATM   30  C   UNL     1      -7.959   7.770  71.455  1.00  0.00    -0.097 A  
HETATM   31  C   UNL     1      -7.316   7.945  70.231  1.00  0.00    -0.065 A  
ENDBRANCH  25  26
ENDBRANCH  14  25
ENDBRANCH   4   7
TORSDOF 3
ENDMDL
MODEL      105
REMARK 921   NORMALIZED FREE ENERGY PREDICTED BY IDOCK:   -4.64 KCAL/MOL
REMARK 922        TOTAL FREE ENERGY PREDICTED BY IDOCK:   -5.59 KCAL/MOL
REMARK 923 INTER-LIGAND FREE ENERGY PREDICTED BY IDOCK:   -6.13 KCAL/MOL
REMARK 924 INTRA-LIGAND FREE ENERGY PREDICTED BY IDOCK:    0.54 KCAL/MOL
REMARK 927      BINDING AFFINITY PREDICTED BY RF-SCORE:    0.00 PKD
ROOT
HETATM    1  N   UNL     1     -11.024  16.342  65.551  1.00  0.00    -0.209 N  
HETATM    2  H1  UNL     1     -11.814  16.074  66.139  1.00  0.00     0.000 HD 
HETATM    3  H2  UNL     1     -11.014  16.331  64.531  1.00  0.00     0.000 HD 
HETATM    4  S   UNL     1      -9.745  16.803  66.532  1.00  0.00    -0.299 S  
HETATM    5  O   UNL     1     -10.331  17.709  67.490  1.00  0.00    -0.337 OA 
HETATM    6  O   UNL     1      -8.631  17.180  65.703  1.00  0.00    -0.470 OA 
ENDROOT
BRANCH   4   7
HETATM    7  C   UNL     1      -9.352  15.276  67.354  1.00  0.00    -0.199 A  
HETATM    8  C   UNL     1     -10.220  14.207  67.120  1.00  0.00    -0.258 A  
HETATM    9  C   UNL     1      -9.941  12.950  67.653  1.00  0.00    -0.218 A  
HETATM   10  C   UNL     1      -8.819  12.702  68.435  1.00  0.00    -0.119 A  
HETATM   11  C   UNL     1      -7.954  13.788  68.658  1.00  0.00    -0.095 A  
HETATM   12  N   UNL     1      -8.451  11.421  68.856  1.00  0.00    -0.344 NA 
HETATM   13  H   UNL     1      -7.480  11.203  69.082  1.00  0.00     0.000 HD 
HETATM   14  C   UNL     1      -9.493  10.406  68.962  1.00  0.00    -0.197 C  
HETATM   15  C   UNL     1      -8.208  15.097  68.145  1.00  0.00    -0.145 A  
HETATM   16  N   UNL     1     -10.152  10.266  67.670  1.00  0.00    -0.182 N  
HETATM   17  O   UNL     1     -12.133  11.693  68.214  1.00  0.00    -0.552 OA 
HETATM   18  C   UNL     1      -7.204  16.170  68.506  1.00  0.00    -0.144 C  
HETATM   19  F   UNL     1      -7.381  17.400  67.966  1.00  0.00    -0.176 F  
HETATM   20  F   UNL     1      -7.155  16.369  69.855  1.00  0.00    -0.182 F  
HETATM   21  S   UNL     1     -11.034  11.635  67.276  1.00  0.00    -0.284 S  
HETATM   22  F   UNL     1      -5.936  15.811  68.153  1.00  0.00    -0.098 F  
HETATM   23  O   UNL     1     -11.257  11.600  65.849  1.00  0.00    -0.305 OA 
HETATM   24  H   UNL     1     -10.086   9.437  67.078  1.00  0.00     0.000 HD 
BRANCH  14  25
HETATM   25  C   UNL     1      -8.893   9.027  69.339  1.00  0.00    -0.144 C  
BRANCH  25  26
HETATM   26  C   UNL     1      -9.108   7.966  68.286  1.00  0.00    -0.134 A  
HETATM   27  C   UNL     1     -10.396   7.504  67.982  1.00  0.00    -0.254 A  
HETATM   28  C   UNL     1     -10.572   6.443  67.095  1.00  0.00    -0.389 A  
HETATM   29  C   UNL     1      -9.467   5.856  66.483  1.00  0.00    -0.171 A  
HETATM   30  C   UNL     1      -8.188   6.350  66.730  1.00  0.00    -0.110 A  
HETATM   31  C   UNL     1      -8.009   7.404  67.625  1.00  0.00    -0.114 A  
ENDBRANCH  25  26
ENDBRANCH  14  25
ENDBRANCH   4   7
TORSDOF 3
ENDMDL
MODEL      106
REMARK 921   NORMALIZED FREE ENERGY PREDICTED BY IDOCK:   -4.63 KCAL/MOL
REMARK 922        TOTAL FREE ENERGY PREDICTED BY IDOCK:   -5.59 KCAL/MOL
REMARK 923 INTER-LIGAND FREE ENERGY PREDICTED BY IDOCK:   -5.48 KCAL/MOL
REMARK 924 INTRA-LIGAND FREE ENERGY PREDICTED BY IDOCK:   -0.11 KCAL/MOL
REMARK 927      BINDING AFFINITY PREDICTED BY RF-SCORE:    0.00 PKD
ROOT
HETATM    1  N   UNL     1      -9.677  14.446  65.916  1.00  0.00    -0.435 N  
HETATM    2  H1  UNL     1     -10.110  14.092  65.063  1.00  0.00     0.000 HD 
HETATM    3  H2  UNL     1      -8.834  15.018  65.959  1.00  0.00     0.000 HD 
HETATM    4  S   UNL     1     -10.575  13.936  67.237  1.00  0.00    -0.277 S  
HETATM    5  O   UNL     1     -11.941  14.241  66.886  1.00  0.00    -0.416 OA 
HETATM    6  O   UNL     1      -9.964  14.435  68.441  1.00  0.00    -0.228 OA 
ENDROOT
BRANCH   4   7
HETATM    7  C   UNL     1     -10.346  12.174  67.171  1.00  0.00    -0.214 A  
HETATM    8  C   UNL     1      -9.592  11.689  66.099  1.00  0.00    -0.252 A  
HETATM    9  C   UNL     1      -9.289  10.331  66.016  1.00  0.00    -0.180 A  
HETATM   10  C   UNL     1      -9.719   9.410  66.963  1.00  0.00    -0.178 A  
HETATM   11  C   UNL     1     -10.474   9.915  68.036  1.00  0.00    -0.266 A  
HETATM   12  N   UNL     1      -9.305   8.075  66.972  1.00  0.00    -0.147 NA 
HETATM   13  H   UNL     1      -9.308   7.531  67.834  1.00  0.00     0.000 HD 
HETATM   14  C   UNL     1      -8.870   7.482  65.712  1.00  0.00    -0.090 C  
HETATM   15  C   UNL     1     -10.822  11.296  68.155  1.00  0.00    -0.263 A  
HETATM   16  N   UNL     1      -7.773   8.273  65.168  1.00  0.00    -0.096 N  
HETATM   17  O   UNL     1      -9.154   9.580  63.543  1.00  0.00    -0.230 OA 
HETATM   18  C   UNL     1     -11.674  11.678  69.345  1.00  0.00    -0.340 C  
HETATM   19  F   UNL     1     -11.950  12.993  69.522  1.00  0.00    -0.324 F  
HETATM   20  F   UNL     1     -12.888  11.054  69.307  1.00  0.00    -0.208 F  
HETATM   21  S   UNL     1      -8.290   9.792  64.683  1.00  0.00    -0.176 S  
HETATM   22  F   UNL     1     -11.105  11.278  70.519  1.00  0.00    -0.229 F  
HETATM   23  O   UNL     1      -7.118  10.631  64.600  1.00  0.00     0.012 OA 
HETATM   24  H   UNL     1      -6.810   7.944  65.093  1.00  0.00     0.000 HD 
BRANCH  14  25
HETATM   25  C   UNL     1      -8.352   6.037  65.924  1.00  0.00    -0.138 C  
BRANCH  25  26
HETATM   26  C   UNL     1      -8.741   5.086  64.817  1.00  0.00    -0.149 A  
HETATM   27  C   UNL     1      -8.406   5.358  63.483  1.00  0.00    -0.097 A  
HETATM   28  C   UNL     1      -8.873   4.536  62.458  1.00  0.00    -0.124 A  
HETATM   29  C   UNL     1      -9.651   3.420  62.760  1.00  0.00    -0.099 A  
HETATM   30  C   UNL     1      -9.936   3.106  64.087  1.00  0.00    -0.166 A  
HETATM   31  C   UNL     1      -9.479   3.933  65.113  1.00  0.00    -0.170 A  
ENDBRANCH  25  26
ENDBRANCH  14  25
ENDBRANCH   4   7
TORSDOF 3
ENDMDL
MODEL      107
REMARK 921   NORMALIZED FREE ENERGY PREDICTED BY IDOCK:   -4.62 KCAL/MOL
REMARK 922        TOTAL FREE ENERGY PREDICTED BY IDOCK:   -5.57 KCAL/MOL
REMARK 923 INTER-LIGAND FREE ENERGY PREDICTED BY IDOCK:   -5.54 KCAL/MOL
REMARK 924 INTRA-LIGAND FREE ENERGY PREDICTED BY IDOCK:   -0.03 KCAL/MOL
REMARK 927      BINDING AFFINITY PREDICTED BY RF-SCORE:    0.00 PKD
ROOT
HETATM    1  N   UNL     1     -11.692  14.135  70.673  1.00  0.00    -0.485 N  
HETATM    2  H1  UNL     1     -10.816  13.788  71.062  1.00  0.00     0.000 HD 
HETATM    3  H2  UNL     1     -12.596  14.124  71.146  1.00  0.00     0.000 HD 
HETATM    4  S   UNL     1     -11.409  14.726  69.130  1.00  0.00    -0.300 S  
HETATM    5  O   UNL     1     -10.246  15.569  69.272  1.00  0.00    -0.220 OA 
HETATM    6  O   UNL     1     -12.646  15.215  68.580  1.00  0.00     0.165 OA 
ENDROOT
BRANCH   4   7
HETATM    7  C   UNL     1     -10.943  13.249  68.257  1.00  0.00    -0.256 A  
HETATM    8  C   UNL     1     -10.805  12.092  69.029  1.00  0.00    -0.208 A  
HETATM    9  C   UNL     1     -10.527  10.872  68.417  1.00  0.00    -0.183 A  
HETATM   10  C   UNL     1     -10.366  10.746  67.042  1.00  0.00    -0.228 A  
HETATM   11  C   UNL     1     -10.512  11.918  66.280  1.00  0.00    -0.274 A  
HETATM   12  N   UNL     1     -10.231   9.511  66.401  1.00  0.00    -0.256 NA 
HETATM   13  H   UNL     1     -10.490   9.398  65.421  1.00  0.00     0.000 HD 
HETATM   14  C   UNL     1      -9.709   8.388  67.172  1.00  0.00    -0.190 C  
HETATM   15  C   UNL     1     -10.780  13.193  66.865  1.00  0.00    -0.270 A  
HETATM   16  N   UNL     1     -10.556   8.181  68.341  1.00  0.00    -0.378 N  
HETATM   17  O   UNL     1      -9.085   9.384  69.966  1.00  0.00    -0.183 OA 
HETATM   18  C   UNL     1     -10.867  14.368  65.916  1.00  0.00    -0.304 C  
HETATM   19  F   UNL     1     -11.199  15.573  66.439  1.00  0.00    -0.313 F  
HETATM   20  F   UNL     1      -9.685  14.568  65.264  1.00  0.00    -0.354 F  
HETATM   21  S   UNL     1     -10.426   9.448  69.429  1.00  0.00    -0.225 S  
HETATM   22  F   UNL     1     -11.784  14.148  64.929  1.00  0.00    -0.333 F  
HETATM   23  O   UNL     1     -11.588   9.392  70.285  1.00  0.00    -0.233 OA 
HETATM   24  H   UNL     1     -11.154   7.365  68.478  1.00  0.00     0.000 HD 
BRANCH  14  25
HETATM   25  C   UNL     1      -9.724   7.082  66.338  1.00  0.00    -0.133 C  
BRANCH  25  26
HETATM   26  C   UNL     1      -8.478   6.880  65.509  1.00  0.00    -0.122 A  
HETATM   27  C   UNL     1      -8.184   7.729  64.433  1.00  0.00    -0.041 A  
HETATM   28  C   UNL     1      -7.096   7.461  63.603  1.00  0.00    -0.066 A  
HETATM   29  C   UNL     1      -6.276   6.364  63.860  1.00  0.00    -0.026 A  
HETATM   30  C   UNL     1      -6.523   5.552  64.965  1.00  0.00    -0.039 A  
HETATM   31  C   UNL     1      -7.617   5.811  65.790  1.00  0.00    -0.090 A  
ENDBRANCH  25  26
ENDBRANCH  14  25
ENDBRANCH   4   7
TORSDOF 3
ENDMDL
MODEL      108
REMARK 921   NORMALIZED FREE ENERGY PREDICTED BY IDOCK:   -4.60 KCAL/MOL
REMARK 922        TOTAL FREE ENERGY PREDICTED BY IDOCK:   -5.55 KCAL/MOL
REMARK 923 INTER-LIGAND FREE ENERGY PREDICTED BY IDOCK:   -6.33 KCAL/MOL
REMARK 924 INTRA-LIGAND FREE ENERGY PREDICTED BY IDOCK:    0.78 KCAL/MOL
REMARK 927      BINDING AFFINITY PREDICTED BY RF-SCORE:    0.00 PKD
ROOT
HETATM    1  N   UNL     1      -7.220  10.713  64.467  1.00  0.00    -0.354 N  
HETATM    2  H1  UNL     1      -6.619  10.027  64.923  1.00  0.00     0.000 HD 
HETATM    3  H2  UNL     1      -7.028  11.712  64.391  1.00  0.00     0.000 HD 
HETATM    4  S   UNL     1      -8.575   9.933  63.860  1.00  0.00    -0.214 S  
HETATM    5  O   UNL     1      -8.050   8.786  63.160  1.00  0.00    -0.159 OA 
HETATM    6  O   UNL     1      -9.424  10.901  63.216  1.00  0.00    -0.256 OA 
ENDROOT
BRANCH   4   7
HETATM    7  C   UNL     1      -9.371   9.380  65.350  1.00  0.00    -0.247 A  
HETATM    8  C   UNL     1      -9.212   8.030  65.672  1.00  0.00     0.010 A  
HETATM    9  C   UNL     1      -9.728   7.530  66.865  1.00  0.00    -0.209 A  
HETATM   10  C   UNL     1     -10.421   8.325  67.771  1.00  0.00    -0.215 A  
HETATM   11  C   UNL     1     -10.569   9.681  67.434  1.00  0.00    -0.333 A  
HETATM   12  N   UNL     1     -10.817   7.874  69.033  1.00  0.00    -0.417 NA 
HETATM   13  H   UNL     1     -10.968   8.529  69.801  1.00  0.00     0.000 HD 
HETATM   14  C   UNL     1     -11.011   6.440  69.222  1.00  0.00    -0.356 C  
HETATM   15  C   UNL     1     -10.071  10.235  66.215  1.00  0.00    -0.300 A  
HETATM   16  N   UNL     1      -9.775   5.746  68.882  1.00  0.00    -0.130 N  
HETATM   17  O   UNL     1     -10.465   5.067  66.576  1.00  0.00    -0.271 OA 
HETATM   18  C   UNL     1     -10.347  11.703  65.977  1.00  0.00    -0.243 C  
HETATM   19  F   UNL     1      -9.816  12.268  64.866  1.00  0.00    -0.258 F  
HETATM   20  F   UNL     1     -11.687  11.951  65.906  1.00  0.00    -0.398 F  
HETATM   21  S   UNL     1      -9.444   5.844  67.242  1.00  0.00    -0.118 S  
HETATM   22  F   UNL     1      -9.897  12.472  67.011  1.00  0.00    -0.205 F  
HETATM   23  O   UNL     1      -8.040   5.551  67.075  1.00  0.00    -0.101 OA 
HETATM   24  H   UNL     1      -9.184   5.260  69.557  1.00  0.00     0.000 HD 
BRANCH  14  25
HETATM   25  C   UNL     1     -11.347   6.111  70.699  1.00  0.00    -0.368 C  
BRANCH  25  26
HETATM   26  C   UNL     1     -12.104   7.211  71.405  1.00  0.00    -0.381 A  
HETATM   27  C   UNL     1     -11.434   8.150  72.202  1.00  0.00    -0.412 A  
HETATM   28  C   UNL     1     -12.154   9.086  72.943  1.00  0.00     0.526 A  
HETATM   29  C   UNL     1     -13.546   9.111  72.870  1.00  0.00    -0.081 A  
HETATM   30  C   UNL     1     -14.216   8.223  72.032  1.00  0.00    -0.507 A  
HETATM   31  C   UNL     1     -13.499   7.279  71.299  1.00  0.00    -0.333 A  
ENDBRANCH  25  26
ENDBRANCH  14  25
ENDBRANCH   4   7
TORSDOF 3
ENDMDL
MODEL      109
REMARK 921   NORMALIZED FREE ENERGY PREDICTED BY IDOCK:   -4.56 KCAL/MOL
REMARK 922        TOTAL FREE ENERGY PREDICTED BY IDOCK:   -5.49 KCAL/MOL
REMARK 923 INTER-LIGAND FREE ENERGY PREDICTED BY IDOCK:   -5.51 KCAL/MOL
REMARK 924 INTRA-LIGAND FREE ENERGY PREDICTED BY IDOCK:    0.02 KCAL/MOL
REMARK 927      BINDING AFFINITY PREDICTED BY RF-SCORE:    0.00 PKD
ROOT
HETATM    1  N   UNL     1      -8.455   8.132  63.205  1.00  0.00    -0.404 N  
HETATM    2  H1  UNL     1      -7.919   8.948  63.499  1.00  0.00     0.000 HD 
HETATM    3  H2  UNL     1      -9.275   8.149  62.598  1.00  0.00     0.000 HD 
HETATM    4  S   UNL     1      -7.771   6.757  63.878  1.00  0.00    -0.105 S  
HETATM    5  O   UNL     1      -6.359   6.887  63.610  1.00  0.00    -0.041 OA 
HETATM    6  O   UNL     1      -8.527   5.605  63.462  1.00  0.00    -0.087 OA 
ENDROOT
BRANCH   4   7
HETATM    7  C   UNL     1      -8.052   7.027  65.613  1.00  0.00    -0.129 A  
HETATM    8  C   UNL     1      -8.741   8.194  65.953  1.00  0.00    -0.184 A  
HETATM    9  C   UNL     1      -9.080   8.443  67.282  1.00  0.00    -0.137 A  
HETATM   10  C   UNL     1      -8.751   7.571  68.313  1.00  0.00    -0.123 A  
HETATM   11  C   UNL     1      -8.062   6.400  67.952  1.00  0.00    -0.115 A  
HETATM   12  N   UNL     1      -9.208   7.733  69.624  1.00  0.00    -0.153 NA 
HETATM   13  H   UNL     1      -9.288   6.935  70.254  1.00  0.00     0.000 HD 
HETATM   14  C   UNL     1      -9.569   9.077  70.065  1.00  0.00    -0.186 C  
HETATM   15  C   UNL     1      -7.679   6.111  66.607  1.00  0.00    -0.103 A  
HETATM   16  N   UNL     1     -10.597   9.608  69.177  1.00  0.00    -0.215 N  
HETATM   17  O   UNL     1      -9.058  10.984  67.765  1.00  0.00    -0.143 OA 
HETATM   18  C   UNL     1      -6.904   4.830  66.385  1.00  0.00    -0.058 C  
HETATM   19  F   UNL     1      -6.599   4.496  65.108  1.00  0.00    -0.039 F  
HETATM   20  F   UNL     1      -5.712   4.850  67.050  1.00  0.00    -0.012 F  
HETATM   21  S   UNL     1      -9.996   9.891  67.638  1.00  0.00    -0.182 S  
HETATM   22  F   UNL     1      -7.571   3.748  66.882  1.00  0.00    -0.076 F  
HETATM   23  O   UNL     1     -11.131   9.966  66.748  1.00  0.00    -0.009 OA 
HETATM   24  H   UNL     1     -11.562   9.785  69.458  1.00  0.00     0.000 HD 
BRANCH  14  25
HETATM   25  C   UNL     1     -10.149   9.056  71.502  1.00  0.00    -0.409 C  
BRANCH  25  26
HETATM   26  C   UNL     1     -11.636   8.793  71.549  1.00  0.00    -0.374 A  
HETATM   27  C   UNL     1     -12.542   9.827  71.818  1.00  0.00    -0.506 A  
HETATM   28  C   UNL     1     -13.899   9.551  71.977  1.00  0.00    -0.365 A  
HETATM   29  C   UNL     1     -14.365   8.245  71.838  1.00  0.00    -0.564 A  
HETATM   30  C   UNL     1     -13.481   7.220  71.508  1.00  0.00    -0.439 A  
HETATM   31  C   UNL     1     -12.122   7.492  71.359  1.00  0.00    -0.354 A  
ENDBRANCH  25  26
ENDBRANCH  14  25
ENDBRANCH   4   7
TORSDOF 3
ENDMDL
MODEL      110
REMARK 921   NORMALIZED FREE ENERGY PREDICTED BY IDOCK:   -4.55 KCAL/MOL
REMARK 922        TOTAL FREE ENERGY PREDICTED BY IDOCK:   -5.49 KCAL/MOL
REMARK 923 INTER-LIGAND FREE ENERGY PREDICTED BY IDOCK:   -5.62 KCAL/MOL
REMARK 924 INTRA-LIGAND FREE ENERGY PREDICTED BY IDOCK:    0.14 KCAL/MOL
REMARK 927      BINDING AFFINITY PREDICTED BY RF-SCORE:    0.00 PKD
ROOT
HETATM    1  N   UNL     1     -12.394  15.600  68.889  1.00  0.00    -0.559 N  
HETATM    2  H1  UNL     1     -12.363  14.960  69.682  1.00  0.00     0.000 HD 
HETATM    3  H2  UNL     1     -13.213  15.790  68.312  1.00  0.00     0.000 HD 
HETATM    4  S   UNL     1     -10.880  16.293  68.687  1.00  0.00    -0.340 S  
HETATM    5  O   UNL     1     -10.500  16.726  70.009  1.00  0.00    -0.142 OA 
HETATM    6  O   UNL     1     -10.924  17.197  67.567  1.00  0.00    -0.253 OA 
ENDROOT
BRANCH   4   7
HETATM    7  C   UNL     1      -9.895  14.882  68.241  1.00  0.00    -0.218 A  
HETATM    8  C   UNL     1     -10.497  13.631  68.401  1.00  0.00    -0.251 A  
HETATM    9  C   UNL     1      -9.830  12.477  67.996  1.00  0.00    -0.214 A  
HETATM   10  C   UNL     1      -8.559  12.506  67.435  1.00  0.00    -0.187 A  
HETATM   11  C   UNL     1      -7.969  13.772  67.278  1.00  0.00    -0.135 A  
HETATM   12  N   UNL     1      -7.939  11.377  66.893  1.00  0.00    -0.153 NA 
HETATM   13  H   UNL     1      -7.219  11.468  66.176  1.00  0.00     0.000 HD 
HETATM   14  C   UNL     1      -8.349  10.065  67.382  1.00  0.00    -0.118 C  
HETATM   15  C   UNL     1      -8.607  14.981  67.693  1.00  0.00    -0.179 A  
HETATM   16  N   UNL     1      -9.785   9.911  67.179  1.00  0.00    -0.171 N  
HETATM   17  O   UNL     1     -10.457  10.482  69.520  1.00  0.00    -0.227 OA 
HETATM   18  C   UNL     1      -7.825  16.261  67.495  1.00  0.00    -0.146 C  
HETATM   19  F   UNL     1      -8.442  17.426  67.808  1.00  0.00    -0.209 F  
HETATM   20  F   UNL     1      -6.670  16.254  68.222  1.00  0.00    -0.120 F  
HETATM   21  S   UNL     1     -10.661  10.945  68.165  1.00  0.00    -0.215 S  
HETATM   22  F   UNL     1      -7.429  16.411  66.198  1.00  0.00    -0.275 F  
HETATM   23  O   UNL     1     -11.982  11.057  67.593  1.00  0.00    -0.583 OA 
HETATM   24  H   UNL     1     -10.204   9.256  66.519  1.00  0.00     0.000 HD 
BRANCH  14  25
HETATM   25  C   UNL     1      -7.637   8.930  66.603  1.00  0.00    -0.089 C  
BRANCH  25  26
HETATM   26  C   UNL     1      -7.412   9.249  65.143  1.00  0.00    -0.105 A  
HETATM   27  C   UNL     1      -6.164   9.694  64.687  1.00  0.00    -0.089 A  
HETATM   28  C   UNL     1      -6.001  10.098  63.363  1.00  0.00    -0.143 A  
HETATM   29  C   UNL     1      -7.075  10.031  62.477  1.00  0.00    -0.127 A  
HETATM   30  C   UNL     1      -8.302   9.529  62.905  1.00  0.00    -0.172 A  
HETATM   31  C   UNL     1      -8.470   9.135  64.232  1.00  0.00    -0.200 A  
ENDBRANCH  25  26
ENDBRANCH  14  25
ENDBRANCH   4   7
TORSDOF 3
ENDMDL
MODEL      111
REMARK 921   NORMALIZED FREE ENERGY PREDICTED BY IDOCK:   -4.54 KCAL/MOL
REMARK 922        TOTAL FREE ENERGY PREDICTED BY IDOCK:   -5.47 KCAL/MOL
REMARK 923 INTER-LIGAND FREE ENERGY PREDICTED BY IDOCK:   -6.19 KCAL/MOL
REMARK 924 INTRA-LIGAND FREE ENERGY PREDICTED BY IDOCK:    0.72 KCAL/MOL
REMARK 927      BINDING AFFINITY PREDICTED BY RF-SCORE:    0.00 PKD
ROOT
HETATM    1  N   UNL     1      -8.114   5.826  69.942  1.00  0.00    -0.105 N  
HETATM    2  H1  UNL     1      -9.078   5.509  69.838  1.00  0.00     0.000 HD 
HETATM    3  H2  UNL     1      -7.599   5.882  70.820  1.00  0.00     0.000 HD 
HETATM    4  S   UNL     1      -7.511   6.241  68.433  1.00  0.00    -0.089 S  
HETATM    5  O   UNL     1      -7.867   5.131  67.582  1.00  0.00    -0.094 OA 
HETATM    6  O   UNL     1      -6.151   6.688  68.579  1.00  0.00    -0.023 OA 
ENDROOT
BRANCH   4   7
HETATM    7  C   UNL     1      -8.527   7.637  68.009  1.00  0.00    -0.123 A  
HETATM    8  C   UNL     1      -7.868   8.861  67.870  1.00  0.00    -0.102 A  
HETATM    9  C   UNL     1      -8.572   9.990  67.455  1.00  0.00    -0.125 A  
HETATM   10  C   UNL     1      -9.933   9.962  67.175  1.00  0.00    -0.200 A  
HETATM   11  C   UNL     1     -10.579   8.721  67.317  1.00  0.00    -0.303 A  
HETATM   12  N   UNL     1     -10.620  11.045  66.622  1.00  0.00    -0.257 NA 
HETATM   13  H   UNL     1     -11.477  10.904  66.086  1.00  0.00     0.000 HD 
HETATM   14  C   UNL     1     -10.079  12.384  66.832  1.00  0.00    -0.219 C  
HETATM   15  C   UNL     1      -9.903   7.542  67.755  1.00  0.00    -0.191 A  
HETATM   16  N   UNL     1      -8.714  12.428  66.321  1.00  0.00    -0.414 N  
HETATM   17  O   UNL     1      -7.582  12.125  68.531  1.00  0.00    -0.118 OA 
HETATM   18  C   UNL     1     -10.746   6.293  67.898  1.00  0.00    -0.305 C  
HETATM   19  F   UNL     1     -10.111   5.144  68.235  1.00  0.00    -0.193 F  
HETATM   20  F   UNL     1     -11.722   6.459  68.838  1.00  0.00    -0.373 F  
HETATM   21  S   UNL     1      -7.680  11.481  67.240  1.00  0.00    -0.158 S  
HETATM   22  F   UNL     1     -11.410   6.001  66.742  1.00  0.00    -0.326 F  
HETATM   23  O   UNL     1      -6.512  11.223  66.431  1.00  0.00    -0.132 OA 
HETATM   24  H   UNL     1      -8.423  12.969  65.506  1.00  0.00     0.000 HD 
BRANCH  14  25
HETATM   25  C   UNL     1     -10.905  13.448  66.067  1.00  0.00    -0.281 C  
BRANCH  25  26
HETATM   26  C   UNL     1     -10.903  14.806  66.728  1.00  0.00    -0.316 A  
HETATM   27  C   UNL     1     -10.285  15.904  66.114  1.00  0.00    -0.340 A  
HETATM   28  C   UNL     1     -10.185  17.122  66.787  1.00  0.00    -0.311 A  
HETATM   29  C   UNL     1     -10.727  17.259  68.063  1.00  0.00    -0.367 A  
HETATM   30  C   UNL     1     -11.398  16.192  68.655  1.00  0.00    -0.365 A  
HETATM   31  C   UNL     1     -11.490  14.970  67.989  1.00  0.00    -0.357 A  
ENDBRANCH  25  26
ENDBRANCH  14  25
ENDBRANCH   4   7
TORSDOF 3
ENDMDL
MODEL      112
REMARK 921   NORMALIZED FREE ENERGY PREDICTED BY IDOCK:   -4.50 KCAL/MOL
REMARK 922        TOTAL FREE ENERGY PREDICTED BY IDOCK:   -5.43 KCAL/MOL
REMARK 923 INTER-LIGAND FREE ENERGY PREDICTED BY IDOCK:   -6.16 KCAL/MOL
REMARK 924 INTRA-LIGAND FREE ENERGY PREDICTED BY IDOCK:    0.73 KCAL/MOL
REMARK 927      BINDING AFFINITY PREDICTED BY RF-SCORE:    0.00 PKD
ROOT
HETATM    1  N   UNL     1      -8.387   5.705  72.257  1.00  0.00    -0.118 N  
HETATM    2  H1  UNL     1      -8.967   6.318  72.830  1.00  0.00     0.000 HD 
HETATM    3  H2  UNL     1      -7.394   5.524  72.400  1.00  0.00     0.000 HD 
HETATM    4  S   UNL     1      -9.331   5.041  71.040  1.00  0.00    -0.159 S  
HETATM    5  O   UNL     1     -10.514   4.567  71.717  1.00  0.00    -0.152 OA 
HETATM    6  O   UNL     1      -8.513   4.176  70.231  1.00  0.00    -0.067 OA 
ENDROOT
BRANCH   4   7
HETATM    7  C   UNL     1      -9.755   6.480  70.086  1.00  0.00    -0.167 A  
HETATM    8  C   UNL     1      -9.168   6.578  68.822  1.00  0.00    -0.131 A  
HETATM    9  C   UNL     1      -9.511   7.628  67.972  1.00  0.00    -0.143 A  
HETATM   10  C   UNL     1     -10.423   8.613  68.331  1.00  0.00    -0.176 A  
HETATM   11  C   UNL     1     -11.007   8.497  69.605  1.00  0.00    -0.093 A  
HETATM   12  N   UNL     1     -10.884   9.587  67.440  1.00  0.00    -0.373 NA 
HETATM   13  H   UNL     1     -11.787  10.039  67.580  1.00  0.00     0.000 HD 
HETATM   14  C   UNL     1     -10.036   9.938  66.306  1.00  0.00    -0.256 C  
HETATM   15  C   UNL     1     -10.674   7.448  70.516  1.00  0.00    -0.247 A  
HETATM   16  N   UNL     1      -9.759   8.735  65.530  1.00  0.00    -0.431 N  
HETATM   17  O   UNL     1      -7.494   8.298  66.496  1.00  0.00    -0.079 OA 
HETATM   18  C   UNL     1     -11.357   7.484  71.866  1.00  0.00    -0.260 C  
HETATM   19  F   UNL     1     -11.117   6.456  72.716  1.00  0.00    -0.245 F  
HETATM   20  F   UNL     1     -11.028   8.613  72.558  1.00  0.00    -0.408 F  
HETATM   21  S   UNL     1      -8.788   7.664  66.378  1.00  0.00    -0.161 S  
HETATM   22  F   UNL     1     -12.715   7.527  71.740  1.00  0.00    -0.316 F  
HETATM   23  O   UNL     1      -8.944   6.369  65.757  1.00  0.00    -0.138 OA 
HETATM   24  H   UNL     1     -10.113   8.566  64.588  1.00  0.00     0.000 HD 
BRANCH  14  25
HETATM   25  C   UNL     1     -10.744  10.952  65.372  1.00  0.00    -0.189 C  
BRANCH  25  26
HETATM   26  C   UNL     1     -10.637  12.383  65.841  1.00  0.00    -0.289 A  
HETATM   27  C   UNL     1     -11.677  13.295  65.615  1.00  0.00    -0.389 A  
HETATM   28  C   UNL     1     -11.519  14.640  65.946  1.00  0.00    -0.338 A  
HETATM   29  C   UNL     1     -10.333  15.078  66.533  1.00  0.00    -0.287 A  
HETATM   30  C   UNL     1      -9.319  14.168  66.820  1.00  0.00    -0.295 A  
HETATM   31  C   UNL     1      -9.470  12.824  66.480  1.00  0.00    -0.253 A  
ENDBRANCH  25  26
ENDBRANCH  14  25
ENDBRANCH   4   7
TORSDOF 3
ENDMDL
MODEL      113
REMARK 921   NORMALIZED FREE ENERGY PREDICTED BY IDOCK:   -4.47 KCAL/MOL
REMARK 922        TOTAL FREE ENERGY PREDICTED BY IDOCK:   -5.40 KCAL/MOL
REMARK 923 INTER-LIGAND FREE ENERGY PREDICTED BY IDOCK:   -5.48 KCAL/MOL
REMARK 924 INTRA-LIGAND FREE ENERGY PREDICTED BY IDOCK:    0.09 KCAL/MOL
REMARK 927      BINDING AFFINITY PREDICTED BY RF-SCORE:    0.00 PKD
ROOT
HETATM    1  N   UNL     1      -8.917  17.127  66.185  1.00  0.00    -0.223 N  
HETATM    2  H1  UNL     1      -8.274  16.889  65.429  1.00  0.00     0.000 HD 
HETATM    3  H2  UNL     1      -8.729  17.793  66.934  1.00  0.00     0.000 HD 
HETATM    4  S   UNL     1     -10.331  16.247  65.998  1.00  0.00    -0.348 S  
HETATM    5  O   UNL     1     -10.684  16.418  64.609  1.00  0.00    -0.693 OA 
HETATM    6  O   UNL     1     -11.237  16.583  67.065  1.00  0.00     0.016 OA 
ENDROOT
BRANCH   4   7
HETATM    7  C   UNL     1      -9.756  14.583  66.242  1.00  0.00    -0.309 A  
HETATM    8  C   UNL     1      -8.537  14.442  66.911  1.00  0.00    -0.191 A  
HETATM    9  C   UNL     1      -8.053  13.173  67.222  1.00  0.00    -0.146 A  
HETATM   10  C   UNL     1      -8.735  12.009  66.884  1.00  0.00    -0.193 A  
HETATM   11  C   UNL     1      -9.961  12.169  66.215  1.00  0.00    -0.249 A  
HETATM   12  N   UNL     1      -8.337  10.740  67.314  1.00  0.00    -0.123 NA 
HETATM   13  H   UNL     1      -9.010   9.978  67.390  1.00  0.00     0.000 HD 
HETATM   14  C   UNL     1      -6.932  10.537  67.650  1.00  0.00    -0.079 C  
HETATM   15  C   UNL     1     -10.488  13.449  65.861  1.00  0.00    -0.287 A  
HETATM   16  N   UNL     1      -6.550  11.487  68.688  1.00  0.00    -0.060 N  
HETATM   17  O   UNL     1      -5.467  13.145  67.161  1.00  0.00    -0.342 OA 
HETATM   18  C   UNL     1     -11.799  13.454  65.106  1.00  0.00    -0.350 C  
HETATM   19  F   UNL     1     -12.358  14.657  64.829  1.00  0.00    -0.408 F  
HETATM   20  F   UNL     1     -11.681  12.823  63.901  1.00  0.00    -0.380 F  
HETATM   21  S   UNL     1      -6.551  13.062  68.114  1.00  0.00    -0.121 S  
HETATM   22  F   UNL     1     -12.767  12.763  65.776  1.00  0.00    -0.462 F  
HETATM   23  O   UNL     1      -6.618  13.932  69.265  1.00  0.00    -0.106 OA 
HETATM   24  H   UNL     1      -6.312  11.226  69.645  1.00  0.00     0.000 HD 
BRANCH  14  25
HETATM   25  C   UNL     1      -6.690   9.110  68.203  1.00  0.00    -0.061 C  
BRANCH  25  26
HETATM   26  C   UNL     1      -6.696   8.040  67.136  1.00  0.00    -0.065 A  
HETATM   27  C   UNL     1      -7.831   7.245  66.921  1.00  0.00    -0.111 A  
HETATM   28  C   UNL     1      -7.785   6.184  66.017  1.00  0.00    -0.092 A  
HETATM   29  C   UNL     1      -6.617   5.928  65.301  1.00  0.00    -0.043 A  
HETATM   30  C   UNL     1      -5.506   6.752  65.462  1.00  0.00    -0.026 A  
HETATM   31  C   UNL     1      -5.545   7.807  66.373  1.00  0.00    -0.028 A  
ENDBRANCH  25  26
ENDBRANCH  14  25
ENDBRANCH   4   7
TORSDOF 3
ENDMDL
MODEL      114
REMARK 921   NORMALIZED FREE ENERGY PREDICTED BY IDOCK:   -4.42 KCAL/MOL
REMARK 922        TOTAL FREE ENERGY PREDICTED BY IDOCK:   -5.33 KCAL/MOL
REMARK 923 INTER-LIGAND FREE ENERGY PREDICTED BY IDOCK:   -6.27 KCAL/MOL
REMARK 924 INTRA-LIGAND FREE ENERGY PREDICTED BY IDOCK:    0.94 KCAL/MOL
REMARK 927      BINDING AFFINITY PREDICTED BY RF-SCORE:    0.00 PKD
ROOT
HETATM    1  N   UNL     1     -11.612   7.965  69.821  1.00  0.00    -0.361 N  
HETATM    2  H1  UNL     1     -10.658   7.632  69.681  1.00  0.00     0.000 HD 
HETATM    3  H2  UNL     1     -12.453   7.531  69.441  1.00  0.00     0.000 HD 
HETATM    4  S   UNL     1     -11.574   9.342  70.776  1.00  0.00    -0.300 S  
HETATM    5  O   UNL     1     -10.713   8.994  71.881  1.00  0.00    -0.347 OA 
HETATM    6  O   UNL     1     -12.920   9.813  70.974  1.00  0.00    -0.334 OA 
ENDROOT
BRANCH   4   7
HETATM    7  C   UNL     1     -10.718  10.490  69.722  1.00  0.00    -0.264 A  
HETATM    8  C   UNL     1     -11.427  11.636  69.353  1.00  0.00    -0.372 A  
HETATM    9  C   UNL     1     -10.805  12.631  68.600  1.00  0.00    -0.249 A  
HETATM   10  C   UNL     1      -9.484  12.533  68.179  1.00  0.00    -0.214 A  
HETATM   11  C   UNL     1      -8.785  11.375  68.562  1.00  0.00    -0.149 A  
HETATM   12  N   UNL     1      -8.805  13.580  67.550  1.00  0.00    -0.197 NA 
HETATM   13  H   UNL     1      -7.788  13.645  67.592  1.00  0.00     0.000 HD 
HETATM   14  C   UNL     1      -9.592  14.578  66.833  1.00  0.00    -0.250 C  
HETATM   15  C   UNL     1      -9.386  10.323  69.319  1.00  0.00    -0.221 A  
HETATM   16  N   UNL     1     -10.553  15.174  67.753  1.00  0.00    -0.259 N  
HETATM   17  O   UNL     1     -12.512  13.791  67.040  1.00  0.00    -0.315 OA 
HETATM   18  C   UNL     1      -8.514   9.122  69.617  1.00  0.00    -0.133 C  
HETATM   19  F   UNL     1      -9.037   8.148  70.400  1.00  0.00    -0.143 F  
HETATM   20  F   UNL     1      -8.124   8.495  68.469  1.00  0.00    -0.113 F  
HETATM   21  S   UNL     1     -11.725  14.070  68.221  1.00  0.00    -0.370 S  
HETATM   22  F   UNL     1      -7.354   9.486  70.236  1.00  0.00    -0.069 F  
HETATM   23  O   UNL     1     -12.328  14.580  69.430  1.00  0.00    -0.276 OA 
HETATM   24  H   UNL     1     -10.518  16.142  68.073  1.00  0.00     0.000 HD 
BRANCH  14  25
HETATM   25  C   UNL     1      -8.690  15.715  66.289  1.00  0.00    -0.325 C  
BRANCH  25  26
HETATM   26  C   UNL     1      -7.678  16.216  67.293  1.00  0.00    -0.212 A  
HETATM   27  C   UNL     1      -6.383  15.682  67.337  1.00  0.00    -0.144 A  
HETATM   28  C   UNL     1      -5.497  16.067  68.343  1.00  0.00    -0.104 A  
HETATM   29  C   UNL     1      -5.887  17.009  69.292  1.00  0.00    -0.191 A  
HETATM   30  C   UNL     1      -7.150  17.593  69.218  1.00  0.00    -0.120 A  
HETATM   31  C   UNL     1      -8.041  17.202  68.220  1.00  0.00    -0.239 A  
ENDBRANCH  25  26
ENDBRANCH  14  25
ENDBRANCH   4   7
TORSDOF 3
ENDMDL
MODEL      115
REMARK 921   NORMALIZED FREE ENERGY PREDICTED BY IDOCK:   -4.41 KCAL/MOL
REMARK 922        TOTAL FREE ENERGY PREDICTED BY IDOCK:   -5.32 KCAL/MOL
REMARK 923 INTER-LIGAND FREE ENERGY PREDICTED BY IDOCK:   -6.20 KCAL/MOL
REMARK 924 INTRA-LIGAND FREE ENERGY PREDICTED BY IDOCK:    0.88 KCAL/MOL
REMARK 927      BINDING AFFINITY PREDICTED BY RF-SCORE:    0.00 PKD
ROOT
HETATM    1  N   UNL     1     -10.906  14.316  64.477  1.00  0.00    -0.603 N  
HETATM    2  H1  UNL     1     -10.458  13.745  63.760  1.00  0.00     0.000 HD 
HETATM    3  H2  UNL     1     -10.607  15.247  64.765  1.00  0.00     0.000 HD 
HETATM    4  S   UNL     1     -12.214  13.476  65.105  1.00  0.00    -0.455 S  
HETATM    5  O   UNL     1     -12.929  12.998  63.947  1.00  0.00    -0.567 OA 
HETATM    6  O   UNL     1     -12.846  14.281  66.117  1.00  0.00    -0.326 OA 
ENDROOT
BRANCH   4   7
HETATM    7  C   UNL     1     -11.413  12.098  65.893  1.00  0.00    -0.363 A  
HETATM    8  C   UNL     1     -11.766  11.856  67.223  1.00  0.00    -0.319 A  
HETATM    9  C   UNL     1     -11.253  10.746  67.891  1.00  0.00    -0.318 A  
HETATM   10  C   UNL     1     -10.378   9.849  67.289  1.00  0.00    -0.245 A  
HETATM   11  C   UNL     1     -10.037  10.105  65.950  1.00  0.00    -0.325 A  
HETATM   12  N   UNL     1      -9.971   8.658  67.896  1.00  0.00    -0.178 NA 
HETATM   13  H   UNL     1      -9.663   7.863  67.335  1.00  0.00     0.000 HD 
HETATM   14  C   UNL     1      -9.999   8.582  69.352  1.00  0.00    -0.194 C  
HETATM   15  C   UNL     1     -10.525  11.238  65.230  1.00  0.00    -0.341 A  
HETATM   16  N   UNL     1     -11.352   8.865  69.816  1.00  0.00    -0.442 N  
HETATM   17  O   UNL     1     -10.946  11.261  70.408  1.00  0.00     0.112 OA 
HETATM   18  C   UNL     1     -10.033  11.399  63.808  1.00  0.00    -0.341 C  
HETATM   19  F   UNL     1     -10.543  12.422  63.080  1.00  0.00    -0.444 F  
HETATM   20  F   UNL     1      -8.679  11.564  63.767  1.00  0.00     0.056 F  
HETATM   21  S   UNL     1     -11.778  10.462  69.537  1.00  0.00    -0.142 S  
HETATM   22  F   UNL     1     -10.278  10.282  63.063  1.00  0.00    -0.226 F  
HETATM   23  O   UNL     1     -13.220  10.531  69.593  1.00  0.00     0.063 OA 
HETATM   24  H   UNL     1     -11.964   8.177  70.256  1.00  0.00     0.000 HD 
BRANCH  14  25
HETATM   25  C   UNL     1      -9.616   7.164  69.846  1.00  0.00    -0.163 C  
BRANCH  25  26
HETATM   26  C   UNL     1      -8.335   7.128  70.644  1.00  0.00    -0.126 A  
HETATM   27  C   UNL     1      -8.331   6.711  71.983  1.00  0.00    -0.106 A  
HETATM   28  C   UNL     1      -7.166   6.795  72.744  1.00  0.00    -0.079 A  
HETATM   29  C   UNL     1      -5.989   7.266  72.165  1.00  0.00    -0.037 A  
HETATM   30  C   UNL     1      -5.967   7.622  70.818  1.00  0.00    -0.034 A  
HETATM   31  C   UNL     1      -7.134   7.549  70.059  1.00  0.00    -0.060 A  
ENDBRANCH  25  26
ENDBRANCH  14  25
ENDBRANCH   4   7
TORSDOF 3
ENDMDL
MODEL      116
REMARK 921   NORMALIZED FREE ENERGY PREDICTED BY IDOCK:   -4.32 KCAL/MOL
REMARK 922        TOTAL FREE ENERGY PREDICTED BY IDOCK:   -5.22 KCAL/MOL
REMARK 923 INTER-LIGAND FREE ENERGY PREDICTED BY IDOCK:   -5.64 KCAL/MOL
REMARK 924 INTRA-LIGAND FREE ENERGY PREDICTED BY IDOCK:    0.43 KCAL/MOL
REMARK 927      BINDING AFFINITY PREDICTED BY RF-SCORE:    0.00 PKD
ROOT
HETATM    1  N   UNL     1     -10.832   6.526  67.818  1.00  0.00    -0.311 N  
HETATM    2  H1  UNL     1     -11.195   6.964  66.971  1.00  0.00     0.000 HD 
HETATM    3  H2  UNL     1     -11.390   6.035  68.516  1.00  0.00     0.000 HD 
HETATM    4  S   UNL     1      -9.171   6.741  67.876  1.00  0.00    -0.110 S  
HETATM    5  O   UNL     1      -8.710   6.367  66.560  1.00  0.00    -0.123 OA 
HETATM    6  O   UNL     1      -8.659   6.122  69.070  1.00  0.00    -0.120 OA 
ENDROOT
BRANCH   4   7
HETATM    7  C   UNL     1      -9.041   8.505  68.048  1.00  0.00    -0.140 A  
HETATM    8  C   UNL     1     -10.237   9.223  67.976  1.00  0.00    -0.255 A  
HETATM    9  C   UNL     1     -10.240  10.601  68.186  1.00  0.00    -0.168 A  
HETATM   10  C   UNL     1      -9.081  11.317  68.463  1.00  0.00    -0.173 A  
HETATM   11  C   UNL     1      -7.887  10.579  68.536  1.00  0.00    -0.111 A  
HETATM   12  N   UNL     1      -9.087  12.668  68.818  1.00  0.00    -0.394 NA 
HETATM   13  H   UNL     1      -8.326  13.069  69.367  1.00  0.00     0.000 HD 
HETATM   14  C   UNL     1     -10.210  13.490  68.380  1.00  0.00    -0.245 C  
HETATM   15  C   UNL     1      -7.833   9.169  68.311  1.00  0.00    -0.102 A  
HETATM   16  N   UNL     1     -11.449  12.905  68.880  1.00  0.00    -0.284 N  
HETATM   17  O   UNL     1     -12.076  11.736  66.760  1.00  0.00    -0.547 OA 
HETATM   18  C   UNL     1      -6.466   8.525  68.384  1.00  0.00    -0.055 C  
HETATM   19  F   UNL     1      -6.401   7.177  68.253  1.00  0.00    -0.033 F  
HETATM   20  F   UNL     1      -5.631   9.024  67.427  1.00  0.00    -0.039 F  
HETATM   21  S   UNL     1     -11.778  11.436  68.142  1.00  0.00    -0.239 S  
HETATM   22  F   UNL     1      -5.848   8.792  69.571  1.00  0.00    -0.032 F  
HETATM   23  O   UNL     1     -12.719  10.740  68.987  1.00  0.00    -0.188 OA 
HETATM   24  H   UNL     1     -12.042  13.335  69.590  1.00  0.00     0.000 HD 
BRANCH  14  25
HETATM   25  C   UNL     1     -10.104  14.929  68.947  1.00  0.00    -0.236 C  
BRANCH  25  26
HETATM   26  C   UNL     1     -11.095  15.218  70.050  1.00  0.00    -0.303 A  
HETATM   27  C   UNL     1     -10.690  15.252  71.391  1.00  0.00     0.150 A  
HETATM   28  C   UNL     1     -11.633  15.401  72.408  1.00  0.00    -0.545 A  
HETATM   29  C   UNL     1     -12.982  15.548  72.091  1.00  0.00    -0.506 A  
HETATM   30  C   UNL     1     -13.386  15.580  70.758  1.00  0.00    -0.315 A  
HETATM   31  C   UNL     1     -12.447  15.420  69.740  1.00  0.00    -0.219 A  
ENDBRANCH  25  26
ENDBRANCH  14  25
ENDBRANCH   4   7
TORSDOF 3
ENDMDL
MODEL      117
REMARK 921   NORMALIZED FREE ENERGY PREDICTED BY IDOCK:   -4.31 KCAL/MOL
REMARK 922        TOTAL FREE ENERGY PREDICTED BY IDOCK:   -5.20 KCAL/MOL
REMARK 923 INTER-LIGAND FREE ENERGY PREDICTED BY IDOCK:   -5.84 KCAL/MOL
REMARK 924 INTRA-LIGAND FREE ENERGY PREDICTED BY IDOCK:    0.64 KCAL/MOL
REMARK 927      BINDING AFFINITY PREDICTED BY RF-SCORE:    0.00 PKD
ROOT
HETATM    1  N   UNL     1      -8.062   5.874  67.475  1.00  0.00    -0.102 N  
HETATM    2  H1  UNL     1      -8.970   5.507  67.759  1.00  0.00     0.000 HD 
HETATM    3  H2  UNL     1      -7.169   5.650  67.914  1.00  0.00     0.000 HD 
HETATM    4  S   UNL     1      -8.273   6.905  66.170  1.00  0.00    -0.127 S  
HETATM    5  O   UNL     1      -9.122   6.172  65.262  1.00  0.00     0.030 OA 
HETATM    6  O   UNL     1      -6.991   7.424  65.769  1.00  0.00    -0.058 OA 
ENDROOT
BRANCH   4   7
HETATM    7  C   UNL     1      -9.217   8.223  66.900  1.00  0.00    -0.158 A  
HETATM    8  C   UNL     1      -9.677   8.006  68.201  1.00  0.00    -0.179 A  
HETATM    9  C   UNL     1     -10.351   9.018  68.882  1.00  0.00    -0.215 A  
HETATM   10  C   UNL     1     -10.604  10.261  68.314  1.00  0.00    -0.221 A  
HETATM   11  C   UNL     1     -10.131  10.464  67.006  1.00  0.00    -0.264 A  
HETATM   12  N   UNL     1     -11.148  11.331  69.031  1.00  0.00    -0.225 NA 
HETATM   13  H   UNL     1     -10.980  12.294  68.742  1.00  0.00     0.000 HD 
HETATM   14  C   UNL     1     -11.962  11.030  70.203  1.00  0.00    -0.360 C  
HETATM   15  C   UNL     1      -9.450   9.451  66.263  1.00  0.00    -0.273 A  
HETATM   16  N   UNL     1     -11.173  10.237  71.138  1.00  0.00    -0.265 N  
HETATM   17  O   UNL     1     -12.118   8.016  70.484  1.00  0.00    -0.061 OA 
HETATM   18  C   UNL     1      -9.040   9.808  64.852  1.00  0.00    -0.229 C  
HETATM   19  F   UNL     1      -8.323   8.892  64.157  1.00  0.00    -0.147 F  
HETATM   20  F   UNL     1     -10.127  10.085  64.074  1.00  0.00    -0.336 F  
HETATM   21  S   UNL     1     -10.850   8.708  70.531  1.00  0.00    -0.232 S  
HETATM   22  F   UNL     1      -8.282  10.943  64.821  1.00  0.00    -0.131 F  
HETATM   23  O   UNL     1      -9.728   8.186  71.276  1.00  0.00    -0.156 OA 
HETATM   24  H   UNL     1     -10.856  10.571  72.049  1.00  0.00     0.000 HD 
BRANCH  14  25
HETATM   25  C   UNL     1     -12.394  12.328  70.931  1.00  0.00    -0.363 C  
BRANCH  25  26
HETATM   26  C   UNL     1     -11.913  13.589  70.254  1.00  0.00    -0.386 A  
HETATM   27  C   UNL     1     -11.276  14.601  70.986  1.00  0.00    -0.022 A  
HETATM   28  C   UNL     1     -10.943  15.809  70.375  1.00  0.00    -0.369 A  
HETATM   29  C   UNL     1     -11.216  16.004  69.022  1.00  0.00    -0.347 A  
HETATM   30  C   UNL     1     -11.791  14.980  68.272  1.00  0.00    -0.295 A  
HETATM   31  C   UNL     1     -12.135  13.775  68.884  1.00  0.00    -0.348 A  
ENDBRANCH  25  26
ENDBRANCH  14  25
ENDBRANCH   4   7
TORSDOF 3
ENDMDL
MODEL      118
REMARK 921   NORMALIZED FREE ENERGY PREDICTED BY IDOCK:   -4.29 KCAL/MOL
REMARK 922        TOTAL FREE ENERGY PREDICTED BY IDOCK:   -5.18 KCAL/MOL
REMARK 923 INTER-LIGAND FREE ENERGY PREDICTED BY IDOCK:   -5.98 KCAL/MOL
REMARK 924 INTRA-LIGAND FREE ENERGY PREDICTED BY IDOCK:    0.80 KCAL/MOL
REMARK 927      BINDING AFFINITY PREDICTED BY RF-SCORE:    0.00 PKD
ROOT
HETATM    1  N   UNL     1      -7.696   4.629  71.102  1.00  0.00    -0.078 N  
HETATM    2  H1  UNL     1      -7.152   5.489  71.169  1.00  0.00     0.000 HD 
HETATM    3  H2  UNL     1      -7.311   3.685  71.063  1.00  0.00     0.000 HD 
HETATM    4  S   UNL     1      -9.327   5.016  71.064  1.00  0.00    -0.159 S  
HETATM    5  O   UNL     1      -9.503   5.952  72.149  1.00  0.00    -0.150 OA 
HETATM    6  O   UNL     1     -10.095   3.802  70.968  1.00  0.00    -0.119 OA 
ENDROOT
BRANCH   4   7
HETATM    7  C   UNL     1      -9.455   5.894  69.523  1.00  0.00    -0.138 A  
HETATM    8  C   UNL     1      -9.710   7.265  69.613  1.00  0.00    -0.159 A  
HETATM    9  C   UNL     1      -9.740   8.047  68.460  1.00  0.00    -0.159 A  
HETATM   10  C   UNL     1      -9.533   7.517  67.192  1.00  0.00    -0.154 A  
HETATM   11  C   UNL     1      -9.274   6.137  67.120  1.00  0.00    -0.120 A  
HETATM   12  N   UNL     1      -9.417   8.307  66.045  1.00  0.00    -0.399 NA 
HETATM   13  H   UNL     1      -8.907   7.972  65.227  1.00  0.00     0.000 HD 
HETATM   14  C   UNL     1     -10.045   9.624  66.050  1.00  0.00    -0.248 C  
HETATM   15  C   UNL     1      -9.250   5.293  68.273  1.00  0.00    -0.132 A  
HETATM   16  N   UNL     1      -9.515  10.398  67.166  1.00  0.00    -0.157 N  
HETATM   17  O   UNL     1     -11.431   9.988  68.721  1.00  0.00    -0.122 OA 
HETATM   18  C   UNL     1      -8.999   3.822  68.028  1.00  0.00    -0.126 C  
HETATM   19  F   UNL     1      -8.892   3.015  69.112  1.00  0.00    -0.099 F  
HETATM   20  F   UNL     1      -9.984   3.271  67.261  1.00  0.00    -0.159 F  
HETATM   21  S   UNL     1     -10.004   9.768  68.640  1.00  0.00    -0.175 S  
HETATM   22  F   UNL     1      -7.846   3.619  67.325  1.00  0.00    -0.077 F  
HETATM   23  O   UNL     1      -9.100  10.284  69.642  1.00  0.00    -0.196 OA 
HETATM   24  H   UNL     1      -8.920  11.221  67.063  1.00  0.00     0.000 HD 
BRANCH  14  25
HETATM   25  C   UNL     1      -9.730  10.398  64.745  1.00  0.00    -0.383 C  
BRANCH  25  26
HETATM   26  C   UNL     1     -10.560  11.647  64.568  1.00  0.00    -0.373 A  
HETATM   27  C   UNL     1     -11.690  11.649  63.738  1.00  0.00    -0.403 A  
HETATM   28  C   UNL     1     -12.378  12.836  63.489  1.00  0.00    -0.559 A  
HETATM   29  C   UNL     1     -11.964  14.022  64.091  1.00  0.00    -0.439 A  
HETATM   30  C   UNL     1     -10.881  14.017  64.968  1.00  0.00    -0.401 A  
HETATM   31  C   UNL     1     -10.184  12.834  65.210  1.00  0.00    -0.296 A  
ENDBRANCH  25  26
ENDBRANCH  14  25
ENDBRANCH   4   7
TORSDOF 3
ENDMDL
MODEL      119
REMARK 921   NORMALIZED FREE ENERGY PREDICTED BY IDOCK:   -4.27 KCAL/MOL
REMARK 922        TOTAL FREE ENERGY PREDICTED BY IDOCK:   -5.16 KCAL/MOL
REMARK 923 INTER-LIGAND FREE ENERGY PREDICTED BY IDOCK:   -5.30 KCAL/MOL
REMARK 924 INTRA-LIGAND FREE ENERGY PREDICTED BY IDOCK:    0.14 KCAL/MOL
REMARK 927      BINDING AFFINITY PREDICTED BY RF-SCORE:    0.00 PKD
ROOT
HETATM    1  N   UNL     1     -11.878  10.261  68.414  1.00  0.00    -0.404 N  
HETATM    2  H1  UNL     1     -12.142  10.698  67.531  1.00  0.00     0.000 HD 
HETATM    3  H2  UNL     1     -12.397  10.334  69.289  1.00  0.00     0.000 HD 
HETATM    4  S   UNL     1     -10.456   9.401  68.195  1.00  0.00    -0.210 S  
HETATM    5  O   UNL     1     -10.678   8.632  66.994  1.00  0.00    -0.271 OA 
HETATM    6  O   UNL     1     -10.084   8.784  69.441  1.00  0.00    -0.192 OA 
ENDROOT
BRANCH   4   7
HETATM    7  C   UNL     1      -9.299  10.703  67.836  1.00  0.00    -0.148 A  
HETATM    8  C   UNL     1      -9.768  12.009  68.000  1.00  0.00    -0.198 A  
HETATM    9  C   UNL     1      -8.905  13.088  67.824  1.00  0.00    -0.188 A  
HETATM   10  C   UNL     1      -7.568  12.928  67.477  1.00  0.00    -0.164 A  
HETATM   11  C   UNL     1      -7.112  11.608  67.320  1.00  0.00    -0.134 A  
HETATM   12  N   UNL     1      -6.658  13.988  67.439  1.00  0.00    -0.389 NA 
HETATM   13  H   UNL     1      -5.659  13.825  67.560  1.00  0.00     0.000 HD 
HETATM   14  C   UNL     1      -7.178  15.334  67.222  1.00  0.00    -0.178 C  
HETATM   15  C   UNL     1      -7.964  10.471  67.473  1.00  0.00    -0.107 A  
HETATM   16  N   UNL     1      -8.156  15.638  68.259  1.00  0.00    -0.132 N  
HETATM   17  O   UNL     1     -10.183  15.132  66.885  1.00  0.00    -0.252 OA 
HETATM   18  C   UNL     1      -7.334   9.117  67.231  1.00  0.00    -0.087 C  
HETATM   19  F   UNL     1      -8.102   8.021  67.447  1.00  0.00    -0.114 F  
HETATM   20  F   UNL     1      -6.889   9.000  65.946  1.00  0.00    -0.074 F  
HETATM   21  S   UNL     1      -9.534  14.698  68.102  1.00  0.00    -0.218 S  
HETATM   22  F   UNL     1      -6.229   8.931  68.009  1.00  0.00    -0.048 F  
HETATM   23  O   UNL     1     -10.214  14.727  69.376  1.00  0.00    -0.203 OA 
HETATM   24  H   UNL     1      -8.018  16.336  68.991  1.00  0.00     0.000 HD 
BRANCH  14  25
HETATM   25  C   UNL     1      -6.048  16.390  67.312  1.00  0.00    -0.201 C  
BRANCH  25  26
HETATM   26  C   UNL     1      -6.450  17.644  68.053  1.00  0.00    -0.177 A  
HETATM   27  C   UNL     1      -7.288  18.595  67.455  1.00  0.00    -0.227 A  
HETATM   28  C   UNL     1      -7.556  19.802  68.101  1.00  0.00    -0.339 A  
HETATM   29  C   UNL     1      -7.015  20.053  69.360  1.00  0.00    -0.230 A  
HETATM   30  C   UNL     1      -6.234  19.087  69.989  1.00  0.00    -0.179 A  
HETATM   31  C   UNL     1      -5.955  17.884  69.341  1.00  0.00    -0.237 A  
ENDBRANCH  25  26
ENDBRANCH  14  25
ENDBRANCH   4   7
TORSDOF 3
ENDMDL
MODEL      120
REMARK 921   NORMALIZED FREE ENERGY PREDICTED BY IDOCK:   -4.27 KCAL/MOL
REMARK 922        TOTAL FREE ENERGY PREDICTED BY IDOCK:   -5.16 KCAL/MOL
REMARK 923 INTER-LIGAND FREE ENERGY PREDICTED BY IDOCK:   -5.19 KCAL/MOL
REMARK 924 INTRA-LIGAND FREE ENERGY PREDICTED BY IDOCK:    0.03 KCAL/MOL
REMARK 927      BINDING AFFINITY PREDICTED BY RF-SCORE:    0.00 PKD
ROOT
HETATM    1  N   UNL     1      -8.928   5.051  63.441  1.00  0.00    -0.328 N  
HETATM    2  H1  UNL     1      -7.988   5.376  63.214  1.00  0.00     0.000 HD 
HETATM    3  H2  UNL     1      -9.707   4.987  62.786  1.00  0.00     0.000 HD 
HETATM    4  S   UNL     1      -8.985   4.639  65.065  1.00  0.00    -0.152 S  
HETATM    5  O   UNL     1      -7.818   3.816  65.272  1.00  0.00    -0.084 OA 
HETATM    6  O   UNL     1     -10.312   4.180  65.386  1.00  0.00    -0.215 OA 
ENDROOT
BRANCH   4   7
HETATM    7  C   UNL     1      -8.723   6.214  65.847  1.00  0.00    -0.154 A  
HETATM    8  C   UNL     1      -8.576   7.311  64.994  1.00  0.00     0.096 A  
HETATM    9  C   UNL     1      -8.453   8.595  65.522  1.00  0.00    -0.165 A  
HETATM   10  C   UNL     1      -8.460   8.845  66.889  1.00  0.00    -0.112 A  
HETATM   11  C   UNL     1      -8.612   7.731  67.732  1.00  0.00    -0.121 A  
HETATM   12  N   UNL     1      -8.483  10.134  67.427  1.00  0.00    -0.122 NA 
HETATM   13  H   UNL     1      -8.860  10.306  68.360  1.00  0.00     0.000 HD 
HETATM   14  C   UNL     1      -7.952  11.227  66.620  1.00  0.00    -0.159 C  
HETATM   15  C   UNL     1      -8.725   6.395  67.238  1.00  0.00    -0.106 A  
HETATM   16  N   UNL     1      -8.672  11.273  65.352  1.00  0.00    -0.377 N  
HETATM   17  O   UNL     1      -6.946  10.058  64.010  1.00  0.00    -0.123 OA 
HETATM   18  C   UNL     1      -8.842   5.299  68.274  1.00  0.00    -0.104 C  
HETATM   19  F   UNL     1      -9.029   4.033  67.828  1.00  0.00    -0.110 F  
HETATM   20  F   UNL     1      -7.731   5.244  69.065  1.00  0.00    -0.076 F  
HETATM   21  S   UNL     1      -8.333   9.935  64.402  1.00  0.00    -0.181 S  
HETATM   22  F   UNL     1      -9.878   5.527  69.132  1.00  0.00    -0.160 F  
HETATM   23  O   UNL     1      -9.390   9.832  63.424  1.00  0.00    -0.253 OA 
HETATM   24  H   UNL     1      -9.303  12.026  65.078  1.00  0.00     0.000 HD 
BRANCH  14  25
HETATM   25  C   UNL     1      -8.151  12.592  67.326  1.00  0.00    -0.178 C  
BRANCH  25  26
HETATM   26  C   UNL     1      -9.524  13.186  67.117  1.00  0.00    -0.239 A  
HETATM   27  C   UNL     1     -10.626  12.729  67.853  1.00  0.00    -0.232 A  
HETATM   28  C   UNL     1     -11.907  13.200  67.568  1.00  0.00    -0.409 A  
HETATM   29  C   UNL     1     -12.092  14.153  66.568  1.00  0.00    -0.481 A  
HETATM   30  C   UNL     1     -10.995  14.661  65.876  1.00  0.00    -0.332 A  
HETATM   31  C   UNL     1      -9.715  14.183  66.151  1.00  0.00    -0.310 A  
ENDBRANCH  25  26
ENDBRANCH  14  25
ENDBRANCH   4   7
TORSDOF 3
ENDMDL
MODEL      121
REMARK 921   NORMALIZED FREE ENERGY PREDICTED BY IDOCK:   -4.26 KCAL/MOL
REMARK 922        TOTAL FREE ENERGY PREDICTED BY IDOCK:   -5.15 KCAL/MOL
REMARK 923 INTER-LIGAND FREE ENERGY PREDICTED BY IDOCK:   -6.06 KCAL/MOL
REMARK 924 INTRA-LIGAND FREE ENERGY PREDICTED BY IDOCK:    0.91 KCAL/MOL
REMARK 927      BINDING AFFINITY PREDICTED BY RF-SCORE:    0.00 PKD
ROOT
HETATM    1  N   UNL     1      -9.842  15.371  70.448  1.00  0.00    -0.279 N  
HETATM    2  H1  UNL     1      -8.969  14.887  70.235  1.00  0.00     0.000 HD 
HETATM    3  H2  UNL     1     -10.033  15.900  71.299  1.00  0.00     0.000 HD 
HETATM    4  S   UNL     1     -10.910  15.156  69.175  1.00  0.00    -0.265 S  
HETATM    5  O   UNL     1     -10.135  15.457  67.995  1.00  0.00    -0.223 OA 
HETATM    6  O   UNL     1     -12.142  15.838  69.475  1.00  0.00    -0.353 OA 
ENDROOT
BRANCH   4   7
HETATM    7  C   UNL     1     -11.200  13.403  69.238  1.00  0.00    -0.219 A  
HETATM    8  C   UNL     1     -10.536  12.632  68.281  1.00  0.00    -0.249 A  
HETATM    9  C   UNL     1     -10.637  11.242  68.310  1.00  0.00    -0.197 A  
HETATM   10  C   UNL     1     -11.391  10.568  69.262  1.00  0.00    -0.262 A  
HETATM   11  C   UNL     1     -12.050  11.358  70.220  1.00  0.00    -0.459 A  
HETATM   12  N   UNL     1     -11.386   9.176  69.393  1.00  0.00    -0.432 NA 
HETATM   13  H   UNL     1     -11.616   8.732  70.283  1.00  0.00     0.000 HD 
HETATM   14  C   UNL     1     -11.043   8.376  68.223  1.00  0.00     0.391 C  
HETATM   15  C   UNL     1     -11.989  12.785  70.220  1.00  0.00    -0.358 A  
HETATM   16  N   UNL     1      -9.722   8.773  67.748  1.00  0.00    -0.152 N  
HETATM   17  O   UNL     1     -10.526  10.272  65.914  1.00  0.00    -0.195 OA 
HETATM   18  C   UNL     1     -12.786  13.496  71.291  1.00  0.00    -0.338 C  
HETATM   19  F   UNL     1     -12.681  14.846  71.359  1.00  0.00    -0.321 F  
HETATM   20  F   UNL     1     -14.122  13.242  71.167  1.00  0.00     0.089 F  
HETATM   21  S   UNL     1      -9.734  10.327  67.122  1.00  0.00    -0.178 S  
HETATM   22  F   UNL     1     -12.455  13.055  72.539  1.00  0.00    -0.041 F  
HETATM   23  O   UNL     1      -8.365  10.788  67.109  1.00  0.00    -0.123 OA 
HETATM   24  H   UNL     1      -8.894   8.178  67.791  1.00  0.00     0.000 HD 
BRANCH  14  25
HETATM   25  C   UNL     1     -10.986   6.868  68.573  1.00  0.00    -0.198 C  
BRANCH  25  26
HETATM   26  C   UNL     1     -10.940   6.594  70.058  1.00  0.00    -0.363 A  
HETATM   27  C   UNL     1      -9.732   6.273  70.694  1.00  0.00    -0.199 A  
HETATM   28  C   UNL     1      -9.721   5.907  72.039  1.00  0.00    -0.174 A  
HETATM   29  C   UNL     1     -10.909   5.888  72.766  1.00  0.00    -0.289 A  
HETATM   30  C   UNL     1     -12.105   6.268  72.160  1.00  0.00    -0.304 A  
HETATM   31  C   UNL     1     -12.120   6.624  70.812  1.00  0.00    -0.364 A  
ENDBRANCH  25  26
ENDBRANCH  14  25
ENDBRANCH   4   7
TORSDOF 3
ENDMDL
MODEL      122
REMARK 921   NORMALIZED FREE ENERGY PREDICTED BY IDOCK:   -4.22 KCAL/MOL
REMARK 922        TOTAL FREE ENERGY PREDICTED BY IDOCK:   -5.09 KCAL/MOL
REMARK 923 INTER-LIGAND FREE ENERGY PREDICTED BY IDOCK:   -5.00 KCAL/MOL
REMARK 924 INTRA-LIGAND FREE ENERGY PREDICTED BY IDOCK:   -0.10 KCAL/MOL
REMARK 927      BINDING AFFINITY PREDICTED BY RF-SCORE:    0.00 PKD
ROOT
HETATM    1  N   UNL     1     -10.482  13.570  64.691  1.00  0.00    -0.441 N  
HETATM    2  H1  UNL     1     -11.158  12.824  64.526  1.00  0.00     0.000 HD 
HETATM    3  H2  UNL     1      -9.762  13.872  64.035  1.00  0.00     0.000 HD 
HETATM    4  S   UNL     1     -10.745  14.218  66.215  1.00  0.00    -0.303 S  
HETATM    5  O   UNL     1     -12.169  14.447  66.270  1.00  0.00    -0.412 OA 
HETATM    6  O   UNL     1      -9.791  15.270  66.448  1.00  0.00    -0.246 OA 
ENDROOT
BRANCH   4   7
HETATM    7  C   UNL     1     -10.345  12.843  67.267  1.00  0.00    -0.234 A  
HETATM    8  C   UNL     1      -9.720  11.755  66.651  1.00  0.00    -0.219 A  
HETATM    9  C   UNL     1      -9.292  10.670  67.415  1.00  0.00    -0.143 A  
HETATM   10  C   UNL     1      -9.469  10.610  68.792  1.00  0.00    -0.183 A  
HETATM   11  C   UNL     1     -10.096  11.714  69.396  1.00  0.00     0.299 A  
HETATM   12  N   UNL     1      -8.920   9.600  69.587  1.00  0.00    -0.187 NA 
HETATM   13  H   UNL     1      -8.730   9.758  70.577  1.00  0.00     0.000 HD 
HETATM   14  C   UNL     1      -8.627   8.315  68.963  1.00  0.00    -0.135 C  
HETATM   15  C   UNL     1     -10.565  12.840  68.652  1.00  0.00    -0.256 A  
HETATM   16  N   UNL     1      -7.718   8.528  67.843  1.00  0.00    -0.102 N  
HETATM   17  O   UNL     1      -9.466   8.476  66.055  1.00  0.00    -0.223 OA 
HETATM   18  C   UNL     1     -11.257  13.930  69.441  1.00  0.00    -0.224 C  
HETATM   19  F   UNL     1     -11.639  15.043  68.769  1.00  0.00    -0.282 F  
HETATM   20  F   UNL     1     -12.388  13.464  70.045  1.00  0.00    -0.355 F  
HETATM   21  S   UNL     1      -8.462   9.365  66.596  1.00  0.00    -0.127 S  
HETATM   22  F   UNL     1     -10.472  14.387  70.459  1.00  0.00     0.159 F  
HETATM   23  O   UNL     1      -7.413   9.915  65.770  1.00  0.00    -0.101 OA 
HETATM   24  H   UNL     1      -6.750   8.208  67.820  1.00  0.00     0.000 HD 
BRANCH  14  25
HETATM   25  C   UNL     1      -7.931   7.354  69.960  1.00  0.00    -0.119 C  
BRANCH  25  26
HETATM   26  C   UNL     1      -8.885   6.415  70.659  1.00  0.00    -0.144 A  
HETATM   27  C   UNL     1     -10.266   6.656  70.655  1.00  0.00    -0.215 A  
HETATM   28  C   UNL     1     -11.124   5.850  71.403  1.00  0.00    -0.313 A  
HETATM   29  C   UNL     1     -10.613   4.779  72.134  1.00  0.00    -0.204 A  
HETATM   30  C   UNL     1      -9.250   4.493  72.093  1.00  0.00    -0.165 A  
HETATM   31  C   UNL     1      -8.389   5.305  71.355  1.00  0.00    -0.121 A  
ENDBRANCH  25  26
ENDBRANCH  14  25
ENDBRANCH   4   7
TORSDOF 3
ENDMDL
MODEL      123
REMARK 921   NORMALIZED FREE ENERGY PREDICTED BY IDOCK:   -4.22 KCAL/MOL
REMARK 922        TOTAL FREE ENERGY PREDICTED BY IDOCK:   -5.09 KCAL/MOL
REMARK 923 INTER-LIGAND FREE ENERGY PREDICTED BY IDOCK:   -4.98 KCAL/MOL
REMARK 924 INTRA-LIGAND FREE ENERGY PREDICTED BY IDOCK:   -0.11 KCAL/MOL
REMARK 927      BINDING AFFINITY PREDICTED BY RF-SCORE:    0.00 PKD
ROOT
HETATM    1  N   UNL     1     -10.186  14.762  68.195  1.00  0.00    -0.225 N  
HETATM    2  H1  UNL     1     -10.203  14.522  67.204  1.00  0.00     0.000 HD 
HETATM    3  H2  UNL     1      -9.569  15.448  68.628  1.00  0.00     0.000 HD 
HETATM    4  S   UNL     1     -11.338  13.846  68.998  1.00  0.00    -0.300 S  
HETATM    5  O   UNL     1     -12.531  13.979  68.196  1.00  0.00    -0.116 OA 
HETATM    6  O   UNL     1     -11.315  14.184  70.397  1.00  0.00    -0.148 OA 
ENDROOT
BRANCH   4   7
HETATM    7  C   UNL     1     -10.694  12.201  68.799  1.00  0.00    -0.219 A  
HETATM    8  C   UNL     1      -9.615  12.061  67.922  1.00  0.00    -0.196 A  
HETATM    9  C   UNL     1      -8.992  10.824  67.771  1.00  0.00    -0.137 A  
HETATM   10  C   UNL     1      -9.407   9.690  68.460  1.00  0.00    -0.137 A  
HETATM   11  C   UNL     1     -10.491   9.848  69.340  1.00  0.00    -0.250 A  
HETATM   12  N   UNL     1      -8.706   8.481  68.430  1.00  0.00    -0.142 NA 
HETATM   13  H   UNL     1      -8.785   7.810  69.194  1.00  0.00     0.000 HD 
HETATM   14  C   UNL     1      -7.858   8.206  67.275  1.00  0.00    -0.105 C  
HETATM   15  C   UNL     1     -11.171  11.093  69.515  1.00  0.00    -0.341 A  
HETATM   16  N   UNL     1      -6.880   9.279  67.138  1.00  0.00    -0.083 N  
HETATM   17  O   UNL     1      -8.102  10.542  65.359  1.00  0.00    -0.155 OA 
HETATM   18  C   UNL     1     -12.346  11.093  70.467  1.00  0.00    -0.364 C  
HETATM   19  F   UNL     1     -12.956  12.279  70.709  1.00  0.00    -0.267 F  
HETATM   20  F   UNL     1     -13.335  10.257  70.035  1.00  0.00    -0.211 F  
HETATM   21  S   UNL     1      -7.608  10.725  66.705  1.00  0.00    -0.135 S  
HETATM   22  F   UNL     1     -11.995  10.621  71.698  1.00  0.00    -0.383 F  
HETATM   23  O   UNL     1      -6.679  11.781  67.034  1.00  0.00    -0.136 OA 
HETATM   24  H   UNL     1      -5.877   9.164  67.288  1.00  0.00     0.000 HD 
BRANCH  14  25
HETATM   25  C   UNL     1      -7.081   6.877  67.456  1.00  0.00    -0.085 C  
BRANCH  25  26
HETATM   26  C   UNL     1      -7.973   5.662  67.540  1.00  0.00    -0.102 A  
HETATM   27  C   UNL     1      -7.915   4.801  68.644  1.00  0.00    -0.080 A  
HETATM   28  C   UNL     1      -8.657   3.620  68.656  1.00  0.00    -0.120 A  
HETATM   29  C   UNL     1      -9.484   3.306  67.580  1.00  0.00    -0.209 A  
HETATM   30  C   UNL     1      -9.598   4.187  66.507  1.00  0.00    -0.220 A  
HETATM   31  C   UNL     1      -8.849   5.363  66.488  1.00  0.00    -0.118 A  
ENDBRANCH  25  26
ENDBRANCH  14  25
ENDBRANCH   4   7
TORSDOF 3
ENDMDL
MODEL      124
REMARK 921   NORMALIZED FREE ENERGY PREDICTED BY IDOCK:   -4.20 KCAL/MOL
REMARK 922        TOTAL FREE ENERGY PREDICTED BY IDOCK:   -5.08 KCAL/MOL
REMARK 923 INTER-LIGAND FREE ENERGY PREDICTED BY IDOCK:   -5.67 KCAL/MOL
REMARK 924 INTRA-LIGAND FREE ENERGY PREDICTED BY IDOCK:    0.59 KCAL/MOL
REMARK 927      BINDING AFFINITY PREDICTED BY RF-SCORE:    0.00 PKD
ROOT
HETATM    1  N   UNL     1     -10.861  10.951  63.688  1.00  0.00    -0.508 N  
HETATM    2  H1  UNL     1     -11.508  10.301  64.134  1.00  0.00     0.000 HD 
HETATM    3  H2  UNL     1     -10.269  10.740  62.885  1.00  0.00     0.000 HD 
HETATM    4  S   UNL     1     -10.928  12.423  64.487  1.00  0.00    -0.340 S  
HETATM    5  O   UNL     1     -12.337  12.706  64.609  1.00  0.00    -0.435 OA 
HETATM    6  O   UNL     1     -10.014  13.340  63.858  1.00  0.00    -0.181 OA 
ENDROOT
BRANCH   4   7
HETATM    7  C   UNL     1     -10.289  11.993  66.090  1.00  0.00    -0.224 A  
HETATM    8  C   UNL     1     -10.324  10.637  66.425  1.00  0.00    -0.291 A  
HETATM    9  C   UNL     1      -9.766  10.199  67.625  1.00  0.00    -0.161 A  
HETATM   10  C   UNL     1      -9.168  11.066  68.532  1.00  0.00    -0.177 A  
HETATM   11  C   UNL     1      -9.138  12.426  68.177  1.00  0.00    -0.200 A  
HETATM   12  N   UNL     1      -8.479  10.627  69.666  1.00  0.00    -0.383 NA 
HETATM   13  H   UNL     1      -7.753  11.203  70.093  1.00  0.00     0.000 HD 
HETATM   14  C   UNL     1      -8.827   9.324  70.221  1.00  0.00    -0.224 C  
HETATM   15  C   UNL     1      -9.712  12.923  66.967  1.00  0.00    -0.230 A  
HETATM   16  N   UNL     1      -8.658   8.308  69.189  1.00  0.00    -0.137 N  
HETATM   17  O   UNL     1     -11.070   8.163  68.545  1.00  0.00     0.137 OA 
HETATM   18  C   UNL     1      -9.636  14.418  66.747  1.00  0.00    -0.268 C  
HETATM   19  F   UNL     1     -10.103  14.902  65.570  1.00  0.00    -0.302 F  
HETATM   20  F   UNL     1     -10.317  15.097  67.715  1.00  0.00    -0.234 F  
HETATM   21  S   UNL     1      -9.786   8.481  67.962  1.00  0.00    -0.177 S  
HETATM   22  F   UNL     1      -8.352  14.873  66.829  1.00  0.00    -0.235 F  
HETATM   23  O   UNL     1      -9.277   7.767  66.815  1.00  0.00    -0.146 OA 
HETATM   24  H   UNL     1      -7.942   7.581  69.211  1.00  0.00     0.000 HD 
BRANCH  14  25
HETATM   25  C   UNL     1      -7.898   8.955  71.406  1.00  0.00    -0.141 C  
BRANCH  25  26
HETATM   26  C   UNL     1      -8.244   7.637  72.057  1.00  0.00    -0.122 A  
HETATM   27  C   UNL     1      -9.116   7.582  73.153  1.00  0.00    -0.227 A  
HETATM   28  C   UNL     1      -9.335   6.377  73.819  1.00  0.00    -0.153 A  
HETATM   29  C   UNL     1      -8.708   5.213  73.377  1.00  0.00    -0.114 A  
HETATM   30  C   UNL     1      -7.890   5.246  72.250  1.00  0.00    -0.102 A  
HETATM   31  C   UNL     1      -7.662   6.452  71.589  1.00  0.00    -0.100 A  
ENDBRANCH  25  26
ENDBRANCH  14  25
ENDBRANCH   4   7
TORSDOF 3
ENDMDL
MODEL      125
REMARK 921   NORMALIZED FREE ENERGY PREDICTED BY IDOCK:   -4.17 KCAL/MOL
REMARK 922        TOTAL FREE ENERGY PREDICTED BY IDOCK:   -5.04 KCAL/MOL
REMARK 923 INTER-LIGAND FREE ENERGY PREDICTED BY IDOCK:   -5.76 KCAL/MOL
REMARK 924 INTRA-LIGAND FREE ENERGY PREDICTED BY IDOCK:    0.72 KCAL/MOL
REMARK 927      BINDING AFFINITY PREDICTED BY RF-SCORE:    0.00 PKD
ROOT
HETATM    1  N   UNL     1      -8.006  11.857  66.490  1.00  0.00    -0.378 N  
HETATM    2  H1  UNL     1      -8.984  11.903  66.205  1.00  0.00     0.000 HD 
HETATM    3  H2  UNL     1      -7.229  11.566  65.896  1.00  0.00     0.000 HD 
HETATM    4  S   UNL     1      -7.879  12.340  68.090  1.00  0.00    -0.157 S  
HETATM    5  O   UNL     1      -8.643  13.562  68.162  1.00  0.00    -0.161 OA 
HETATM    6  O   UNL     1      -6.498  12.276  68.491  1.00  0.00    -0.056 OA 
ENDROOT
BRANCH   4   7
HETATM    7  C   UNL     1      -8.776  11.054  68.928  1.00  0.00    -0.117 A  
HETATM    8  C   UNL     1      -8.026  10.222  69.764  1.00  0.00    -0.139 A  
HETATM    9  C   UNL     1      -8.660   9.242  70.526  1.00  0.00    -0.233 A  
HETATM   10  C   UNL     1     -10.035   9.039  70.488  1.00  0.00    -0.215 A  
HETATM   11  C   UNL     1     -10.774   9.887  69.644  1.00  0.00    -0.277 A  
HETATM   12  N   UNL     1     -10.700   8.163  71.349  1.00  0.00    -0.227 NA 
HETATM   13  H   UNL     1     -11.686   8.295  71.574  1.00  0.00     0.000 HD 
HETATM   14  C   UNL     1      -9.944   7.052  71.919  1.00  0.00    -0.167 C  
HETATM   15  C   UNL     1     -10.166  10.893  68.833  1.00  0.00    -0.213 A  
HETATM   16  N   UNL     1      -8.794   7.582  72.641  1.00  0.00    -0.131 N  
HETATM   17  O   UNL     1      -7.120   7.185  70.826  1.00  0.00    -0.063 OA 
HETATM   18  C   UNL     1     -11.091  11.697  67.946  1.00  0.00    -0.247 C  
HETATM   19  F   UNL     1     -10.548  12.709  67.228  1.00  0.00    -0.223 F  
HETATM   20  F   UNL     1     -11.720  10.900  67.033  1.00  0.00    -0.229 F  
HETATM   21  S   UNL     1      -7.676   8.272  71.600  1.00  0.00    -0.109 S  
HETATM   22  F   UNL     1     -12.096  12.276  68.665  1.00  0.00    -0.342 F  
HETATM   23  O   UNL     1      -6.840   9.143  72.393  1.00  0.00    -0.313 OA 
HETATM   24  H   UNL     1      -8.683   7.538  73.655  1.00  0.00     0.000 HD 
BRANCH  14  25
HETATM   25  C   UNL     1     -10.805   6.248  72.925  1.00  0.00    -0.284 C  
BRANCH  25  26
HETATM   26  C   UNL     1     -10.667   4.751  72.778  1.00  0.00    -0.282 A  
HETATM   27  C   UNL     1     -11.095   3.885  73.793  1.00  0.00    -0.291 A  
HETATM   28  C   UNL     1     -10.854   2.515  73.698  1.00  0.00    -0.286 A  
HETATM   29  C   UNL     1     -10.213   1.997  72.575  1.00  0.00    -0.226 A  
HETATM   30  C   UNL     1      -9.841   2.842  71.532  1.00  0.00    -0.195 A  
HETATM   31  C   UNL     1     -10.071   4.213  71.630  1.00  0.00    -0.198 A  
ENDBRANCH  25  26
ENDBRANCH  14  25
ENDBRANCH   4   7
TORSDOF 3
ENDMDL
MODEL      126
REMARK 921   NORMALIZED FREE ENERGY PREDICTED BY IDOCK:   -4.10 KCAL/MOL
REMARK 922        TOTAL FREE ENERGY PREDICTED BY IDOCK:   -4.96 KCAL/MOL
REMARK 923 INTER-LIGAND FREE ENERGY PREDICTED BY IDOCK:   -5.03 KCAL/MOL
REMARK 924 INTRA-LIGAND FREE ENERGY PREDICTED BY IDOCK:    0.07 KCAL/MOL
REMARK 927      BINDING AFFINITY PREDICTED BY RF-SCORE:    0.00 PKD
ROOT
HETATM    1  N   UNL     1     -10.457  16.813  65.486  1.00  0.00    -0.303 N  
HETATM    2  H1  UNL     1     -11.275  16.642  66.070  1.00  0.00     0.000 HD 
HETATM    3  H2  UNL     1     -10.459  16.882  64.468  1.00  0.00     0.000 HD 
HETATM    4  S   UNL     1      -9.106  16.965  66.468  1.00  0.00    -0.287 S  
HETATM    5  O   UNL     1      -9.514  17.881  67.506  1.00  0.00    -0.254 OA 
HETATM    6  O   UNL     1      -7.951  17.206  65.643  1.00  0.00    -0.381 OA 
ENDROOT
BRANCH   4   7
HETATM    7  C   UNL     1      -8.979  15.333  67.161  1.00  0.00    -0.209 A  
HETATM    8  C   UNL     1      -9.928  14.402  66.729  1.00  0.00    -0.265 A  
HETATM    9  C   UNL     1      -9.851  13.077  67.155  1.00  0.00    -0.230 A  
HETATM   10  C   UNL     1      -8.859  12.625  68.017  1.00  0.00    -0.195 A  
HETATM   11  C   UNL     1      -7.911  13.573  68.438  1.00  0.00    -0.143 A  
HETATM   12  N   UNL     1      -8.684  11.276  68.336  1.00  0.00    -0.154 NA 
HETATM   13  H   UNL     1      -7.775  10.922  68.636  1.00  0.00     0.000 HD 
HETATM   14  C   UNL     1      -9.837  10.388  68.229  1.00  0.00    -0.154 C  
HETATM   15  C   UNL     1      -7.959  14.945  68.042  1.00  0.00    -0.132 A  
HETATM   16  N   UNL     1     -10.357  10.448  66.869  1.00  0.00    -0.231 N  
HETATM   17  O   UNL     1     -12.217  12.048  67.354  1.00  0.00    -0.491 OA 
HETATM   18  C   UNL     1      -6.891  15.851  68.614  1.00  0.00    -0.125 C  
HETATM   19  F   UNL     1      -6.869  17.138  68.190  1.00  0.00    -0.159 F  
HETATM   20  F   UNL     1      -6.974  15.918  69.975  1.00  0.00    -0.164 F  
HETATM   21  S   UNL     1     -11.032  11.945  66.532  1.00  0.00    -0.304 S  
HETATM   22  F   UNL     1      -5.638  15.375  68.356  1.00  0.00    -0.087 F  
HETATM   23  O   UNL     1     -11.094  12.067  65.094  1.00  0.00    -0.304 OA 
HETATM   24  H   UNL     1     -10.315   9.675  66.204  1.00  0.00     0.000 HD 
BRANCH  14  25
HETATM   25  C   UNL     1      -9.439   8.918  68.520  1.00  0.00    -0.152 C  
BRANCH  25  26
HETATM   26  C   UNL     1      -8.236   8.785  69.423  1.00  0.00    -0.108 A  
HETATM   27  C   UNL     1      -8.154   9.504  70.624  1.00  0.00    -0.152 A  
HETATM   28  C   UNL     1      -6.989   9.465  71.389  1.00  0.00     0.085 A  
HETATM   29  C   UNL     1      -5.911   8.685  70.978  1.00  0.00    -0.036 A  
HETATM   30  C   UNL     1      -6.006   7.918  69.819  1.00  0.00    -0.023 A  
HETATM   31  C   UNL     1      -7.166   7.963  69.046  1.00  0.00    -0.075 A  
ENDBRANCH  25  26
ENDBRANCH  14  25
ENDBRANCH   4   7
TORSDOF 3
ENDMDL
MODEL      127
REMARK 921   NORMALIZED FREE ENERGY PREDICTED BY IDOCK:   -4.08 KCAL/MOL
REMARK 922        TOTAL FREE ENERGY PREDICTED BY IDOCK:   -4.93 KCAL/MOL
REMARK 923 INTER-LIGAND FREE ENERGY PREDICTED BY IDOCK:   -5.11 KCAL/MOL
REMARK 924 INTRA-LIGAND FREE ENERGY PREDICTED BY IDOCK:    0.17 KCAL/MOL
REMARK 927      BINDING AFFINITY PREDICTED BY RF-SCORE:    0.00 PKD
ROOT
HETATM    1  N   UNL     1     -10.728  17.430  65.491  1.00  0.00    -0.206 N  
HETATM    2  H1  UNL     1     -11.466  17.032  66.072  1.00  0.00     0.000 HD 
HETATM    3  H2  UNL     1     -10.736  17.478  64.473  1.00  0.00     0.000 HD 
HETATM    4  S   UNL     1      -9.498  17.994  66.482  1.00  0.00    -0.287 S  
HETATM    5  O   UNL     1     -10.175  18.763  67.498  1.00  0.00    -0.350 OA 
HETATM    6  O   UNL     1      -8.456  18.556  65.663  1.00  0.00    -0.348 OA 
ENDROOT
BRANCH   4   7
HETATM    7  C   UNL     1      -8.900  16.486  67.209  1.00  0.00    -0.192 A  
HETATM    8  C   UNL     1      -9.555  15.313  66.825  1.00  0.00    -0.257 A  
HETATM    9  C   UNL     1      -9.098  14.076  67.278  1.00  0.00    -0.220 A  
HETATM   10  C   UNL     1      -8.001  13.949  68.122  1.00  0.00    -0.148 A  
HETATM   11  C   UNL     1      -7.351  15.138  68.494  1.00  0.00    -0.119 A  
HETATM   12  N   UNL     1      -7.444  12.714  68.467  1.00  0.00    -0.121 NA 
HETATM   13  H   UNL     1      -6.467  12.641  68.749  1.00  0.00     0.000 HD 
HETATM   14  C   UNL     1      -8.301  11.534  68.414  1.00  0.00    -0.154 C  
HETATM   15  C   UNL     1      -7.793  16.428  68.068  1.00  0.00    -0.159 A  
HETATM   16  N   UNL     1      -8.845  11.404  67.067  1.00  0.00    -0.163 N  
HETATM   17  O   UNL     1     -11.071  12.428  67.569  1.00  0.00    -0.240 OA 
HETATM   18  C   UNL     1      -7.014  17.616  68.589  1.00  0.00    -0.237 C  
HETATM   19  F   UNL     1      -7.366  18.844  68.135  1.00  0.00    -0.248 F  
HETATM   20  F   UNL     1      -7.084  17.698  69.949  1.00  0.00    -0.005 F  
HETATM   21  S   UNL     1      -9.923  12.639  66.716  1.00  0.00    -0.239 S  
HETATM   22  F   UNL     1      -5.683  17.506  68.307  1.00  0.00    -0.141 F  
HETATM   23  O   UNL     1     -10.047  12.695  65.278  1.00  0.00    -0.284 OA 
HETATM   24  H   UNL     1      -8.600  10.655  66.419  1.00  0.00     0.000 HD 
BRANCH  14  25
HETATM   25  C   UNL     1      -7.497  10.246  68.726  1.00  0.00    -0.089 C  
BRANCH  25  26
HETATM   26  C   UNL     1      -8.188   8.980  68.277  1.00  0.00    -0.116 A  
HETATM   27  C   UNL     1      -7.462   7.932  67.695  1.00  0.00    -0.097 A  
HETATM   28  C   UNL     1      -8.125   6.819  67.177  1.00  0.00    -0.117 A  
HETATM   29  C   UNL     1      -9.513   6.732  67.265  1.00  0.00    -0.156 A  
HETATM   30  C   UNL     1     -10.237   7.740  67.898  1.00  0.00    -0.259 A  
HETATM   31  C   UNL     1      -9.577   8.858  68.407  1.00  0.00    -0.157 A  
ENDBRANCH  25  26
ENDBRANCH  14  25
ENDBRANCH   4   7
TORSDOF 3
ENDMDL
MODEL      128
REMARK 921   NORMALIZED FREE ENERGY PREDICTED BY IDOCK:   -4.06 KCAL/MOL
REMARK 922        TOTAL FREE ENERGY PREDICTED BY IDOCK:   -4.91 KCAL/MOL
REMARK 923 INTER-LIGAND FREE ENERGY PREDICTED BY IDOCK:   -5.69 KCAL/MOL
REMARK 924 INTRA-LIGAND FREE ENERGY PREDICTED BY IDOCK:    0.77 KCAL/MOL
REMARK 927      BINDING AFFINITY PREDICTED BY RF-SCORE:    0.00 PKD
ROOT
HETATM    1  N   UNL     1     -10.866  11.084  67.115  1.00  0.00    -0.269 N  
HETATM    2  H1  UNL     1     -11.814  11.189  67.476  1.00  0.00     0.000 HD 
HETATM    3  H2  UNL     1     -10.619  10.727  66.192  1.00  0.00     0.000 HD 
HETATM    4  S   UNL     1      -9.776  11.594  68.283  1.00  0.00    -0.199 S  
HETATM    5  O   UNL     1     -10.292  12.866  68.729  1.00  0.00    -0.216 OA 
HETATM    6  O   UNL     1      -8.438  11.446  67.774  1.00  0.00    -0.121 OA 
ENDROOT
BRANCH   4   7
HETATM    7  C   UNL     1     -10.033  10.390  69.566  1.00  0.00    -0.202 A  
HETATM    8  C   UNL     1      -8.987   9.491  69.788  1.00  0.00    -0.214 A  
HETATM    9  C   UNL     1      -9.067   8.569  70.830  1.00  0.00    -0.172 A  
HETATM   10  C   UNL     1     -10.166   8.491  71.676  1.00  0.00    -0.266 A  
HETATM   11  C   UNL     1     -11.208   9.405  71.442  1.00  0.00    -0.452 A  
HETATM   12  N   UNL     1     -10.200   7.675  72.810  1.00  0.00    -0.251 NA 
HETATM   13  H   UNL     1     -10.810   7.895  73.597  1.00  0.00     0.000 HD 
HETATM   14  C   UNL     1      -9.337   6.498  72.836  1.00  0.00    -0.135 C  
HETATM   15  C   UNL     1     -11.178  10.356  70.376  1.00  0.00    -0.399 A  
HETATM   16  N   UNL     1      -7.955   6.919  72.644  1.00  0.00    -0.101 N  
HETATM   17  O   UNL     1      -7.838   6.380  70.205  1.00  0.00    -0.102 OA 
HETATM   18  C   UNL     1     -12.394  11.244  70.227  1.00  0.00    -0.307 C  
HETATM   19  F   UNL     1     -12.355  12.206  69.274  1.00  0.00    -0.261 F  
HETATM   20  F   UNL     1     -13.513  10.511  69.958  1.00  0.00    -0.187 F  
HETATM   21  S   UNL     1      -7.699   7.509  71.097  1.00  0.00    -0.090 S  
HETATM   22  F   UNL     1     -12.674  11.909  71.386  1.00  0.00    -0.447 F  
HETATM   23  O   UNL     1      -6.490   8.298  71.139  1.00  0.00    -0.037 OA 
HETATM   24  H   UNL     1      -7.232   6.861  73.362  1.00  0.00     0.000 HD 
BRANCH  14  25
HETATM   25  C   UNL     1      -9.425   5.771  74.202  1.00  0.00    -0.146 C  
BRANCH  25  26
HETATM   26  C   UNL     1      -9.811   4.315  74.087  1.00  0.00    -0.170 A  
HETATM   27  C   UNL     1     -11.062   3.939  73.579  1.00  0.00    -0.342 A  
HETATM   28  C   UNL     1     -11.453   2.601  73.589  1.00  0.00    -0.229 A  
HETATM   29  C   UNL     1     -10.585   1.625  74.077  1.00  0.00    -0.182 A  
HETATM   30  C   UNL     1      -9.315   1.982  74.525  1.00  0.00    -0.095 A  
HETATM   31  C   UNL     1      -8.927   3.321  74.526  1.00  0.00    -0.098 A  
ENDBRANCH  25  26
ENDBRANCH  14  25
ENDBRANCH   4   7
TORSDOF 3
ENDMDL
MODEL      129
REMARK 921   NORMALIZED FREE ENERGY PREDICTED BY IDOCK:   -4.06 KCAL/MOL
REMARK 922        TOTAL FREE ENERGY PREDICTED BY IDOCK:   -4.91 KCAL/MOL
REMARK 923 INTER-LIGAND FREE ENERGY PREDICTED BY IDOCK:   -5.65 KCAL/MOL
REMARK 924 INTRA-LIGAND FREE ENERGY PREDICTED BY IDOCK:    0.74 KCAL/MOL
REMARK 927      BINDING AFFINITY PREDICTED BY RF-SCORE:    0.00 PKD
ROOT
HETATM    1  N   UNL     1      -6.773   4.634  67.651  1.00  0.00    -0.050 N  
HETATM    2  H1  UNL     1      -7.686   4.225  67.851  1.00  0.00     0.000 HD 
HETATM    3  H2  UNL     1      -5.967   4.617  68.276  1.00  0.00     0.000 HD 
HETATM    4  S   UNL     1      -6.811   5.338  66.130  1.00  0.00    -0.059 S  
HETATM    5  O   UNL     1      -7.404   4.334  65.280  1.00  0.00    -0.070 OA 
HETATM    6  O   UNL     1      -5.523   5.915  65.848  1.00  0.00    -0.009 OA 
ENDROOT
BRANCH   4   7
HETATM    7  C   UNL     1      -7.984   6.652  66.369  1.00  0.00    -0.106 A  
HETATM    8  C   UNL     1      -7.517   7.948  66.135  1.00  0.00    -0.079 A  
HETATM    9  C   UNL     1      -8.390   9.031  66.214  1.00  0.00    -0.120 A  
HETATM   10  C   UNL     1      -9.735   8.885  66.532  1.00  0.00    -0.254 A  
HETATM   11  C   UNL     1     -10.190   7.574  66.761  1.00  0.00    -0.324 A  
HETATM   12  N   UNL     1     -10.651   9.938  66.474  1.00  0.00    -0.137 NA 
HETATM   13  H   UNL     1     -11.646   9.761  66.335  1.00  0.00     0.000 HD 
HETATM   14  C   UNL     1     -10.145  11.299  66.619  1.00  0.00    -0.214 C  
HETATM   15  C   UNL     1      -9.328   6.436  66.707  1.00  0.00    -0.167 A  
HETATM   16  N   UNL     1      -9.138  11.542  65.592  1.00  0.00    -0.352 N  
HETATM   17  O   UNL     1      -7.149  11.140  67.055  1.00  0.00    -0.107 OA 
HETATM   18  C   UNL     1      -9.958   5.096  67.019  1.00  0.00    -0.196 C  
HETATM   19  F   UNL     1      -9.179   3.994  66.897  1.00  0.00    -0.125 F  
HETATM   20  F   UNL     1     -10.441   5.060  68.295  1.00  0.00    -0.209 F  
HETATM   21  S   UNL     1      -7.760  10.623  65.851  1.00  0.00    -0.119 S  
HETATM   22  F   UNL     1     -11.039   4.852  66.223  1.00  0.00    -0.290 F  
HETATM   23  O   UNL     1      -7.043  10.574  64.598  1.00  0.00    -0.064 OA 
HETATM   24  H   UNL     1      -9.257  12.190  64.813  1.00  0.00     0.000 HD 
BRANCH  14  25
HETATM   25  C   UNL     1     -11.276  12.340  66.427  1.00  0.00    -0.370 C  
BRANCH  25  26
HETATM   26  C   UNL     1     -11.472  13.246  67.619  1.00  0.00    -0.360 A  
HETATM   27  C   UNL     1     -11.866  12.728  68.860  1.00  0.00    -0.351 A  
HETATM   28  C   UNL     1     -12.159  13.585  69.920  1.00  0.00    -0.408 A  
HETATM   29  C   UNL     1     -12.031  14.963  69.758  1.00  0.00    -0.366 A  
HETATM   30  C   UNL     1     -11.579  15.484  68.547  1.00  0.00    -0.379 A  
HETATM   31  C   UNL     1     -11.296  14.630  67.483  1.00  0.00    -0.361 A  
ENDBRANCH  25  26
ENDBRANCH  14  25
ENDBRANCH   4   7
TORSDOF 3
ENDMDL
MODEL      130
REMARK 921   NORMALIZED FREE ENERGY PREDICTED BY IDOCK:   -4.06 KCAL/MOL
REMARK 922        TOTAL FREE ENERGY PREDICTED BY IDOCK:   -4.91 KCAL/MOL
REMARK 923 INTER-LIGAND FREE ENERGY PREDICTED BY IDOCK:   -4.73 KCAL/MOL
REMARK 924 INTRA-LIGAND FREE ENERGY PREDICTED BY IDOCK:   -0.18 KCAL/MOL
REMARK 927      BINDING AFFINITY PREDICTED BY RF-SCORE:    0.00 PKD
ROOT
HETATM    1  N   UNL     1      -7.272   5.833  63.859  1.00  0.00    -0.052 N  
HETATM    2  H1  UNL     1      -6.949   6.690  64.309  1.00  0.00     0.000 HD 
HETATM    3  H2  UNL     1      -7.884   5.787  63.044  1.00  0.00     0.000 HD 
HETATM    4  S   UNL     1      -6.636   4.514  64.675  1.00  0.00    -0.044 S  
HETATM    5  O   UNL     1      -5.234   4.821  64.823  1.00  0.00    -0.012 OA 
HETATM    6  O   UNL     1      -7.092   3.305  64.041  1.00  0.00    -0.047 OA 
ENDROOT
BRANCH   4   7
HETATM    7  C   UNL     1      -7.424   4.657  66.262  1.00  0.00    -0.082 A  
HETATM    8  C   UNL     1      -8.391   5.658  66.385  1.00  0.00    -0.112 A  
HETATM    9  C   UNL     1      -9.120   5.785  67.565  1.00  0.00    -0.106 A  
HETATM   10  C   UNL     1      -8.922   4.951  68.659  1.00  0.00    -0.105 A  
HETATM   11  C   UNL     1      -7.949   3.947  68.518  1.00  0.00    -0.067 A  
HETATM   12  N   UNL     1      -9.741   4.973  69.792  1.00  0.00    -0.176 NA 
HETATM   13  H   UNL     1      -9.833   4.150  70.388  1.00  0.00     0.000 HD 
HETATM   14  C   UNL     1     -10.459   6.205  70.099  1.00  0.00    -0.231 C  
HETATM   15  C   UNL     1      -7.166   3.789  67.334  1.00  0.00    -0.063 A  
HETATM   16  N   UNL     1     -11.289   6.567  68.956  1.00  0.00    -0.585 N  
HETATM   17  O   UNL     1      -9.720   8.264  68.001  1.00  0.00    -0.153 OA 
HETATM   18  C   UNL     1      -6.129   2.688  67.351  1.00  0.00    -0.027 C  
HETATM   19  F   UNL     1      -5.430   2.468  66.211  1.00  0.00    -0.013 F  
HETATM   20  F   UNL     1      -5.190   2.906  68.317  1.00  0.00    -0.010 F  
HETATM   21  S   UNL     1     -10.359   7.020  67.637  1.00  0.00    -0.238 S  
HETATM   22  F   UNL     1      -6.684   1.480  67.661  1.00  0.00    -0.030 F  
HETATM   23  O   UNL     1     -11.202   6.914  66.469  1.00  0.00     0.053 OA 
HETATM   24  H   UNL     1     -12.310   6.547  68.959  1.00  0.00     0.000 HD 
BRANCH  14  25
HETATM   25  C   UNL     1     -11.393   6.018  71.322  1.00  0.00    -0.296 C  
BRANCH  25  26
HETATM   26  C   UNL     1     -12.205   7.247  71.655  1.00  0.00    -0.377 A  
HETATM   27  C   UNL     1     -13.591   7.272  71.447  1.00  0.00    -0.399 A  
HETATM   28  C   UNL     1     -14.312   8.449  71.645  1.00  0.00    -0.536 A  
HETATM   29  C   UNL     1     -13.659   9.600  72.082  1.00  0.00    -0.471 A  
HETATM   30  C   UNL     1     -12.293   9.568  72.352  1.00  0.00    -0.105 A  
HETATM   31  C   UNL     1     -11.568   8.395  72.144  1.00  0.00    -0.442 A  
ENDBRANCH  25  26
ENDBRANCH  14  25
ENDBRANCH   4   7
TORSDOF 3
ENDMDL
MODEL      131
REMARK 921   NORMALIZED FREE ENERGY PREDICTED BY IDOCK:   -4.03 KCAL/MOL
REMARK 922        TOTAL FREE ENERGY PREDICTED BY IDOCK:   -4.88 KCAL/MOL
REMARK 923 INTER-LIGAND FREE ENERGY PREDICTED BY IDOCK:   -5.68 KCAL/MOL
REMARK 924 INTRA-LIGAND FREE ENERGY PREDICTED BY IDOCK:    0.80 KCAL/MOL
REMARK 927      BINDING AFFINITY PREDICTED BY RF-SCORE:    0.00 PKD
ROOT
HETATM    1  N   UNL     1      -8.677   5.124  69.882  1.00  0.00    -0.102 N  
HETATM    2  H1  UNL     1      -7.898   5.648  69.482  1.00  0.00     0.000 HD 
HETATM    3  H2  UNL     1      -9.141   4.329  69.445  1.00  0.00     0.000 HD 
HETATM    4  S   UNL     1      -9.069   5.781  71.373  1.00  0.00    -0.139 S  
HETATM    5  O   UNL     1      -7.803   5.915  72.055  1.00  0.00    -0.104 OA 
HETATM    6  O   UNL     1     -10.167   5.042  71.938  1.00  0.00    -0.193 OA 
ENDROOT
BRANCH   4   7
HETATM    7  C   UNL     1      -9.647   7.399  70.915  1.00  0.00    -0.166 A  
HETATM    8  C   UNL     1     -10.937   7.735  71.333  1.00  0.00    -0.264 A  
HETATM    9  C   UNL     1     -11.438   9.013  71.093  1.00  0.00    -0.308 A  
HETATM   10  C   UNL     1     -10.705   9.992  70.434  1.00  0.00    -0.307 A  
HETATM   11  C   UNL     1      -9.408   9.638  70.023  1.00  0.00    -0.276 A  
HETATM   12  N   UNL     1     -11.136  11.316  70.314  1.00  0.00    -0.438 NA 
HETATM   13  H   UNL     1     -10.467  12.075  70.183  1.00  0.00     0.000 HD 
HETATM   14  C   UNL     1     -12.569  11.582  70.380  1.00  0.00    -0.157 C  
HETATM   15  C   UNL     1      -8.858   8.336  70.233  1.00  0.00    -0.141 A  
HETATM   16  N   UNL     1     -13.088  11.069  71.642  1.00  0.00    -0.457 N  
HETATM   17  O   UNL     1     -13.997   8.930  70.717  1.00  0.00     0.082 OA 
HETATM   18  C   UNL     1      -7.464   8.097  69.696  1.00  0.00    -0.086 C  
HETATM   19  F   UNL     1      -6.892   6.896  69.952  1.00  0.00    -0.045 F  
HETATM   20  F   UNL     1      -7.424   8.236  68.338  1.00  0.00    -0.087 F  
HETATM   21  S   UNL     1     -13.038   9.395  71.694  1.00  0.00    -0.420 S  
HETATM   22  F   UNL     1      -6.577   9.018  70.174  1.00  0.00    -0.038 F  
HETATM   23  O   UNL     1     -13.126   9.012  73.084  1.00  0.00    -0.176 OA 
HETATM   24  H   UNL     1     -13.440  11.656  72.399  1.00  0.00     0.000 HD 
BRANCH  14  25
HETATM   25  C   UNL     1     -12.857  13.104  70.333  1.00  0.00     0.048 C  
BRANCH  25  26
HETATM   26  C   UNL     1     -12.052  13.840  69.289  1.00  0.00    -0.374 A  
HETATM   27  C   UNL     1     -11.311  14.982  69.624  1.00  0.00    -0.309 A  
HETATM   28  C   UNL     1     -10.668  15.721  68.630  1.00  0.00    -0.263 A  
HETATM   29  C   UNL     1     -10.735  15.307  67.301  1.00  0.00    -0.311 A  
HETATM   30  C   UNL     1     -11.416  14.138  66.968  1.00  0.00    -0.370 A  
HETATM   31  C   UNL     1     -12.068  13.404  67.957  1.00  0.00    -0.283 A  
ENDBRANCH  25  26
ENDBRANCH  14  25
ENDBRANCH   4   7
TORSDOF 3
ENDMDL
MODEL      132
REMARK 921   NORMALIZED FREE ENERGY PREDICTED BY IDOCK:   -4.01 KCAL/MOL
REMARK 922        TOTAL FREE ENERGY PREDICTED BY IDOCK:   -4.85 KCAL/MOL
REMARK 923 INTER-LIGAND FREE ENERGY PREDICTED BY IDOCK:   -4.99 KCAL/MOL
REMARK 924 INTRA-LIGAND FREE ENERGY PREDICTED BY IDOCK:    0.14 KCAL/MOL
REMARK 927      BINDING AFFINITY PREDICTED BY RF-SCORE:    0.00 PKD
ROOT
HETATM    1  N   UNL     1     -12.111  13.139  70.373  1.00  0.00    -0.455 N  
HETATM    2  H1  UNL     1     -11.371  12.989  71.060  1.00  0.00     0.000 HD 
HETATM    3  H2  UNL     1     -13.084  12.853  70.478  1.00  0.00     0.000 HD 
HETATM    4  S   UNL     1     -11.468  13.933  69.043  1.00  0.00    -0.321 S  
HETATM    5  O   UNL     1     -10.709  15.024  69.604  1.00  0.00    -0.252 OA 
HETATM    6  O   UNL     1     -12.511  14.145  68.074  1.00  0.00    -0.104 OA 
ENDROOT
BRANCH   4   7
HETATM    7  C   UNL     1     -10.339  12.716  68.407  1.00  0.00    -0.235 A  
HETATM    8  C   UNL     1     -10.307  11.491  69.079  1.00  0.00    -0.143 A  
HETATM    9  C   UNL     1      -9.515  10.450  68.598  1.00  0.00    -0.167 A  
HETATM   10  C   UNL     1      -8.728  10.575  67.460  1.00  0.00    -0.125 A  
HETATM   11  C   UNL     1      -8.774  11.812  66.794  1.00  0.00    -0.192 A  
HETATM   12  N   UNL     1      -8.043   9.501  66.885  1.00  0.00    -0.109 NA 
HETATM   13  H   UNL     1      -7.800   9.504  65.894  1.00  0.00     0.000 HD 
HETATM   14  C   UNL     1      -7.687   8.374  67.741  1.00  0.00    -0.103 C  
HETATM   15  C   UNL     1      -9.558  12.913  67.259  1.00  0.00    -0.220 A  
HETATM   16  N   UNL     1      -8.899   7.841  68.352  1.00  0.00    -0.131 N  
HETATM   17  O   UNL     1      -8.634   9.001  70.552  1.00  0.00    -0.160 OA 
HETATM   18  C   UNL     1      -9.469  14.192  66.456  1.00  0.00    -0.285 C  
HETATM   19  F   UNL     1     -10.264  15.223  66.832  1.00  0.00    -0.252 F  
HETATM   20  F   UNL     1      -8.200  14.693  66.458  1.00  0.00    -0.173 F  
HETATM   21  S   UNL     1      -9.564   8.921  69.448  1.00  0.00    -0.166 S  
HETATM   22  F   UNL     1      -9.767  13.981  65.141  1.00  0.00    -0.295 F  
HETATM   23  O   UNL     1     -10.941   8.531  69.644  1.00  0.00    -0.197 OA 
HETATM   24  H   UNL     1      -9.293   6.924  68.139  1.00  0.00     0.000 HD 
BRANCH  14  25
HETATM   25  C   UNL     1      -7.029   7.235  66.922  1.00  0.00    -0.077 C  
BRANCH  25  26
HETATM   26  C   UNL     1      -7.877   5.989  66.831  1.00  0.00    -0.101 A  
HETATM   27  C   UNL     1      -7.680   4.919  67.715  1.00  0.00    -0.083 A  
HETATM   28  C   UNL     1      -8.386   3.728  67.547  1.00  0.00    -0.097 A  
HETATM   29  C   UNL     1      -9.316   3.608  66.516  1.00  0.00    -0.202 A  
HETATM   30  C   UNL     1      -9.564   4.689  65.672  1.00  0.00    -0.189 A  
HETATM   31  C   UNL     1      -8.852   5.876  65.831  1.00  0.00    -0.154 A  
ENDBRANCH  25  26
ENDBRANCH  14  25
ENDBRANCH   4   7
TORSDOF 3
ENDMDL
MODEL      133
REMARK 921   NORMALIZED FREE ENERGY PREDICTED BY IDOCK:   -3.83 KCAL/MOL
REMARK 922        TOTAL FREE ENERGY PREDICTED BY IDOCK:   -4.64 KCAL/MOL
REMARK 923 INTER-LIGAND FREE ENERGY PREDICTED BY IDOCK:   -5.27 KCAL/MOL
REMARK 924 INTRA-LIGAND FREE ENERGY PREDICTED BY IDOCK:    0.63 KCAL/MOL
REMARK 927      BINDING AFFINITY PREDICTED BY RF-SCORE:    0.00 PKD
ROOT
HETATM    1  N   UNL     1      -7.793   2.863  72.218  1.00  0.00    -0.054 N  
HETATM    2  H1  UNL     1      -7.171   3.586  72.578  1.00  0.00     0.000 HD 
HETATM    3  H2  UNL     1      -7.500   1.952  71.864  1.00  0.00     0.000 HD 
HETATM    4  S   UNL     1      -9.375   3.411  72.299  1.00  0.00    -0.122 S  
HETATM    5  O   UNL     1      -9.507   3.940  73.635  1.00  0.00    -0.103 OA 
HETATM    6  O   UNL     1     -10.252   2.390  71.791  1.00  0.00    -0.128 OA 
ENDROOT
BRANCH   4   7
HETATM    7  C   UNL     1      -9.348   4.765  71.147  1.00  0.00    -0.148 A  
HETATM    8  C   UNL     1      -9.499   6.043  71.691  1.00  0.00    -0.163 A  
HETATM    9  C   UNL     1      -9.404   7.167  70.873  1.00  0.00    -0.160 A  
HETATM   10  C   UNL     1      -9.170   7.078  69.506  1.00  0.00    -0.149 A  
HETATM   11  C   UNL     1      -9.017   5.785  68.975  1.00  0.00    -0.117 A  
HETATM   12  N   UNL     1      -8.929   8.194  68.700  1.00  0.00    -0.137 NA 
HETATM   13  H   UNL     1      -8.403   8.108  67.830  1.00  0.00     0.000 HD 
HETATM   14  C   UNL     1      -9.451   9.484  69.137  1.00  0.00    -0.163 C  
HETATM   15  C   UNL     1      -9.122   4.604  69.772  1.00  0.00    -0.162 A  
HETATM   16  N   UNL     1      -8.924   9.784  70.463  1.00  0.00    -0.322 N  
HETATM   17  O   UNL     1     -10.948   9.054  71.737  1.00  0.00    -0.335 OA 
HETATM   18  C   UNL     1      -8.975   3.284  69.047  1.00  0.00    -0.129 C  
HETATM   19  F   UNL     1      -8.993   2.154  69.794  1.00  0.00    -0.104 F  
HETATM   20  F   UNL     1      -9.957   3.118  68.114  1.00  0.00    -0.167 F  
HETATM   21  S   UNL     1      -9.541   8.743  71.622  1.00  0.00    -0.293 S  
HETATM   22  F   UNL     1      -7.805   3.225  68.347  1.00  0.00    -0.058 F  
HETATM   23  O   UNL     1      -8.656   8.805  72.761  1.00  0.00    -0.412 OA 
HETATM   24  H   UNL     1      -8.261  10.535  70.661  1.00  0.00     0.000 HD 
BRANCH  14  25
HETATM   25  C   UNL     1      -9.004  10.620  68.182  1.00  0.00    -0.141 C  
BRANCH  25  26
HETATM   26  C   UNL     1      -9.952  11.796  68.158  1.00  0.00    -0.196 A  
HETATM   27  C   UNL     1     -11.101  11.812  68.960  1.00  0.00    -0.301 A  
HETATM   28  C   UNL     1     -12.029  12.846  68.842  1.00  0.00    -0.291 A  
HETATM   29  C   UNL     1     -11.800  13.887  67.945  1.00  0.00    -0.413 A  
HETATM   30  C   UNL     1     -10.630  13.914  67.190  1.00  0.00    -0.277 A  
HETATM   31  C   UNL     1      -9.706  12.875  67.298  1.00  0.00    -0.220 A  
ENDBRANCH  25  26
ENDBRANCH  14  25
ENDBRANCH   4   7
TORSDOF 3
ENDMDL
MODEL      134
REMARK 921   NORMALIZED FREE ENERGY PREDICTED BY IDOCK:   -3.81 KCAL/MOL
REMARK 922        TOTAL FREE ENERGY PREDICTED BY IDOCK:   -4.62 KCAL/MOL
REMARK 923 INTER-LIGAND FREE ENERGY PREDICTED BY IDOCK:   -5.17 KCAL/MOL
REMARK 924 INTRA-LIGAND FREE ENERGY PREDICTED BY IDOCK:    0.56 KCAL/MOL
REMARK 927      BINDING AFFINITY PREDICTED BY RF-SCORE:    0.00 PKD
ROOT
HETATM    1  N   UNL     1      -9.133  14.417  69.168  1.00  0.00    -0.392 N  
HETATM    2  H1  UNL     1      -9.339  13.845  69.987  1.00  0.00     0.000 HD 
HETATM    3  H2  UNL     1      -9.586  15.299  68.933  1.00  0.00     0.000 HD 
HETATM    4  S   UNL     1      -7.928  13.672  68.271  1.00  0.00    -0.156 S  
HETATM    5  O   UNL     1      -6.916  13.326  69.240  1.00  0.00    -0.079 OA 
HETATM    6  O   UNL     1      -7.637  14.479  67.115  1.00  0.00    -0.166 OA 
ENDROOT
BRANCH   4   7
HETATM    7  C   UNL     1      -8.742  12.185  67.737  1.00  0.00    -0.171 A  
HETATM    8  C   UNL     1      -8.264  10.989  68.280  1.00  0.00    -0.130 A  
HETATM    9  C   UNL     1      -8.898   9.784  67.984  1.00  0.00    -0.119 A  
HETATM   10  C   UNL     1     -10.005   9.708  67.147  1.00  0.00    -0.194 A  
HETATM   11  C   UNL     1     -10.475  10.920  66.613  1.00  0.00    -0.307 A  
HETATM   12  N   UNL     1     -10.737   8.533  66.956  1.00  0.00    -0.365 NA 
HETATM   13  H   UNL     1     -11.716   8.566  66.671  1.00  0.00     0.000 HD 
HETATM   14  C   UNL     1     -10.062   7.258  67.176  1.00  0.00    -0.236 C  
HETATM   15  C   UNL     1      -9.848  12.177  66.875  1.00  0.00    -0.213 A  
HETATM   16  N   UNL     1      -9.538   7.228  68.537  1.00  0.00    -0.140 N  
HETATM   17  O   UNL     1      -7.188   7.843  67.942  1.00  0.00    -0.086 OA 
HETATM   18  C   UNL     1     -10.448  13.387  66.192  1.00  0.00    -0.295 C  
HETATM   19  F   UNL     1      -9.918  14.599  66.488  1.00  0.00    -0.249 F  
HETATM   20  F   UNL     1     -10.371  13.279  64.834  1.00  0.00    -0.306 F  
HETATM   21  S   UNL     1      -8.290   8.328  68.742  1.00  0.00    -0.125 S  
HETATM   22  F   UNL     1     -11.779  13.508  66.465  1.00  0.00    -0.320 F  
HETATM   23  O   UNL     1      -8.154   8.554  70.162  1.00  0.00    -0.103 OA 
HETATM   24  H   UNL     1      -9.887   6.613  69.273  1.00  0.00     0.000 HD 
BRANCH  14  25
HETATM   25  C   UNL     1     -11.045   6.071  67.021  1.00  0.00    -0.263 C  
BRANCH  25  26
HETATM   26  C   UNL     1     -10.426   4.853  66.378  1.00  0.00    -0.325 A  
HETATM   27  C   UNL     1      -9.821   3.857  67.157  1.00  0.00    -0.094 A  
HETATM   28  C   UNL     1      -9.148   2.798  66.547  1.00  0.00    -0.144 A  
HETATM   29  C   UNL     1      -9.101   2.711  65.157  1.00  0.00    -0.140 A  
HETATM   30  C   UNL     1      -9.754   3.662  64.376  1.00  0.00    -0.177 A  
HETATM   31  C   UNL     1     -10.418   4.727  64.983  1.00  0.00     0.124 A  
ENDBRANCH  25  26
ENDBRANCH  14  25
ENDBRANCH   4   7
TORSDOF 3
ENDMDL
MODEL      135
REMARK 921   NORMALIZED FREE ENERGY PREDICTED BY IDOCK:   -3.75 KCAL/MOL
REMARK 922        TOTAL FREE ENERGY PREDICTED BY IDOCK:   -4.55 KCAL/MOL
REMARK 923 INTER-LIGAND FREE ENERGY PREDICTED BY IDOCK:   -5.26 KCAL/MOL
REMARK 924 INTRA-LIGAND FREE ENERGY PREDICTED BY IDOCK:    0.72 KCAL/MOL
REMARK 927      BINDING AFFINITY PREDICTED BY RF-SCORE:    0.00 PKD
ROOT
HETATM    1  N   UNL     1      -7.679   2.901  71.904  1.00  0.00    -0.052 N  
HETATM    2  H1  UNL     1      -7.294   3.703  72.404  1.00  0.00     0.000 HD 
HETATM    3  H2  UNL     1      -7.135   2.193  71.411  1.00  0.00     0.000 HD 
HETATM    4  S   UNL     1      -9.351   2.934  72.024  1.00  0.00    -0.126 S  
HETATM    5  O   UNL     1      -9.610   3.162  73.425  1.00  0.00    -0.101 OA 
HETATM    6  O   UNL     1      -9.894   1.803  71.319  1.00  0.00    -0.140 OA 
ENDROOT
BRANCH   4   7
HETATM    7  C   UNL     1      -9.749   4.413  71.121  1.00  0.00    -0.186 A  
HETATM    8  C   UNL     1     -10.230   5.487  71.875  1.00  0.00    -0.251 A  
HETATM    9  C   UNL     1     -10.485   6.712  71.262  1.00  0.00    -0.215 A  
HETATM   10  C   UNL     1     -10.289   6.923  69.902  1.00  0.00    -0.205 A  
HETATM   11  C   UNL     1      -9.801   5.834  69.160  1.00  0.00    -0.211 A  
HETATM   12  N   UNL     1     -10.401   8.180  69.302  1.00  0.00    -0.216 NA 
HETATM   13  H   UNL     1      -9.907   8.393  68.435  1.00  0.00     0.000 HD 
HETATM   14  C   UNL     1     -11.246   9.179  69.948  1.00  0.00    -0.102 C  
HETATM   15  C   UNL     1      -9.541   4.555  69.741  1.00  0.00    -0.270 A  
HETATM   16  N   UNL     1     -10.772   9.389  71.311  1.00  0.00    -0.341 N  
HETATM   17  O   UNL     1     -12.460   7.915  72.421  1.00  0.00    -0.263 OA 
HETATM   18  C   UNL     1      -9.059   3.471  68.802  1.00  0.00    -0.145 C  
HETATM   19  F   UNL     1      -8.730   2.273  69.344  1.00  0.00    -0.084 F  
HETATM   20  F   UNL     1      -9.991   3.193  67.845  1.00  0.00    -0.173 F  
HETATM   21  S   UNL     1     -11.028   8.037  72.269  1.00  0.00    -0.342 S  
HETATM   22  F   UNL     1      -7.947   3.862  68.114  1.00  0.00    -0.074 F  
HETATM   23  O   UNL     1     -10.151   8.155  73.410  1.00  0.00    -0.193 OA 
HETATM   24  H   UNL     1     -10.339  10.252  71.642  1.00  0.00     0.000 HD 
BRANCH  14  25
HETATM   25  C   UNL     1     -11.172  10.538  69.207  1.00  0.00    -0.320 C  
BRANCH  25  26
HETATM   26  C   UNL     1     -10.226  10.533  68.030  1.00  0.00    -0.195 A  
HETATM   27  C   UNL     1      -8.937  11.073  68.140  1.00  0.00    -0.152 A  
HETATM   28  C   UNL     1      -8.116  11.171  67.017  1.00  0.00    -0.148 A  
HETATM   29  C   UNL     1      -8.565  10.703  65.783  1.00  0.00    -0.186 A  
HETATM   30  C   UNL     1      -9.820  10.107  65.677  1.00  0.00    -0.347 A  
HETATM   31  C   UNL     1     -10.646  10.017  66.797  1.00  0.00    -0.229 A  
ENDBRANCH  25  26
ENDBRANCH  14  25
ENDBRANCH   4   7
TORSDOF 3
ENDMDL
MODEL      136
REMARK 921   NORMALIZED FREE ENERGY PREDICTED BY IDOCK:   -3.74 KCAL/MOL
REMARK 922        TOTAL FREE ENERGY PREDICTED BY IDOCK:   -4.53 KCAL/MOL
REMARK 923 INTER-LIGAND FREE ENERGY PREDICTED BY IDOCK:   -4.29 KCAL/MOL
REMARK 924 INTRA-LIGAND FREE ENERGY PREDICTED BY IDOCK:   -0.24 KCAL/MOL
REMARK 927      BINDING AFFINITY PREDICTED BY RF-SCORE:    0.00 PKD
ROOT
HETATM    1  N   UNL     1      -8.390   2.730  72.081  1.00  0.00    -0.058 N  
HETATM    2  H1  UNL     1      -7.521   3.262  72.033  1.00  0.00     0.000 HD 
HETATM    3  H2  UNL     1      -8.503   1.754  71.809  1.00  0.00     0.000 HD 
HETATM    4  S   UNL     1      -9.604   3.719  72.681  1.00  0.00    -0.140 S  
HETATM    5  O   UNL     1      -9.021   4.344  73.844  1.00  0.00    -0.103 OA 
HETATM    6  O   UNL     1     -10.830   2.969  72.748  1.00  0.00    -0.088 OA 
ENDROOT
BRANCH   4   7
HETATM    7  C   UNL     1      -9.749   4.934  71.391  1.00  0.00    -0.175 A  
HETATM    8  C   UNL     1      -8.903   4.772  70.291  1.00  0.00    -0.137 A  
HETATM    9  C   UNL     1      -9.009   5.627  69.195  1.00  0.00    -0.113 A  
HETATM   10  C   UNL     1      -9.931   6.665  69.144  1.00  0.00    -0.157 A  
HETATM   11  C   UNL     1     -10.777   6.812  70.257  1.00  0.00    -0.284 A  
HETATM   12  N   UNL     1     -10.148   7.437  68.000  1.00  0.00    -0.172 NA 
HETATM   13  H   UNL     1     -11.039   7.909  67.846  1.00  0.00     0.000 HD 
HETATM   14  C   UNL     1      -9.063   7.549  67.030  1.00  0.00    -0.135 C  
HETATM   15  C   UNL     1     -10.694   5.970  71.409  1.00  0.00    -0.314 A  
HETATM   16  N   UNL     1      -8.682   6.213  66.588  1.00  0.00    -0.121 N  
HETATM   17  O   UNL     1      -6.697   5.980  68.090  1.00  0.00    -0.059 OA 
HETATM   18  C   UNL     1     -11.646   6.281  72.543  1.00  0.00    -0.232 C  
HETATM   19  F   UNL     1     -11.640   5.448  73.612  1.00  0.00    -0.225 F  
HETATM   20  F   UNL     1     -11.421   7.527  73.053  1.00  0.00    -0.357 F  
HETATM   21  S   UNL     1      -7.963   5.337  67.822  1.00  0.00    -0.099 S  
HETATM   22  F   UNL     1     -12.943   6.299  72.119  1.00  0.00    -0.350 F  
HETATM   23  O   UNL     1      -8.042   3.943  67.452  1.00  0.00    -0.090 OA 
HETATM   24  H   UNL     1      -8.835   5.856  65.644  1.00  0.00     0.000 HD 
BRANCH  14  25
HETATM   25  C   UNL     1      -9.510   8.352  65.782  1.00  0.00    -0.088 C  
BRANCH  25  26
HETATM   26  C   UNL     1      -8.365   8.995  65.036  1.00  0.00    -0.174 A  
HETATM   27  C   UNL     1      -8.249   8.865  63.645  1.00  0.00    -0.172 A  
HETATM   28  C   UNL     1      -7.126   9.362  62.983  1.00  0.00    -0.096 A  
HETATM   29  C   UNL     1      -6.128  10.018  63.701  1.00  0.00    -0.131 A  
HETATM   30  C   UNL     1      -6.265  10.207  65.074  1.00  0.00    -0.123 A  
HETATM   31  C   UNL     1      -7.381   9.703  65.739  1.00  0.00    -0.100 A  
ENDBRANCH  25  26
ENDBRANCH  14  25
ENDBRANCH   4   7
TORSDOF 3
ENDMDL
MODEL      137
REMARK 921   NORMALIZED FREE ENERGY PREDICTED BY IDOCK:   -3.69 KCAL/MOL
REMARK 922        TOTAL FREE ENERGY PREDICTED BY IDOCK:   -4.47 KCAL/MOL
REMARK 923 INTER-LIGAND FREE ENERGY PREDICTED BY IDOCK:   -5.18 KCAL/MOL
REMARK 924 INTRA-LIGAND FREE ENERGY PREDICTED BY IDOCK:    0.70 KCAL/MOL
REMARK 927      BINDING AFFINITY PREDICTED BY RF-SCORE:    0.00 PKD
ROOT
HETATM    1  N   UNL     1      -6.711   7.410  65.968  1.00  0.00    -0.052 N  
HETATM    2  H1  UNL     1      -6.665   7.451  66.986  1.00  0.00     0.000 HD 
HETATM    3  H2  UNL     1      -5.912   7.452  65.336  1.00  0.00     0.000 HD 
HETATM    4  S   UNL     1      -8.314   7.262  65.500  1.00  0.00    -0.110 S  
HETATM    5  O   UNL     1      -8.840   6.209  66.336  1.00  0.00    -0.132 OA 
HETATM    6  O   UNL     1      -8.381   7.204  64.063  1.00  0.00     0.011 OA 
ENDROOT
BRANCH   4   7
HETATM    7  C   UNL     1      -8.993   8.814  66.039  1.00  0.00    -0.192 A  
HETATM    8  C   UNL     1      -9.449   9.671  65.035  1.00  0.00    -0.312 A  
HETATM    9  C   UNL     1     -10.075  10.870  65.370  1.00  0.00    -0.277 A  
HETATM   10  C   UNL     1     -10.265  11.272  66.687  1.00  0.00    -0.229 A  
HETATM   11  C   UNL     1      -9.804  10.396  67.685  1.00  0.00    -0.197 A  
HETATM   12  N   UNL     1     -11.015  12.396  67.041  1.00  0.00    -0.250 NA 
HETATM   13  H   UNL     1     -11.455  12.465  67.958  1.00  0.00     0.000 HD 
HETATM   14  C   UNL     1     -11.151  13.469  66.061  1.00  0.00    -0.293 C  
HETATM   15  C   UNL     1      -9.142   9.164  67.389  1.00  0.00    -0.142 A  
HETATM   16  N   UNL     1     -11.733  12.924  64.840  1.00  0.00    -0.331 N  
HETATM   17  O   UNL     1      -9.580  12.683  63.591  1.00  0.00    -0.108 OA 
HETATM   18  C   UNL     1      -8.667   8.351  68.573  1.00  0.00    -0.136 C  
HETATM   19  F   UNL     1      -8.108   7.143  68.319  1.00  0.00    -0.116 F  
HETATM   20  F   UNL     1      -7.739   9.034  69.304  1.00  0.00    -0.081 F  
HETATM   21  S   UNL     1     -10.679  11.874  64.069  1.00  0.00    -0.419 S  
HETATM   22  F   UNL     1      -9.685   8.091  69.444  1.00  0.00    -0.164 F  
HETATM   23  O   UNL     1     -11.469  11.063  63.173  1.00  0.00     0.245 OA 
HETATM   24  H   UNL     1     -12.666  13.154  64.497  1.00  0.00     0.000 HD 
BRANCH  14  25
HETATM   25  C   UNL     1     -12.095  14.583  66.579  1.00  0.00    -0.330 C  
BRANCH  25  26
HETATM   26  C   UNL     1     -11.459  15.481  67.613  1.00  0.00    -0.211 A  
HETATM   27  C   UNL     1     -11.750  15.329  68.976  1.00  0.00    -0.368 A  
HETATM   28  C   UNL     1     -11.250  16.238  69.908  1.00  0.00    -0.319 A  
HETATM   29  C   UNL     1     -10.433  17.286  69.490  1.00  0.00    -0.054 A  
HETATM   30  C   UNL     1     -10.086  17.408  68.147  1.00  0.00    -0.328 A  
HETATM   31  C   UNL     1     -10.593  16.507  67.211  1.00  0.00    -0.285 A  
ENDBRANCH  25  26
ENDBRANCH  14  25
ENDBRANCH   4   7
TORSDOF 3
ENDMDL
MODEL      138
REMARK 921   NORMALIZED FREE ENERGY PREDICTED BY IDOCK:   -3.68 KCAL/MOL
REMARK 922        TOTAL FREE ENERGY PREDICTED BY IDOCK:   -4.46 KCAL/MOL
REMARK 923 INTER-LIGAND FREE ENERGY PREDICTED BY IDOCK:   -5.02 KCAL/MOL
REMARK 924 INTRA-LIGAND FREE ENERGY PREDICTED BY IDOCK:    0.56 KCAL/MOL
REMARK 927      BINDING AFFINITY PREDICTED BY RF-SCORE:    0.00 PKD
ROOT
HETATM    1  N   UNL     1      -9.104   6.380  69.485  1.00  0.00    -0.138 N  
HETATM    2  H1  UNL     1      -9.958   6.760  69.892  1.00  0.00     0.000 HD 
HETATM    3  H2  UNL     1      -8.438   5.774  69.963  1.00  0.00     0.000 HD 
HETATM    4  S   UNL     1      -8.970   6.913  67.901  1.00  0.00    -0.119 S  
HETATM    5  O   UNL     1     -10.270   6.667  67.325  1.00  0.00    -0.156 OA 
HETATM    6  O   UNL     1      -7.764   6.377  67.326  1.00  0.00    -0.097 OA 
ENDROOT
BRANCH   4   7
HETATM    7  C   UNL     1      -8.765   8.664  68.125  1.00  0.00    -0.142 A  
HETATM    8  C   UNL     1      -9.850   9.465  67.761  1.00  0.00    -0.207 A  
HETATM    9  C   UNL     1      -9.810  10.841  67.983  1.00  0.00    -0.165 A  
HETATM   10  C   UNL     1      -8.712  11.473  68.555  1.00  0.00    -0.138 A  
HETATM   11  C   UNL     1      -7.631  10.652  68.919  1.00  0.00    -0.113 A  
HETATM   12  N   UNL     1      -8.713  12.823  68.915  1.00  0.00    -0.346 NA 
HETATM   13  H   UNL     1      -8.091  13.171  69.645  1.00  0.00     0.000 HD 
HETATM   14  C   UNL     1      -9.628  13.721  68.218  1.00  0.00    -0.219 C  
HETATM   15  C   UNL     1      -7.621   9.241  68.696  1.00  0.00    -0.081 A  
HETATM   16  N   UNL     1     -10.990  13.228  68.378  1.00  0.00    -0.254 N  
HETATM   17  O   UNL     1     -11.138  12.097  66.153  1.00  0.00    -0.285 OA 
HETATM   18  C   UNL     1      -6.366   8.501  69.104  1.00  0.00    -0.043 C  
HETATM   19  F   UNL     1      -6.364   7.152  68.975  1.00  0.00    -0.030 F  
HETATM   20  F   UNL     1      -5.282   8.935  68.398  1.00  0.00    -0.032 F  
HETATM   21  S   UNL     1     -11.223  11.783  67.561  1.00  0.00    -0.308 S  
HETATM   22  F   UNL     1      -6.053   8.729  70.413  1.00  0.00    -0.032 F  
HETATM   23  O   UNL     1     -12.395  11.160  68.130  1.00  0.00    -0.469 OA 
HETATM   24  H   UNL     1     -11.713  13.703  68.920  1.00  0.00     0.000 HD 
BRANCH  14  25
HETATM   25  C   UNL     1      -9.569  15.151  68.813  1.00  0.00    -0.219 C  
BRANCH  25  26
HETATM   26  C   UNL     1      -8.516  16.027  68.177  1.00  0.00    -0.169 A  
HETATM   27  C   UNL     1      -7.533  16.654  68.956  1.00  0.00    -0.232 A  
HETATM   28  C   UNL     1      -6.641  17.554  68.374  1.00  0.00    -0.190 A  
HETATM   29  C   UNL     1      -6.704  17.810  67.006  1.00  0.00    -0.200 A  
HETATM   30  C   UNL     1      -7.635  17.144  66.213  1.00  0.00    -0.352 A  
HETATM   31  C   UNL     1      -8.535  16.253  66.794  1.00  0.00    -0.283 A  
ENDBRANCH  25  26
ENDBRANCH  14  25
ENDBRANCH   4   7
TORSDOF 3
ENDMDL
MODEL      139
REMARK 921   NORMALIZED FREE ENERGY PREDICTED BY IDOCK:   -3.67 KCAL/MOL
REMARK 922        TOTAL FREE ENERGY PREDICTED BY IDOCK:   -4.45 KCAL/MOL
REMARK 923 INTER-LIGAND FREE ENERGY PREDICTED BY IDOCK:   -5.50 KCAL/MOL
REMARK 924 INTRA-LIGAND FREE ENERGY PREDICTED BY IDOCK:    1.04 KCAL/MOL
REMARK 927      BINDING AFFINITY PREDICTED BY RF-SCORE:    0.00 PKD
ROOT
HETATM    1  N   UNL     1     -10.314   5.995  67.906  1.00  0.00    -0.182 N  
HETATM    2  H1  UNL     1     -10.320   6.386  66.963  1.00  0.00     0.000 HD 
HETATM    3  H2  UNL     1     -11.070   5.458  68.330  1.00  0.00     0.000 HD 
HETATM    4  S   UNL     1      -8.859   6.379  68.645  1.00  0.00    -0.119 S  
HETATM    5  O   UNL     1      -7.854   6.039  67.667  1.00  0.00    -0.099 OA 
HETATM    6  O   UNL     1      -8.849   5.828  69.975  1.00  0.00    -0.132 OA 
ENDROOT
BRANCH   4   7
HETATM    7  C   UNL     1      -8.969   8.149  68.763  1.00  0.00    -0.144 A  
HETATM    8  C   UNL     1      -8.168   8.878  67.880  1.00  0.00    -0.110 A  
HETATM    9  C   UNL     1      -8.255  10.269  67.843  1.00  0.00    -0.109 A  
HETATM   10  C   UNL     1      -9.113  10.986  68.668  1.00  0.00    -0.174 A  
HETATM   11  C   UNL     1      -9.914  10.237  69.548  1.00  0.00    -0.252 A  
HETATM   12  N   UNL     1      -9.316  12.363  68.544  1.00  0.00    -0.367 NA 
HETATM   13  H   UNL     1     -10.181  12.797  68.867  1.00  0.00     0.000 HD 
HETATM   14  C   UNL     1      -8.256  13.163  67.939  1.00  0.00    -0.162 C  
HETATM   15  C   UNL     1      -9.848   8.813  69.632  1.00  0.00    -0.183 A  
HETATM   16  N   UNL     1      -7.972  12.644  66.606  1.00  0.00    -0.393 N  
HETATM   17  O   UNL     1      -5.959  11.308  67.255  1.00  0.00    -0.055 OA 
HETATM   18  C   UNL     1     -10.744   8.154  70.658  1.00  0.00    -0.224 C  
HETATM   19  F   UNL     1     -10.756   6.799  70.701  1.00  0.00    -0.231 F  
HETATM   20  F   UNL     1     -10.427   8.555  71.923  1.00  0.00    -0.282 F  
HETATM   21  S   UNL     1      -7.271  11.123  66.675  1.00  0.00    -0.127 S  
HETATM   22  F   UNL     1     -12.050   8.512  70.487  1.00  0.00    -0.208 F  
HETATM   23  O   UNL     1      -7.446  10.518  65.375  1.00  0.00    -0.145 OA 
HETATM   24  H   UNL     1      -8.174  13.143  65.740  1.00  0.00     0.000 HD 
BRANCH  14  25
HETATM   25  C   UNL     1      -8.691  14.643  67.787  1.00  0.00    -0.172 C  
BRANCH  25  26
HETATM   26  C   UNL     1      -9.931  14.992  68.574  1.00  0.00    -0.219 A  
HETATM   27  C   UNL     1      -9.860  15.826  69.698  1.00  0.00    -0.275 A  
HETATM   28  C   UNL     1     -10.990  16.045  70.486  1.00  0.00    -0.322 A  
HETATM   29  C   UNL     1     -12.205  15.458  70.139  1.00  0.00    -0.407 A  
HETATM   30  C   UNL     1     -12.300  14.680  68.988  1.00  0.00    -0.102 A  
HETATM   31  C   UNL     1     -11.170  14.451  68.205  1.00  0.00    -0.300 A  
ENDBRANCH  25  26
ENDBRANCH  14  25
ENDBRANCH   4   7
TORSDOF 3
ENDMDL
MODEL      140
REMARK 921   NORMALIZED FREE ENERGY PREDICTED BY IDOCK:   -3.67 KCAL/MOL
REMARK 922        TOTAL FREE ENERGY PREDICTED BY IDOCK:   -4.45 KCAL/MOL
REMARK 923 INTER-LIGAND FREE ENERGY PREDICTED BY IDOCK:   -4.30 KCAL/MOL
REMARK 924 INTRA-LIGAND FREE ENERGY PREDICTED BY IDOCK:   -0.15 KCAL/MOL
REMARK 927      BINDING AFFINITY PREDICTED BY RF-SCORE:    0.00 PKD
ROOT
HETATM    1  N   UNL     1     -11.636  12.703  66.810  1.00  0.00    -0.354 N  
HETATM    2  H1  UNL     1     -10.861  12.910  67.439  1.00  0.00     0.000 HD 
HETATM    3  H2  UNL     1     -12.626  12.758  67.050  1.00  0.00     0.000 HD 
HETATM    4  S   UNL     1     -11.022  12.258  65.315  1.00  0.00    -0.317 S  
HETATM    5  O   UNL     1     -10.036  13.268  65.013  1.00  0.00    -0.243 OA 
HETATM    6  O   UNL     1     -12.115  11.966  64.426  1.00  0.00    -0.300 OA 
ENDROOT
BRANCH   4   7
HETATM    7  C   UNL     1     -10.184  10.739  65.707  1.00  0.00    -0.257 A  
HETATM    8  C   UNL     1     -10.286  10.301  67.030  1.00  0.00    -0.299 A  
HETATM    9  C   UNL     1      -9.734   9.078  67.405  1.00  0.00    -0.168 A  
HETATM   10  C   UNL     1      -9.063   8.254  66.509  1.00  0.00    -0.178 A  
HETATM   11  C   UNL     1      -8.973   8.708  65.182  1.00  0.00    -0.111 A  
HETATM   12  N   UNL     1      -8.632   6.965  66.834  1.00  0.00    -0.114 NA 
HETATM   13  H   UNL     1      -8.498   6.259  66.110  1.00  0.00     0.000 HD 
HETATM   14  C   UNL     1      -8.379   6.658  68.238  1.00  0.00    -0.117 C  
HETATM   15  C   UNL     1      -9.508   9.962  64.755  1.00  0.00    -0.356 A  
HETATM   16  N   UNL     1      -9.591   6.918  69.006  1.00  0.00    -0.137 N  
HETATM   17  O   UNL     1      -8.903   9.168  69.854  1.00  0.00    -0.143 OA 
HETATM   18  C   UNL     1      -9.294  10.329  63.303  1.00  0.00    -0.306 C  
HETATM   19  F   UNL     1      -9.862  11.476  62.856  1.00  0.00    -0.337 F  
HETATM   20  F   UNL     1      -7.966  10.443  63.010  1.00  0.00    -0.145 F  
HETATM   21  S   UNL     1      -9.946   8.555  69.062  1.00  0.00    -0.198 S  
HETATM   22  F   UNL     1      -9.761   9.357  62.466  1.00  0.00    -0.068 F  
HETATM   23  O   UNL     1     -11.340   8.673  69.422  1.00  0.00     0.105 OA 
HETATM   24  H   UNL     1     -10.153   6.193  69.454  1.00  0.00     0.000 HD 
BRANCH  14  25
HETATM   25  C   UNL     1      -8.011   5.164  68.425  1.00  0.00    -0.087 C  
BRANCH  25  26
HETATM   26  C   UNL     1      -6.971   4.928  69.495  1.00  0.00    -0.054 A  
HETATM   27  C   UNL     1      -6.266   3.718  69.559  1.00  0.00    -0.028 A  
HETATM   28  C   UNL     1      -5.396   3.465  70.619  1.00  0.00    -0.008 A  
HETATM   29  C   UNL     1      -5.201   4.430  71.606  1.00  0.00    -0.003 A  
HETATM   30  C   UNL     1      -5.849   5.660  71.516  1.00  0.00    -0.025 A  
HETATM   31  C   UNL     1      -6.728   5.911  70.463  1.00  0.00    -0.052 A  
ENDBRANCH  25  26
ENDBRANCH  14  25
ENDBRANCH   4   7
TORSDOF 3
ENDMDL
MODEL      141
REMARK 921   NORMALIZED FREE ENERGY PREDICTED BY IDOCK:   -3.63 KCAL/MOL
REMARK 922        TOTAL FREE ENERGY PREDICTED BY IDOCK:   -4.41 KCAL/MOL
REMARK 923 INTER-LIGAND FREE ENERGY PREDICTED BY IDOCK:   -4.95 KCAL/MOL
REMARK 924 INTRA-LIGAND FREE ENERGY PREDICTED BY IDOCK:    0.54 KCAL/MOL
REMARK 927      BINDING AFFINITY PREDICTED BY RF-SCORE:    0.00 PKD
ROOT
HETATM    1  N   UNL     1      -7.114   6.958  68.924  1.00  0.00    -0.086 N  
HETATM    2  H1  UNL     1      -6.618   7.293  68.098  1.00  0.00     0.000 HD 
HETATM    3  H2  UNL     1      -7.646   6.091  68.985  1.00  0.00     0.000 HD 
HETATM    4  S   UNL     1      -6.912   8.065  70.168  1.00  0.00    -0.049 S  
HETATM    5  O   UNL     1      -5.495   8.341  70.181  1.00  0.00    -0.023 OA 
HETATM    6  O   UNL     1      -7.611   7.592  71.334  1.00  0.00    -0.077 OA 
ENDROOT
BRANCH   4   7
HETATM    7  C   UNL     1      -7.766   9.487  69.528  1.00  0.00    -0.100 A  
HETATM    8  C   UNL     1      -6.986  10.620  69.288  1.00  0.00    -0.096 A  
HETATM    9  C   UNL     1      -7.556  11.751  68.707  1.00  0.00    -0.104 A  
HETATM   10  C   UNL     1      -8.899  11.813  68.353  1.00  0.00    -0.161 A  
HETATM   11  C   UNL     1      -9.669  10.663  68.598  1.00  0.00    -0.178 A  
HETATM   12  N   UNL     1      -9.451  12.881  67.641  1.00  0.00    -0.190 NA 
HETATM   13  H   UNL     1     -10.291  12.756  67.076  1.00  0.00     0.000 HD 
HETATM   14  C   UNL     1      -8.792  14.180  67.728  1.00  0.00    -0.185 C  
HETATM   15  C   UNL     1      -9.132   9.487  69.207  1.00  0.00    -0.161 A  
HETATM   16  N   UNL     1      -7.407  14.039  67.296  1.00  0.00    -0.322 N  
HETATM   17  O   UNL     1      -6.415  13.900  69.587  1.00  0.00    -0.120 OA 
HETATM   18  C   UNL     1     -10.098   8.347  69.443  1.00  0.00    -0.198 C  
HETATM   19  F   UNL     1      -9.594   7.194  69.946  1.00  0.00    -0.162 F  
HETATM   20  F   UNL     1     -11.096   8.711  70.299  1.00  0.00    -0.241 F  
HETATM   21  S   UNL     1      -6.515  13.118  68.375  1.00  0.00    -0.099 S  
HETATM   22  F   UNL     1     -10.732   7.981  68.292  1.00  0.00    -0.234 F  
HETATM   23  O   UNL     1      -5.340  12.660  67.670  1.00  0.00    -0.105 OA 
HETATM   24  H   UNL     1      -7.027  14.450  66.442  1.00  0.00     0.000 HD 
BRANCH  14  25
HETATM   25  C   UNL     1      -9.475  15.216  66.799  1.00  0.00    -0.260 C  
BRANCH  25  26
HETATM   26  C   UNL     1      -9.096  16.646  67.108  1.00  0.00    -0.227 A  
HETATM   27  C   UNL     1      -9.566  17.281  68.266  1.00  0.00    -0.288 A  
HETATM   28  C   UNL     1      -9.309  18.634  68.480  1.00  0.00    -0.379 A  
HETATM   29  C   UNL     1      -8.556  19.355  67.555  1.00  0.00    -0.338 A  
HETATM   30  C   UNL     1      -8.031  18.717  66.434  1.00  0.00    -0.298 A  
HETATM   31  C   UNL     1      -8.296  17.366  66.212  1.00  0.00    -0.271 A  
ENDBRANCH  25  26
ENDBRANCH  14  25
ENDBRANCH   4   7
TORSDOF 3
ENDMDL
MODEL      142
REMARK 921   NORMALIZED FREE ENERGY PREDICTED BY IDOCK:   -3.63 KCAL/MOL
REMARK 922        TOTAL FREE ENERGY PREDICTED BY IDOCK:   -4.40 KCAL/MOL
REMARK 923 INTER-LIGAND FREE ENERGY PREDICTED BY IDOCK:   -4.48 KCAL/MOL
REMARK 924 INTRA-LIGAND FREE ENERGY PREDICTED BY IDOCK:    0.08 KCAL/MOL
REMARK 927      BINDING AFFINITY PREDICTED BY RF-SCORE:    0.00 PKD
ROOT
HETATM    1  N   UNL     1      -7.241  11.907  66.299  1.00  0.00    -0.274 N  
HETATM    2  H1  UNL     1      -7.625  11.486  65.453  1.00  0.00     0.000 HD 
HETATM    3  H2  UNL     1      -6.252  12.085  66.475  1.00  0.00     0.000 HD 
HETATM    4  S   UNL     1      -8.496  12.257  67.354  1.00  0.00    -0.185 S  
HETATM    5  O   UNL     1      -9.477  12.932  66.539  1.00  0.00    -0.252 OA 
HETATM    6  O   UNL     1      -7.953  12.850  68.548  1.00  0.00    -0.144 OA 
ENDROOT
BRANCH   4   7
HETATM    7  C   UNL     1      -9.100  10.632  67.749  1.00  0.00    -0.143 A  
HETATM    8  C   UNL     1      -8.387   9.559  67.207  1.00  0.00    -0.125 A  
HETATM    9  C   UNL     1      -8.738   8.251  67.534  1.00  0.00    -0.129 A  
HETATM   10  C   UNL     1      -9.793   7.951  68.388  1.00  0.00    -0.173 A  
HETATM   11  C   UNL     1     -10.496   9.042  68.927  1.00  0.00    -0.231 A  
HETATM   12  N   UNL     1     -10.065   6.657  68.838  1.00  0.00    -0.159 NA 
HETATM   13  H   UNL     1     -10.562   6.500  69.715  1.00  0.00     0.000 HD 
HETATM   14  C   UNL     1      -9.618   5.535  68.019  1.00  0.00    -0.125 C  
HETATM   15  C   UNL     1     -10.184  10.399  68.607  1.00  0.00    -0.196 A  
HETATM   16  N   UNL     1      -8.176   5.634  67.826  1.00  0.00    -0.101 N  
HETATM   17  O   UNL     1      -8.272   6.661  65.548  1.00  0.00    -0.128 OA 
HETATM   18  C   UNL     1     -11.060  11.460  69.236  1.00  0.00    -0.254 C  
HETATM   19  F   UNL     1     -10.734  12.756  69.010  1.00  0.00    -0.243 F  
HETATM   20  F   UNL     1     -12.357  11.337  68.830  1.00  0.00    -0.385 F  
HETATM   21  S   UNL     1      -7.771   6.951  66.872  1.00  0.00    -0.101 S  
HETATM   22  F   UNL     1     -11.099  11.339  70.595  1.00  0.00    -0.159 F  
HETATM   23  O   UNL     1      -6.374   7.231  67.109  1.00  0.00    -0.047 OA 
HETATM   24  H   UNL     1      -7.498   4.982  68.222  1.00  0.00     0.000 HD 
BRANCH  14  25
HETATM   25  C   UNL     1      -9.910   4.182  68.717  1.00  0.00    -0.087 C  
BRANCH  25  26
HETATM   26  C   UNL     1      -9.313   4.075  70.100  1.00  0.00    -0.240 A  
HETATM   27  C   UNL     1      -9.903   4.727  71.191  1.00  0.00    -0.260 A  
HETATM   28  C   UNL     1      -9.279   4.719  72.438  1.00  0.00    -0.149 A  
HETATM   29  C   UNL     1      -8.078   4.034  72.611  1.00  0.00    -0.094 A  
HETATM   30  C   UNL     1      -7.517   3.329  71.548  1.00  0.00    -0.044 A  
HETATM   31  C   UNL     1      -8.134   3.345  70.298  1.00  0.00    -0.057 A  
ENDBRANCH  25  26
ENDBRANCH  14  25
ENDBRANCH   4   7
TORSDOF 3
ENDMDL
MODEL      143
REMARK 921   NORMALIZED FREE ENERGY PREDICTED BY IDOCK:   -3.54 KCAL/MOL
REMARK 922        TOTAL FREE ENERGY PREDICTED BY IDOCK:   -4.30 KCAL/MOL
REMARK 923 INTER-LIGAND FREE ENERGY PREDICTED BY IDOCK:   -4.83 KCAL/MOL
REMARK 924 INTRA-LIGAND FREE ENERGY PREDICTED BY IDOCK:    0.54 KCAL/MOL
REMARK 927      BINDING AFFINITY PREDICTED BY RF-SCORE:    0.00 PKD
ROOT
HETATM    1  N   UNL     1     -10.576  13.974  65.310  1.00  0.00    -0.341 N  
HETATM    2  H1  UNL     1      -9.579  13.908  65.108  1.00  0.00     0.000 HD 
HETATM    3  H2  UNL     1     -11.083  14.834  65.518  1.00  0.00     0.000 HD 
HETATM    4  S   UNL     1     -11.250  12.440  65.245  1.00  0.00    -0.329 S  
HETATM    5  O   UNL     1     -10.753  11.878  64.012  1.00  0.00    -0.307 OA 
HETATM    6  O   UNL     1     -12.658  12.534  65.530  1.00  0.00    -0.642 OA 
ENDROOT
BRANCH   4   7
HETATM    7  C   UNL     1     -10.445  11.634  66.609  1.00  0.00    -0.233 A  
HETATM    8  C   UNL     1      -9.628  10.546  66.289  1.00  0.00    -0.232 A  
HETATM    9  C   UNL     1      -8.890   9.909  67.285  1.00  0.00    -0.132 A  
HETATM   10  C   UNL     1      -8.935  10.304  68.617  1.00  0.00    -0.144 A  
HETATM   11  C   UNL     1      -9.759  11.402  68.921  1.00  0.00    -0.105 A  
HETATM   12  N   UNL     1      -8.096   9.771  69.599  1.00  0.00    -0.137 NA 
HETATM   13  H   UNL     1      -7.870  10.303  70.440  1.00  0.00     0.000 HD 
HETATM   14  C   UNL     1      -7.552   8.434  69.388  1.00  0.00    -0.091 C  
HETATM   15  C   UNL     1     -10.546  12.075  67.936  1.00  0.00    -0.227 A  
HETATM   16  N   UNL     1      -6.815   8.415  68.129  1.00  0.00    -0.068 N  
HETATM   17  O   UNL     1      -8.637   7.389  66.758  1.00  0.00    -0.119 OA 
HETATM   18  C   UNL     1     -11.414  13.213  68.428  1.00  0.00    -0.315 C  
HETATM   19  F   UNL     1     -12.108  13.917  67.500  1.00  0.00    -0.386 F  
HETATM   20  F   UNL     1     -12.347  12.774  69.322  1.00  0.00    -0.270 F  
HETATM   21  S   UNL     1      -7.838   8.592  66.813  1.00  0.00    -0.094 S  
HETATM   22  F   UNL     1     -10.684  14.146  69.103  1.00  0.00    -0.233 F  
HETATM   23  O   UNL     1      -7.023   9.013  65.698  1.00  0.00    -0.078 OA 
HETATM   24  H   UNL     1      -5.803   8.308  68.059  1.00  0.00     0.000 HD 
BRANCH  14  25
HETATM   25  C   UNL     1      -6.567   8.047  70.519  1.00  0.00    -0.037 C  
BRANCH  25  26
HETATM   26  C   UNL     1      -6.628   6.586  70.899  1.00  0.00    -0.053 A  
HETATM   27  C   UNL     1      -5.539   5.735  70.664  1.00  0.00    -0.013 A  
HETATM   28  C   UNL     1      -5.650   4.366  70.909  1.00  0.00    -0.012 A  
HETATM   29  C   UNL     1      -6.836   3.844  71.419  1.00  0.00    -0.031 A  
HETATM   30  C   UNL     1      -7.901   4.691  71.716  1.00  0.00    -0.098 A  
HETATM   31  C   UNL     1      -7.797   6.058  71.461  1.00  0.00    -0.106 A  
ENDBRANCH  25  26
ENDBRANCH  14  25
ENDBRANCH   4   7
TORSDOF 3
ENDMDL
MODEL      144
REMARK 921   NORMALIZED FREE ENERGY PREDICTED BY IDOCK:   -3.43 KCAL/MOL
REMARK 922        TOTAL FREE ENERGY PREDICTED BY IDOCK:   -4.17 KCAL/MOL
REMARK 923 INTER-LIGAND FREE ENERGY PREDICTED BY IDOCK:   -3.99 KCAL/MOL
REMARK 924 INTRA-LIGAND FREE ENERGY PREDICTED BY IDOCK:   -0.17 KCAL/MOL
REMARK 927      BINDING AFFINITY PREDICTED BY RF-SCORE:    0.00 PKD
ROOT
HETATM    1  N   UNL     1      -8.459   8.141  63.280  1.00  0.00    -0.399 N  
HETATM    2  H1  UNL     1      -7.918   8.948  63.592  1.00  0.00     0.000 HD 
HETATM    3  H2  UNL     1      -9.285   8.177  62.683  1.00  0.00     0.000 HD 
HETATM    4  S   UNL     1      -7.771   6.747  63.907  1.00  0.00    -0.105 S  
HETATM    5  O   UNL     1      -6.361   6.881  63.627  1.00  0.00    -0.041 OA 
HETATM    6  O   UNL     1      -8.534   5.609  63.467  1.00  0.00    -0.087 OA 
ENDROOT
BRANCH   4   7
HETATM    7  C   UNL     1      -8.032   6.968  65.652  1.00  0.00    -0.123 A  
HETATM    8  C   UNL     1      -8.648   8.161  66.038  1.00  0.00    -0.165 A  
HETATM    9  C   UNL     1      -8.970   8.380  67.376  1.00  0.00    -0.134 A  
HETATM   10  C   UNL     1      -8.693   7.451  68.373  1.00  0.00    -0.123 A  
HETATM   11  C   UNL     1      -8.077   6.255  67.966  1.00  0.00    -0.115 A  
HETATM   12  N   UNL     1      -9.137   7.592  69.690  1.00  0.00    -0.147 NA 
HETATM   13  H   UNL     1      -9.264   6.778  70.291  1.00  0.00     0.000 HD 
HETATM   14  C   UNL     1      -9.414   8.938  70.183  1.00  0.00    -0.180 C  
HETATM   15  C   UNL     1      -7.714   5.994  66.610  1.00  0.00    -0.103 A  
HETATM   16  N   UNL     1     -10.409   9.563  69.320  1.00  0.00    -0.200 N  
HETATM   17  O   UNL     1      -8.792  10.895  67.955  1.00  0.00    -0.130 OA 
HETATM   18  C   UNL     1      -7.019   4.678  66.337  1.00  0.00    -0.066 C  
HETATM   19  F   UNL     1      -6.737   4.373  65.047  1.00  0.00    -0.043 F  
HETATM   20  F   UNL     1      -5.828   4.600  66.998  1.00  0.00    -0.019 F  
HETATM   21  S   UNL     1      -9.795   9.867  67.790  1.00  0.00    -0.161 S  
HETATM   22  F   UNL     1      -7.750   3.620  66.796  1.00  0.00    -0.077 F  
HETATM   23  O   UNL     1     -10.924  10.044  66.908  1.00  0.00    -0.144 OA 
HETATM   24  H   UNL     1     -11.361   9.788  69.610  1.00  0.00     0.000 HD 
BRANCH  14  25
HETATM   25  C   UNL     1      -9.993   8.898  71.620  1.00  0.00    -0.397 C  
BRANCH  25  26
HETATM   26  C   UNL     1      -9.334   7.870  72.509  1.00  0.00    -0.258 A  
HETATM   27  C   UNL     1      -8.094   8.126  73.111  1.00  0.00    -0.237 A  
HETATM   28  C   UNL     1      -7.441   7.127  73.830  1.00  0.00    -0.114 A  
HETATM   29  C   UNL     1      -8.034   5.875  73.980  1.00  0.00    -0.104 A  
HETATM   30  C   UNL     1      -9.294   5.631  73.440  1.00  0.00    -0.134 A  
HETATM   31  C   UNL     1      -9.945   6.625  72.710  1.00  0.00    -0.187 A  
ENDBRANCH  25  26
ENDBRANCH  14  25
ENDBRANCH   4   7
TORSDOF 3
ENDMDL
MODEL      145
REMARK 921   NORMALIZED FREE ENERGY PREDICTED BY IDOCK:   -3.38 KCAL/MOL
REMARK 922        TOTAL FREE ENERGY PREDICTED BY IDOCK:   -4.11 KCAL/MOL
REMARK 923 INTER-LIGAND FREE ENERGY PREDICTED BY IDOCK:   -4.66 KCAL/MOL
REMARK 924 INTRA-LIGAND FREE ENERGY PREDICTED BY IDOCK:    0.55 KCAL/MOL
REMARK 927      BINDING AFFINITY PREDICTED BY RF-SCORE:    0.00 PKD
ROOT
HETATM    1  N   UNL     1     -10.606  15.995  66.021  1.00  0.00    -0.328 N  
HETATM    2  H1  UNL     1     -10.429  15.592  65.101  1.00  0.00     0.000 HD 
HETATM    3  H2  UNL     1     -10.364  16.943  66.309  1.00  0.00     0.000 HD 
HETATM    4  S   UNL     1     -11.361  14.849  66.984  1.00  0.00    -0.315 S  
HETATM    5  O   UNL     1     -12.422  14.324  66.159  1.00  0.00    -0.442 OA 
HETATM    6  O   UNL     1     -11.611  15.417  68.282  1.00  0.00    -0.351 OA 
ENDROOT
BRANCH   4   7
HETATM    7  C   UNL     1     -10.091  13.614  67.137  1.00  0.00    -0.245 A  
HETATM    8  C   UNL     1     -10.328  12.400  66.488  1.00  0.00    -0.248 A  
HETATM    9  C   UNL     1      -9.350  11.407  66.483  1.00  0.00    -0.189 A  
HETATM   10  C   UNL     1      -8.123  11.564  67.116  1.00  0.00    -0.159 A  
HETATM   11  C   UNL     1      -7.899  12.793  67.761  1.00  0.00    -0.156 A  
HETATM   12  N   UNL     1      -7.081  10.640  66.998  1.00  0.00    -0.095 NA 
HETATM   13  H   UNL     1      -6.110  10.925  67.130  1.00  0.00     0.000 HD 
HETATM   14  C   UNL     1      -7.420   9.257  66.681  1.00  0.00    -0.093 C  
HETATM   15  C   UNL     1      -8.878  13.833  67.806  1.00  0.00    -0.188 A  
HETATM   16  N   UNL     1      -8.170   9.228  65.431  1.00  0.00    -0.121 N  
HETATM   17  O   UNL     1     -10.437   9.059  66.472  1.00  0.00    -0.234 OA 
HETATM   18  C   UNL     1      -8.503  15.080  68.575  1.00  0.00    -0.163 C  
HETATM   19  F   UNL     1      -9.384  16.110  68.565  1.00  0.00    -0.188 F  
HETATM   20  F   UNL     1      -8.283  14.803  69.894  1.00  0.00    -0.063 F  
HETATM   21  S   UNL     1      -9.682   9.931  65.602  1.00  0.00    -0.292 S  
HETATM   22  F   UNL     1      -7.332  15.615  68.124  1.00  0.00    -0.108 F  
HETATM   23  O   UNL     1     -10.145  10.265  64.275  1.00  0.00    -0.310 OA 
HETATM   24  H   UNL     1      -7.819   8.828  64.560  1.00  0.00     0.000 HD 
BRANCH  14  25
HETATM   25  C   UNL     1      -6.144   8.399  66.487  1.00  0.00    -0.053 C  
BRANCH  25  26
HETATM   26  C   UNL     1      -6.398   6.912  66.568  1.00  0.00    -0.049 A  
HETATM   27  C   UNL     1      -6.304   6.103  65.427  1.00  0.00    -0.038 A  
HETATM   28  C   UNL     1      -6.656   4.755  65.490  1.00  0.00    -0.041 A  
HETATM   29  C   UNL     1      -7.075   4.199  66.697  1.00  0.00    -0.060 A  
HETATM   30  C   UNL     1      -7.110   4.981  67.850  1.00  0.00    -0.062 A  
HETATM   31  C   UNL     1      -6.769   6.331  67.788  1.00  0.00    -0.064 A  
ENDBRANCH  25  26
ENDBRANCH  14  25
ENDBRANCH   4   7
TORSDOF 3
ENDMDL
MODEL      146
REMARK 921   NORMALIZED FREE ENERGY PREDICTED BY IDOCK:   -3.34 KCAL/MOL
REMARK 922        TOTAL FREE ENERGY PREDICTED BY IDOCK:   -4.06 KCAL/MOL
REMARK 923 INTER-LIGAND FREE ENERGY PREDICTED BY IDOCK:   -4.54 KCAL/MOL
REMARK 924 INTRA-LIGAND FREE ENERGY PREDICTED BY IDOCK:    0.48 KCAL/MOL
REMARK 927      BINDING AFFINITY PREDICTED BY RF-SCORE:    0.00 PKD
ROOT
HETATM    1  N   UNL     1     -10.945  11.631  67.281  1.00  0.00    -0.251 N  
HETATM    2  H1  UNL     1     -10.441  11.728  68.162  1.00  0.00     0.000 HD 
HETATM    3  H2  UNL     1     -11.936  11.828  67.140  1.00  0.00     0.000 HD 
HETATM    4  S   UNL     1      -9.883  11.094  66.100  1.00  0.00    -0.235 S  
HETATM    5  O   UNL     1      -8.729  11.952  66.234  1.00  0.00    -0.167 OA 
HETATM    6  O   UNL     1     -10.594  10.956  64.856  1.00  0.00    -0.302 OA 
ENDROOT
BRANCH   4   7
HETATM    7  C   UNL     1      -9.465   9.474  66.700  1.00  0.00    -0.170 A  
HETATM    8  C   UNL     1     -10.035   9.100  67.920  1.00  0.00    -0.228 A  
HETATM    9  C   UNL     1      -9.831   7.816  68.422  1.00  0.00    -0.168 A  
HETATM   10  C   UNL     1      -9.062   6.867  67.759  1.00  0.00    -0.118 A  
HETATM   11  C   UNL     1      -8.499   7.258  66.532  1.00  0.00    -0.125 A  
HETATM   12  N   UNL     1      -8.968   5.537  68.176  1.00  0.00    -0.108 NA 
HETATM   13  H   UNL     1      -8.736   4.796  67.514  1.00  0.00     0.000 HD 
HETATM   14  C   UNL     1      -9.208   5.237  69.583  1.00  0.00    -0.118 C  
HETATM   15  C   UNL     1      -8.667   8.568  65.986  1.00  0.00    -0.188 A  
HETATM   16  N   UNL     1     -10.537   5.714  69.949  1.00  0.00    -0.309 N  
HETATM   17  O   UNL     1      -9.784   7.849  71.009  1.00  0.00    -0.160 OA 
HETATM   18  C   UNL     1      -7.963   8.849  64.676  1.00  0.00    -0.132 C  
HETATM   19  F   UNL     1      -8.172  10.058  64.100  1.00  0.00    -0.132 F  
HETATM   20  F   UNL     1      -6.609   8.738  64.806  1.00  0.00    -0.064 F  
HETATM   21  S   UNL     1     -10.621   7.387  69.925  1.00  0.00    -0.239 S  
HETATM   22  F   UNL     1      -8.305   7.939  63.718  1.00  0.00    -0.135 F  
HETATM   23  O   UNL     1     -12.019   7.740  69.843  1.00  0.00     0.317 OA 
HETATM   24  H   UNL     1     -11.319   5.104  70.189  1.00  0.00     0.000 HD 
BRANCH  14  25
HETATM   25  C   UNL     1      -9.164   3.711  69.845  1.00  0.00    -0.215 C  
BRANCH  25  26
HETATM   26  C   UNL     1      -9.687   3.316  71.206  1.00  0.00    -0.222 A  
HETATM   27  C   UNL     1     -10.044   1.989  71.483  1.00  0.00    -0.070 A  
HETATM   28  C   UNL     1     -10.637   1.659  72.702  1.00  0.00    -0.232 A  
HETATM   29  C   UNL     1     -10.848   2.645  73.663  1.00  0.00    -0.289 A  
HETATM   30  C   UNL     1     -10.438   3.955  73.421  1.00  0.00    -0.254 A  
HETATM   31  C   UNL     1      -9.856   4.289  72.200  1.00  0.00    -0.231 A  
ENDBRANCH  25  26
ENDBRANCH  14  25
ENDBRANCH   4   7
TORSDOF 3
ENDMDL
MODEL      147
REMARK 921   NORMALIZED FREE ENERGY PREDICTED BY IDOCK:   -3.29 KCAL/MOL
REMARK 922        TOTAL FREE ENERGY PREDICTED BY IDOCK:   -4.00 KCAL/MOL
REMARK 923 INTER-LIGAND FREE ENERGY PREDICTED BY IDOCK:   -4.74 KCAL/MOL
REMARK 924 INTRA-LIGAND FREE ENERGY PREDICTED BY IDOCK:    0.74 KCAL/MOL
REMARK 927      BINDING AFFINITY PREDICTED BY RF-SCORE:    0.00 PKD
ROOT
HETATM    1  N   UNL     1      -9.602   2.015  72.208  1.00  0.00    -0.093 N  
HETATM    2  H1  UNL     1      -8.627   1.944  71.914  1.00  0.00     0.000 HD 
HETATM    3  H2  UNL     1     -10.365   1.425  71.876  1.00  0.00     0.000 HD 
HETATM    4  S   UNL     1      -9.747   3.256  73.325  1.00  0.00    -0.111 S  
HETATM    5  O   UNL     1      -8.676   3.026  74.265  1.00  0.00    -0.078 OA 
HETATM    6  O   UNL     1     -11.121   3.356  73.740  1.00  0.00    -0.225 OA 
ENDROOT
BRANCH   4   7
HETATM    7  C   UNL     1      -9.345   4.679  72.337  1.00  0.00    -0.130 A  
HETATM    8  C   UNL     1     -10.330   5.667  72.248  1.00  0.00    -0.250 A  
HETATM    9  C   UNL     1     -10.069   6.854  71.567  1.00  0.00    -0.184 A  
HETATM   10  C   UNL     1      -8.851   7.108  70.948  1.00  0.00    -0.150 A  
HETATM   11  C   UNL     1      -7.871   6.106  71.050  1.00  0.00    -0.114 A  
HETATM   12  N   UNL     1      -8.524   8.346  70.387  1.00  0.00    -0.125 NA 
HETATM   13  H   UNL     1      -7.551   8.637  70.289  1.00  0.00     0.000 HD 
HETATM   14  C   UNL     1      -9.613   9.211  69.947  1.00  0.00    -0.192 C  
HETATM   15  C   UNL     1      -8.098   4.867  71.724  1.00  0.00    -0.113 A  
HETATM   16  N   UNL     1     -10.502   9.466  71.074  1.00  0.00    -0.307 N  
HETATM   17  O   UNL     1     -12.225   7.760  70.459  1.00  0.00    -0.040 OA 
HETATM   18  C   UNL     1      -6.959   3.872  71.712  1.00  0.00    -0.027 C  
HETATM   19  F   UNL     1      -7.123   2.723  72.412  1.00  0.00    -0.027 F  
HETATM   20  F   UNL     1      -6.653   3.482  70.440  1.00  0.00    -0.029 F  
HETATM   21  S   UNL     1     -11.320   8.079  71.541  1.00  0.00    -0.270 S  
HETATM   22  F   UNL     1      -5.809   4.420  72.202  1.00  0.00    -0.010 F  
HETATM   23  O   UNL     1     -11.795   8.300  72.886  1.00  0.00    -0.337 OA 
HETATM   24  H   UNL     1     -10.613  10.375  71.524  1.00  0.00     0.000 HD 
BRANCH  14  25
HETATM   25  C   UNL     1      -9.076  10.577  69.450  1.00  0.00    -0.123 C  
BRANCH  25  26
HETATM   26  C   UNL     1      -9.945  11.220  68.394  1.00  0.00    -0.201 A  
HETATM   27  C   UNL     1     -10.790  12.292  68.712  1.00  0.00    -0.266 A  
HETATM   28  C   UNL     1     -11.673  12.799  67.759  1.00  0.00    -0.412 A  
HETATM   29  C   UNL     1     -11.696  12.259  66.474  1.00  0.00    -0.420 A  
HETATM   30  C   UNL     1     -10.815  11.237  66.131  1.00  0.00    -0.281 A  
HETATM   31  C   UNL     1      -9.939  10.721  67.085  1.00  0.00    -0.230 A  
ENDBRANCH  25  26
ENDBRANCH  14  25
ENDBRANCH   4   7
TORSDOF 3
ENDMDL
MODEL      148
REMARK 921   NORMALIZED FREE ENERGY PREDICTED BY IDOCK:   -3.26 KCAL/MOL
REMARK 922        TOTAL FREE ENERGY PREDICTED BY IDOCK:   -3.97 KCAL/MOL
REMARK 923 INTER-LIGAND FREE ENERGY PREDICTED BY IDOCK:   -4.47 KCAL/MOL
REMARK 924 INTRA-LIGAND FREE ENERGY PREDICTED BY IDOCK:    0.50 KCAL/MOL
REMARK 927      BINDING AFFINITY PREDICTED BY RF-SCORE:    0.00 PKD
ROOT
HETATM    1  N   UNL     1     -11.212   4.617  73.090  1.00  0.00    -0.288 N  
HETATM    2  H1  UNL     1     -10.842   3.850  72.527  1.00  0.00     0.000 HD 
HETATM    3  H2  UNL     1     -12.200   4.796  73.271  1.00  0.00     0.000 HD 
HETATM    4  S   UNL     1      -9.935   5.534  73.669  1.00  0.00    -0.196 S  
HETATM    5  O   UNL     1      -9.007   4.568  74.205  1.00  0.00    -0.108 OA 
HETATM    6  O   UNL     1     -10.456   6.616  74.463  1.00  0.00    -0.254 OA 
ENDROOT
BRANCH   4   7
HETATM    7  C   UNL     1      -9.261   6.205  72.167  1.00  0.00    -0.141 A  
HETATM    8  C   UNL     1      -9.940   5.885  70.988  1.00  0.00    -0.239 A  
HETATM    9  C   UNL     1      -9.533   6.437  69.775  1.00  0.00    -0.152 A  
HETATM   10  C   UNL     1      -8.451   7.304  69.674  1.00  0.00    -0.133 A  
HETATM   11  C   UNL     1      -7.782   7.619  70.870  1.00  0.00    -0.088 A  
HETATM   12  N   UNL     1      -8.121   7.977  68.494  1.00  0.00    -0.124 NA 
HETATM   13  H   UNL     1      -7.603   8.855  68.519  1.00  0.00     0.000 HD 
HETATM   14  C   UNL     1      -8.538   7.387  67.227  1.00  0.00    -0.118 C  
HETATM   15  C   UNL     1      -8.153   7.065  72.133  1.00  0.00    -0.093 A  
HETATM   16  N   UNL     1      -9.986   7.214  67.238  1.00  0.00    -0.169 N  
HETATM   17  O   UNL     1      -9.970   4.785  67.832  1.00  0.00    -0.152 OA 
HETATM   18  C   UNL     1      -7.308   7.467  73.322  1.00  0.00    -0.084 C  
HETATM   19  F   UNL     1      -7.689   7.017  74.542  1.00  0.00    -0.112 F  
HETATM   20  F   UNL     1      -6.014   7.060  73.172  1.00  0.00    -0.053 F  
HETATM   21  S   UNL     1     -10.459   6.047  68.342  1.00  0.00    -0.262 S  
HETATM   22  F   UNL     1      -7.241   8.824  73.453  1.00  0.00    -0.115 F  
HETATM   23  O   UNL     1     -11.862   6.262  68.612  1.00  0.00     0.319 OA 
HETATM   24  H   UNL     1     -10.631   7.739  66.646  1.00  0.00     0.000 HD 
BRANCH  14  25
HETATM   25  C   UNL     1      -8.181   8.312  66.036  1.00  0.00    -0.119 C  
BRANCH  25  26
HETATM   26  C   UNL     1      -9.121   9.484  65.878  1.00  0.00    -0.230 A  
HETATM   27  C   UNL     1      -9.665  10.127  66.998  1.00  0.00    -0.224 A  
HETATM   28  C   UNL     1     -10.622  11.129  66.840  1.00  0.00    -0.304 A  
HETATM   29  C   UNL     1     -11.021  11.516  65.562  1.00  0.00    -0.290 A  
HETATM   30  C   UNL     1     -10.439  10.926  64.442  1.00  0.00    -0.403 A  
HETATM   31  C   UNL     1      -9.490   9.917  64.598  1.00  0.00    -0.343 A  
ENDBRANCH  25  26
ENDBRANCH  14  25
ENDBRANCH   4   7
TORSDOF 3
ENDMDL
MODEL      149
REMARK 921   NORMALIZED FREE ENERGY PREDICTED BY IDOCK:   -3.20 KCAL/MOL
REMARK 922        TOTAL FREE ENERGY PREDICTED BY IDOCK:   -3.90 KCAL/MOL
REMARK 923 INTER-LIGAND FREE ENERGY PREDICTED BY IDOCK:   -4.51 KCAL/MOL
REMARK 924 INTRA-LIGAND FREE ENERGY PREDICTED BY IDOCK:    0.61 KCAL/MOL
REMARK 927      BINDING AFFINITY PREDICTED BY RF-SCORE:    0.00 PKD
ROOT
HETATM    1  N   UNL     1     -11.585   6.293  71.830  1.00  0.00    -0.310 N  
HETATM    2  H1  UNL     1     -11.300   5.858  70.952  1.00  0.00     0.000 HD 
HETATM    3  H2  UNL     1     -12.547   6.476  72.115  1.00  0.00     0.000 HD 
HETATM    4  S   UNL     1     -10.218   6.658  72.728  1.00  0.00    -0.197 S  
HETATM    5  O   UNL     1      -9.426   5.452  72.691  1.00  0.00    -0.147 OA 
HETATM    6  O   UNL     1     -10.620   7.272  73.967  1.00  0.00    -0.313 OA 
ENDROOT
BRANCH   4   7
HETATM    7  C   UNL     1      -9.436   7.889  71.711  1.00  0.00    -0.158 A  
HETATM    8  C   UNL     1     -10.246   8.506  70.755  1.00  0.00    -0.237 A  
HETATM    9  C   UNL     1      -9.739   9.542  69.972  1.00  0.00    -0.236 A  
HETATM   10  C   UNL     1      -8.432   9.998  70.092  1.00  0.00    -0.017 A  
HETATM   11  C   UNL     1      -7.631   9.369  71.062  1.00  0.00    -0.033 A  
HETATM   12  N   UNL     1      -7.953  11.126  69.421  1.00  0.00    -0.373 NA 
HETATM   13  H   UNL     1      -7.162  11.657  69.786  1.00  0.00     0.000 HD 
HETATM   14  C   UNL     1      -8.616  11.523  68.183  1.00  0.00    -0.156 C  
HETATM   15  C   UNL     1      -8.102   8.292  71.874  1.00  0.00    -0.184 A  
HETATM   16  N   UNL     1     -10.031  11.746  68.454  1.00  0.00    -0.200 N  
HETATM   17  O   UNL     1     -10.825   9.525  67.624  1.00  0.00    -0.279 OA 
HETATM   18  C   UNL     1      -7.108   7.691  72.843  1.00  0.00    -0.076 C  
HETATM   19  F   UNL     1      -7.555   6.723  73.679  1.00  0.00    -0.083 F  
HETATM   20  F   UNL     1      -6.045   7.142  72.186  1.00  0.00    -0.040 F  
HETATM   21  S   UNL     1     -10.819  10.317  68.834  1.00  0.00    -0.239 S  
HETATM   22  F   UNL     1      -6.568   8.641  73.662  1.00  0.00    -0.129 F  
HETATM   23  O   UNL     1     -12.044  10.676  69.511  1.00  0.00    -0.283 OA 
HETATM   24  H   UNL     1     -10.486  12.659  68.417  1.00  0.00     0.000 HD 
BRANCH  14  25
HETATM   25  C   UNL     1      -8.026  12.846  67.632  1.00  0.00    -0.167 C  
BRANCH  25  26
HETATM   26  C   UNL     1      -7.089  13.536  68.595  1.00  0.00    -0.106 A  
HETATM   27  C   UNL     1      -5.929  12.897  69.054  1.00  0.00    -0.084 A  
HETATM   28  C   UNL     1      -5.135  13.496  70.032  1.00  0.00    -0.085 A  
HETATM   29  C   UNL     1      -5.477  14.749  70.535  1.00  0.00    -0.136 A  
HETATM   30  C   UNL     1      -6.593  15.420  70.038  1.00  0.00    -0.101 A  
HETATM   31  C   UNL     1      -7.393  14.819  69.069  1.00  0.00    -0.139 A  
ENDBRANCH  25  26
ENDBRANCH  14  25
ENDBRANCH   4   7
TORSDOF 3
ENDMDL
MODEL      150
REMARK 921   NORMALIZED FREE ENERGY PREDICTED BY IDOCK:   -3.10 KCAL/MOL
REMARK 922        TOTAL FREE ENERGY PREDICTED BY IDOCK:   -3.78 KCAL/MOL
REMARK 923 INTER-LIGAND FREE ENERGY PREDICTED BY IDOCK:   -3.87 KCAL/MOL
REMARK 924 INTRA-LIGAND FREE ENERGY PREDICTED BY IDOCK:    0.09 KCAL/MOL
REMARK 927      BINDING AFFINITY PREDICTED BY RF-SCORE:    0.00 PKD
ROOT
HETATM    1  N   UNL     1     -10.413   3.680  72.543  1.00  0.00    -0.126 N  
HETATM    2  H1  UNL     1     -10.069   3.198  71.713  1.00  0.00     0.000 HD 
HETATM    3  H2  UNL     1     -11.359   3.613  72.918  1.00  0.00     0.000 HD 
HETATM    4  S   UNL     1      -9.172   4.601  73.193  1.00  0.00    -0.117 S  
HETATM    5  O   UNL     1      -8.041   3.705  73.238  1.00  0.00    -0.077 OA 
HETATM    6  O   UNL     1      -9.657   5.282  74.365  1.00  0.00    -0.130 OA 
ENDROOT
BRANCH   4   7
HETATM    7  C   UNL     1      -8.902   5.801  71.909  1.00  0.00    -0.139 A  
HETATM    8  C   UNL     1      -9.575   5.579  70.704  1.00  0.00    -0.221 A  
HETATM    9  C   UNL     1      -9.490   6.513  69.674  1.00  0.00    -0.145 A  
HETATM   10  C   UNL     1      -8.742   7.680  69.783  1.00  0.00    -0.140 A  
HETATM   11  C   UNL     1      -8.075   7.889  71.002  1.00  0.00    -0.098 A  
HETATM   12  N   UNL     1      -8.763   8.691  68.818  1.00  0.00    -0.134 NA 
HETATM   13  H   UNL     1      -8.537   9.655  69.065  1.00  0.00     0.000 HD 
HETATM   14  C   UNL     1      -9.115   8.329  67.450  1.00  0.00    -0.140 C  
HETATM   15  C   UNL     1      -8.120   6.952  72.080  1.00  0.00    -0.099 A  
HETATM   16  N   UNL     1     -10.431   7.702  67.449  1.00  0.00    -0.278 N  
HETATM   17  O   UNL     1      -9.611   5.340  67.371  1.00  0.00    -0.123 OA 
HETATM   18  C   UNL     1      -7.314   7.301  73.312  1.00  0.00    -0.072 C  
HETATM   19  F   UNL     1      -7.405   6.466  74.376  1.00  0.00    -0.094 F  
HETATM   20  F   UNL     1      -5.982   7.383  73.027  1.00  0.00    -0.047 F  
HETATM   21  S   UNL     1     -10.403   6.210  68.212  1.00  0.00    -0.224 S  
HETATM   22  F   UNL     1      -7.650   8.530  73.800  1.00  0.00    -0.207 F  
HETATM   23  O   UNL     1     -11.767   5.888  68.563  1.00  0.00     0.564 OA 
HETATM   24  H   UNL     1     -11.266   8.118  67.036  1.00  0.00     0.000 HD 
BRANCH  14  25
HETATM   25  C   UNL     1      -9.189   9.583  66.542  1.00  0.00    -0.201 C  
BRANCH  25  26
HETATM   26  C   UNL     1      -9.814  10.781  67.216  1.00  0.00    -0.208 A  
HETATM   27  C   UNL     1     -11.204  10.875  67.374  1.00  0.00    -0.345 A  
HETATM   28  C   UNL     1     -11.778  12.037  67.889  1.00  0.00    -0.393 A  
HETATM   29  C   UNL     1     -10.967  13.100  68.278  1.00  0.00    -0.278 A  
HETATM   30  C   UNL     1      -9.581  12.992  68.184  1.00  0.00    -0.227 A  
HETATM   31  C   UNL     1      -9.006  11.836  67.659  1.00  0.00    -0.169 A  
ENDBRANCH  25  26
ENDBRANCH  14  25
ENDBRANCH   4   7
TORSDOF 3
ENDMDL
MODEL      151
REMARK 921   NORMALIZED FREE ENERGY PREDICTED BY IDOCK:   -3.09 KCAL/MOL
REMARK 922        TOTAL FREE ENERGY PREDICTED BY IDOCK:   -3.77 KCAL/MOL
REMARK 923 INTER-LIGAND FREE ENERGY PREDICTED BY IDOCK:   -4.30 KCAL/MOL
REMARK 924 INTRA-LIGAND FREE ENERGY PREDICTED BY IDOCK:    0.53 KCAL/MOL
REMARK 927      BINDING AFFINITY PREDICTED BY RF-SCORE:    0.00 PKD
ROOT
HETATM    1  N   UNL     1      -7.769  10.890  64.760  1.00  0.00    -0.332 N  
HETATM    2  H1  UNL     1      -6.813  10.622  64.995  1.00  0.00     0.000 HD 
HETATM    3  H2  UNL     1      -8.114  11.847  64.685  1.00  0.00     0.000 HD 
HETATM    4  S   UNL     1      -8.680   9.504  64.516  1.00  0.00    -0.209 S  
HETATM    5  O   UNL     1      -7.874   8.689  63.639  1.00  0.00    -0.133 OA 
HETATM    6  O   UNL     1     -10.029   9.882  64.185  1.00  0.00    -0.081 OA 
ENDROOT
BRANCH   4   7
HETATM    7  C   UNL     1      -8.675   8.778  66.139  1.00  0.00    -0.160 A  
HETATM    8  C   UNL     1      -7.941   7.598  66.285  1.00  0.00    -0.105 A  
HETATM    9  C   UNL     1      -7.811   7.007  67.541  1.00  0.00    -0.112 A  
HETATM   10  C   UNL     1      -8.396   7.541  68.682  1.00  0.00    -0.129 A  
HETATM   11  C   UNL     1      -9.127   8.731  68.518  1.00  0.00    -0.138 A  
HETATM   12  N   UNL     1      -8.156   7.044  69.966  1.00  0.00    -0.125 NA 
HETATM   13  H   UNL     1      -8.266   7.638  70.788  1.00  0.00     0.000 HD 
HETATM   14  C   UNL     1      -7.745   5.650  70.098  1.00  0.00    -0.086 C  
HETATM   15  C   UNL     1      -9.302   9.363  67.249  1.00  0.00    -0.159 A  
HETATM   16  N   UNL     1      -6.533   5.438  69.316  1.00  0.00    -0.037 N  
HETATM   17  O   UNL     1      -7.662   4.433  67.323  1.00  0.00    -0.087 OA 
HETATM   18  C   UNL     1     -10.151  10.615  67.229  1.00  0.00    -0.199 C  
HETATM   19  F   UNL     1     -10.265  11.275  66.050  1.00  0.00    -0.250 F  
HETATM   20  F   UNL     1     -11.431  10.353  67.623  1.00  0.00    -0.382 F  
HETATM   21  S   UNL     1      -6.830   5.563  67.672  1.00  0.00    -0.062 S  
HETATM   22  F   UNL     1      -9.690  11.548  68.111  1.00  0.00    -0.167 F  
HETATM   23  O   UNL     1      -5.558   5.795  67.028  1.00  0.00    -0.015 OA 
HETATM   24  H   UNL     1      -5.617   5.237  69.720  1.00  0.00     0.000 HD 
BRANCH  14  25
HETATM   25  C   UNL     1      -7.424   5.300  71.573  1.00  0.00    -0.096 C  
BRANCH  25  26
HETATM   26  C   UNL     1      -8.587   4.684  72.315  1.00  0.00    -0.122 A  
HETATM   27  C   UNL     1      -8.863   3.314  72.211  1.00  0.00    -0.116 A  
HETATM   28  C   UNL     1     -10.007   2.780  72.803  1.00  0.00    -0.212 A  
HETATM   29  C   UNL     1     -10.866   3.603  73.528  1.00  0.00    -0.322 A  
HETATM   30  C   UNL     1     -10.566   4.954  73.690  1.00  0.00    -0.321 A  
HETATM   31  C   UNL     1      -9.429   5.493  73.089  1.00  0.00    -0.148 A  
ENDBRANCH  25  26
ENDBRANCH  14  25
ENDBRANCH   4   7
TORSDOF 3
ENDMDL
MODEL      152
REMARK 921   NORMALIZED FREE ENERGY PREDICTED BY IDOCK:   -3.02 KCAL/MOL
REMARK 922        TOTAL FREE ENERGY PREDICTED BY IDOCK:   -3.68 KCAL/MOL
REMARK 923 INTER-LIGAND FREE ENERGY PREDICTED BY IDOCK:   -4.44 KCAL/MOL
REMARK 924 INTRA-LIGAND FREE ENERGY PREDICTED BY IDOCK:    0.75 KCAL/MOL
REMARK 927      BINDING AFFINITY PREDICTED BY RF-SCORE:    0.00 PKD
ROOT
HETATM    1  N   UNL     1      -7.973  14.176  68.650  1.00  0.00    -0.140 N  
HETATM    2  H1  UNL     1      -8.378  14.141  69.585  1.00  0.00     0.000 HD 
HETATM    3  H2  UNL     1      -8.293  14.773  67.888  1.00  0.00     0.000 HD 
HETATM    4  S   UNL     1      -6.694  13.096  68.567  1.00  0.00    -0.102 S  
HETATM    5  O   UNL     1      -5.914  13.364  69.752  1.00  0.00    -0.110 OA 
HETATM    6  O   UNL     1      -6.122  13.146  67.247  1.00  0.00    -0.320 OA 
ENDROOT
BRANCH   4   7
HETATM    7  C   UNL     1      -7.524  11.537  68.769  1.00  0.00    -0.119 A  
HETATM    8  C   UNL     1      -7.023  10.694  69.764  1.00  0.00    -0.145 A  
HETATM    9  C   UNL     1      -7.665   9.490  70.050  1.00  0.00    -0.142 A  
HETATM   10  C   UNL     1      -8.803   9.071  69.371  1.00  0.00    -0.144 A  
HETATM   11  C   UNL     1      -9.296   9.933  68.376  1.00  0.00    -0.135 A  
HETATM   12  N   UNL     1      -9.539   7.942  69.741  1.00  0.00    -0.167 NA 
HETATM   13  H   UNL     1     -10.528   7.861  69.505  1.00  0.00     0.000 HD 
HETATM   14  C   UNL     1      -8.853   6.883  70.474  1.00  0.00    -0.155 C  
HETATM   15  C   UNL     1      -8.662  11.167  68.037  1.00  0.00    -0.141 A  
HETATM   16  N   UNL     1      -8.277   7.445  71.691  1.00  0.00    -0.103 N  
HETATM   17  O   UNL     1      -5.953   7.703  70.803  1.00  0.00    -0.034 OA 
HETATM   18  C   UNL     1      -9.290  11.964  66.915  1.00  0.00    -0.196 C  
HETATM   19  F   UNL     1      -8.753  13.175  66.630  1.00  0.00    -0.200 F  
HETATM   20  F   UNL     1      -9.265  11.270  65.740  1.00  0.00    -0.201 F  
HETATM   21  S   UNL     1      -7.025   8.505  71.348  1.00  0.00    -0.085 S  
HETATM   22  F   UNL     1     -10.611  12.212  67.153  1.00  0.00    -0.225 F  
HETATM   23  O   UNL     1      -6.836   9.329  72.519  1.00  0.00    -0.293 OA 
HETATM   24  H   UNL     1      -8.596   7.221  72.634  1.00  0.00     0.000 HD 
BRANCH  14  25
HETATM   25  C   UNL     1      -9.839   5.763  70.891  1.00  0.00    -0.229 C  
BRANCH  25  26
HETATM   26  C   UNL     1      -9.451   4.396  70.379  1.00  0.00    -0.245 A  
HETATM   27  C   UNL     1      -9.076   3.375  71.263  1.00  0.00    -0.175 A  
HETATM   28  C   UNL     1      -8.606   2.157  70.773  1.00  0.00    -0.096 A  
HETATM   29  C   UNL     1      -8.538   1.938  69.399  1.00  0.00    -0.097 A  
HETATM   30  C   UNL     1      -8.970   2.924  68.513  1.00  0.00    -0.192 A  
HETATM   31  C   UNL     1      -9.429   4.147  69.000  1.00  0.00    -0.244 A  
ENDBRANCH  25  26
ENDBRANCH  14  25
ENDBRANCH   4   7
TORSDOF 3
ENDMDL
MODEL      153
REMARK 921   NORMALIZED FREE ENERGY PREDICTED BY IDOCK:   -2.97 KCAL/MOL
REMARK 922        TOTAL FREE ENERGY PREDICTED BY IDOCK:   -3.63 KCAL/MOL
REMARK 923 INTER-LIGAND FREE ENERGY PREDICTED BY IDOCK:   -4.53 KCAL/MOL
REMARK 924 INTRA-LIGAND FREE ENERGY PREDICTED BY IDOCK:    0.90 KCAL/MOL
REMARK 927      BINDING AFFINITY PREDICTED BY RF-SCORE:    0.00 PKD
ROOT
HETATM    1  N   UNL     1     -10.141   3.846  71.994  1.00  0.00    -0.173 N  
HETATM    2  H1  UNL     1      -9.141   3.737  71.820  1.00  0.00     0.000 HD 
HETATM    3  H2  UNL     1     -10.868   3.197  71.695  1.00  0.00     0.000 HD 
HETATM    4  S   UNL     1     -10.394   5.265  72.850  1.00  0.00    -0.209 S  
HETATM    5  O   UNL     1      -9.429   5.220  73.922  1.00  0.00    -0.131 OA 
HETATM    6  O   UNL     1     -11.804   5.419  73.096  1.00  0.00    -0.180 OA 
ENDROOT
BRANCH   4   7
HETATM    7  C   UNL     1      -9.884   6.494  71.671  1.00  0.00    -0.167 A  
HETATM    8  C   UNL     1     -10.772   7.552  71.458  1.00  0.00    -0.242 A  
HETATM    9  C   UNL     1     -10.416   8.604  70.616  1.00  0.00    -0.204 A  
HETATM   10  C   UNL     1      -9.195   8.652  69.954  1.00  0.00    -0.155 A  
HETATM   11  C   UNL     1      -8.312   7.583  70.184  1.00  0.00    -0.134 A  
HETATM   12  N   UNL     1      -8.766   9.764  69.225  1.00  0.00    -0.151 NA 
HETATM   13  H   UNL     1      -7.773   9.943  69.077  1.00  0.00     0.000 HD 
HETATM   14  C   UNL     1      -9.779  10.663  68.682  1.00  0.00    -0.178 C  
HETATM   15  C   UNL     1      -8.640   6.475  71.024  1.00  0.00    -0.134 A  
HETATM   16  N   UNL     1     -10.612  11.154  69.773  1.00  0.00    -0.455 N  
HETATM   17  O   UNL     1     -12.503   9.556  69.418  1.00  0.00     0.980 OA 
HETATM   18  C   UNL     1      -7.600   5.381  71.137  1.00  0.00    -0.097 C  
HETATM   19  F   UNL     1      -7.856   4.360  71.990  1.00  0.00    -0.079 F  
HETATM   20  F   UNL     1      -7.364   4.794  69.928  1.00  0.00    -0.050 F  
HETATM   21  S   UNL     1     -11.546   9.929  70.435  1.00  0.00    -0.275 S  
HETATM   22  F   UNL     1      -6.392   5.877  71.534  1.00  0.00    -0.041 F  
HETATM   23  O   UNL     1     -11.965  10.377  71.743  1.00  0.00    -0.214 OA 
HETATM   24  H   UNL     1     -10.625  12.123  70.095  1.00  0.00     0.000 HD 
BRANCH  14  25
HETATM   25  C   UNL     1      -9.127  11.890  67.996  1.00  0.00    -0.189 C  
BRANCH  25  26
HETATM   26  C   UNL     1     -10.105  12.737  67.217  1.00  0.00    -0.226 A  
HETATM   27  C   UNL     1     -10.210  14.115  67.451  1.00  0.00    -0.244 A  
HETATM   28  C   UNL     1     -11.197  14.865  66.812  1.00  0.00    -0.338 A  
HETATM   29  C   UNL     1     -12.066  14.250  65.912  1.00  0.00    -0.416 A  
HETATM   30  C   UNL     1     -11.928  12.894  65.625  1.00  0.00    -0.490 A  
HETATM   31  C   UNL     1     -10.949  12.140  66.271  1.00  0.00    -0.332 A  
ENDBRANCH  25  26
ENDBRANCH  14  25
ENDBRANCH   4   7
TORSDOF 3
ENDMDL
MODEL      154
REMARK 921   NORMALIZED FREE ENERGY PREDICTED BY IDOCK:   -2.79 KCAL/MOL
REMARK 922        TOTAL FREE ENERGY PREDICTED BY IDOCK:   -3.41 KCAL/MOL
REMARK 923 INTER-LIGAND FREE ENERGY PREDICTED BY IDOCK:   -5.15 KCAL/MOL
REMARK 924 INTRA-LIGAND FREE ENERGY PREDICTED BY IDOCK:    1.73 KCAL/MOL
REMARK 927      BINDING AFFINITY PREDICTED BY RF-SCORE:    0.00 PKD
ROOT
HETATM    1  N   UNL     1     -11.789   6.447  72.933  1.00  0.00    -0.465 N  
HETATM    2  H1  UNL     1     -12.348   6.229  72.108  1.00  0.00     0.000 HD 
HETATM    3  H2  UNL     1     -12.157   6.634  73.865  1.00  0.00     0.000 HD 
HETATM    4  S   UNL     1     -10.167   6.447  72.509  1.00  0.00    -0.187 S  
HETATM    5  O   UNL     1      -9.987   5.226  71.760  1.00  0.00    -0.176 OA 
HETATM    6  O   UNL     1      -9.378   6.755  73.673  1.00  0.00    -0.144 OA 
ENDROOT
BRANCH   4   7
HETATM    7  C   UNL     1     -10.087   7.824  71.387  1.00  0.00    -0.182 A  
HETATM    8  C   UNL     1     -11.221   8.639  71.327  1.00  0.00    -0.338 A  
HETATM    9  C   UNL     1     -11.214   9.789  70.540  1.00  0.00    -0.315 A  
HETATM   10  C   UNL     1     -10.112  10.171  69.785  1.00  0.00    -0.231 A  
HETATM   11  C   UNL     1      -8.979   9.343  69.859  1.00  0.00    -0.215 A  
HETATM   12  N   UNL     1     -10.038  11.392  69.107  1.00  0.00    -0.413 NA 
HETATM   13  H   UNL     1      -9.137  11.817  68.891  1.00  0.00     0.000 HD 
HETATM   14  C   UNL     1     -11.287  12.039  68.719  1.00  0.00    -0.278 C  
HETATM   15  C   UNL     1      -8.945   8.146  70.639  1.00  0.00    -0.153 A  
HETATM   16  N   UNL     1     -12.102  12.251  69.909  1.00  0.00    -0.282 N  
HETATM   17  O   UNL     1     -13.577  10.256  69.593  1.00  0.00     0.540 OA 
HETATM   18  C   UNL     1      -7.667   7.339  70.583  1.00  0.00    -0.093 C  
HETATM   19  F   UNL     1      -7.583   6.243  71.376  1.00  0.00    -0.089 F  
HETATM   20  F   UNL     1      -7.417   6.892  69.318  1.00  0.00    -0.083 F  
HETATM   21  S   UNL     1     -12.642  10.801  70.553  1.00  0.00    -0.311 S  
HETATM   22  F   UNL     1      -6.581   8.096  70.915  1.00  0.00    -0.036 F  
HETATM   23  O   UNL     1     -13.026  11.063  71.920  1.00  0.00    -0.457 OA 
HETATM   24  H   UNL     1     -12.317  13.169  70.301  1.00  0.00     0.000 HD 
BRANCH  14  25
HETATM   25  C   UNL     1     -11.021  13.423  68.074  1.00  0.00    -0.265 C  
BRANCH  25  26
HETATM   26  C   UNL     1     -11.245  14.582  69.017  1.00  0.00    -0.289 A  
HETATM   27  C   UNL     1     -11.074  15.904  68.586  1.00  0.00    -0.337 A  
HETATM   28  C   UNL     1     -11.167  16.959  69.494  1.00  0.00     0.215 A  
HETATM   29  C   UNL     1     -11.460  16.702  70.832  1.00  0.00     0.135 A  
HETATM   30  C   UNL     1     -11.695  15.396  71.256  1.00  0.00    -0.433 A  
HETATM   31  C   UNL     1     -11.592  14.339  70.353  1.00  0.00    -0.264 A  
ENDBRANCH  25  26
ENDBRANCH  14  25
ENDBRANCH   4   7
TORSDOF 3
ENDMDL
MODEL      155
REMARK 921   NORMALIZED FREE ENERGY PREDICTED BY IDOCK:   -2.60 KCAL/MOL
REMARK 922        TOTAL FREE ENERGY PREDICTED BY IDOCK:   -3.20 KCAL/MOL
REMARK 923 INTER-LIGAND FREE ENERGY PREDICTED BY IDOCK:   -5.01 KCAL/MOL
REMARK 924 INTRA-LIGAND FREE ENERGY PREDICTED BY IDOCK:    1.81 KCAL/MOL
REMARK 927      BINDING AFFINITY PREDICTED BY RF-SCORE:    0.00 PKD
ROOT
HETATM    1  N   UNL     1     -11.893  12.989  62.739  1.00  0.00    -0.435 N  
HETATM    2  H1  UNL     1     -11.641  12.008  62.612  1.00  0.00     0.000 HD 
HETATM    3  H2  UNL     1     -11.916  13.694  62.003  1.00  0.00     0.000 HD 
HETATM    4  S   UNL     1     -12.262  13.253  64.353  1.00  0.00    -0.379 S  
HETATM    5  O   UNL     1     -13.161  12.179  64.700  1.00  0.00    -0.659 OA 
HETATM    6  O   UNL     1     -12.617  14.636  64.533  1.00  0.00    -0.626 OA 
ENDROOT
BRANCH   4   7
HETATM    7  C   UNL     1     -10.692  12.961  65.135  1.00  0.00    -0.305 A  
HETATM    8  C   UNL     1     -10.379  13.786  66.219  1.00  0.00    -0.294 A  
HETATM    9  C   UNL     1      -9.209  13.572  66.945  1.00  0.00    -0.249 A  
HETATM   10  C   UNL     1      -8.310  12.560  66.632  1.00  0.00     0.047 A  
HETATM   11  C   UNL     1      -8.642  11.737  65.542  1.00  0.00     0.375 A  
HETATM   12  N   UNL     1      -7.211  12.242  67.434  1.00  0.00    -0.138 NA 
HETATM   13  H   UNL     1      -6.801  11.308  67.415  1.00  0.00     0.000 HD 
HETATM   14  C   UNL     1      -6.665  13.283  68.298  1.00  0.00    -0.103 C  
HETATM   15  C   UNL     1      -9.821  11.929  64.758  1.00  0.00    -0.216 A  
HETATM   16  N   UNL     1      -7.720  13.768  69.180  1.00  0.00    -0.336 N  
HETATM   17  O   UNL     1      -8.277  15.810  67.848  1.00  0.00    -0.141 OA 
HETATM   18  C   UNL     1     -10.017  10.987  63.591  1.00  0.00    -0.361 C  
HETATM   19  F   UNL     1     -11.167  11.099  62.882  1.00  0.00    -0.185 F  
HETATM   20  F   UNL     1      -9.013  11.115  62.675  1.00  0.00    -0.259 F  
HETATM   21  S   UNL     1      -8.902  14.599  68.329  1.00  0.00    -0.181 S  
HETATM   22  F   UNL     1      -9.974   9.682  63.986  1.00  0.00    -0.130 F  
HETATM   23  O   UNL     1     -10.079  14.634  69.165  1.00  0.00    -0.225 OA 
HETATM   24  H   UNL     1      -7.738  13.621  70.190  1.00  0.00     0.000 HD 
BRANCH  14  25
HETATM   25  C   UNL     1      -5.523  12.730  69.187  1.00  0.00    -0.070 C  
BRANCH  25  26
HETATM   26  C   UNL     1      -5.364  13.468  70.496  1.00  0.00    -0.131 A  
HETATM   27  C   UNL     1      -5.445  12.789  71.719  1.00  0.00     0.150 A  
HETATM   28  C   UNL     1      -5.417  13.497  72.920  1.00  0.00     0.100 A  
HETATM   29  C   UNL     1      -5.276  14.884  72.909  1.00  0.00    -0.050 A  
HETATM   30  C   UNL     1      -5.131  15.560  71.699  1.00  0.00    -0.084 A  
HETATM   31  C   UNL     1      -5.170  14.855  70.497  1.00  0.00    -0.124 A  
ENDBRANCH  25  26
ENDBRANCH  14  25
ENDBRANCH   4   7
TORSDOF 3
ENDMDL
MODEL      156
REMARK 921   NORMALIZED FREE ENERGY PREDICTED BY IDOCK:   -2.54 KCAL/MOL
REMARK 922        TOTAL FREE ENERGY PREDICTED BY IDOCK:   -3.12 KCAL/MOL
REMARK 923 INTER-LIGAND FREE ENERGY PREDICTED BY IDOCK:   -4.38 KCAL/MOL
REMARK 924 INTRA-LIGAND FREE ENERGY PREDICTED BY IDOCK:    1.26 KCAL/MOL
REMARK 927      BINDING AFFINITY PREDICTED BY RF-SCORE:    0.00 PKD
ROOT
HETATM    1  N   UNL     1      -5.555  15.459  68.367  1.00  0.00    -0.100 N  
HETATM    2  H1  UNL     1      -6.098  15.772  67.563  1.00  0.00     0.000 HD 
HETATM    3  H2  UNL     1      -4.536  15.429  68.419  1.00  0.00     0.000 HD 
HETATM    4  S   UNL     1      -6.605  15.003  69.591  1.00  0.00    -0.176 S  
HETATM    5  O   UNL     1      -7.552  16.088  69.680  1.00  0.00    -0.167 OA 
HETATM    6  O   UNL     1      -5.838  14.561  70.727  1.00  0.00    -0.165 OA 
ENDROOT
BRANCH   4   7
HETATM    7  C   UNL     1      -7.413  13.594  68.868  1.00  0.00    -0.033 A  
HETATM    8  C   UNL     1      -7.004  12.341  69.331  1.00  0.00     0.067 A  
HETATM    9  C   UNL     1      -7.643  11.187  68.883  1.00  0.00    -0.133 A  
HETATM   10  C   UNL     1      -8.688  11.219  67.967  1.00  0.00    -0.144 A  
HETATM   11  C   UNL     1      -9.089  12.488  67.514  1.00  0.00    -0.187 A  
HETATM   12  N   UNL     1      -9.431  10.089  67.619  1.00  0.00    -0.143 NA 
HETATM   13  H   UNL     1     -10.386  10.176  67.270  1.00  0.00     0.000 HD 
HETATM   14  C   UNL     1      -8.804   8.780  67.768  1.00  0.00    -0.136 C  
HETATM   15  C   UNL     1      -8.453  13.697  67.933  1.00  0.00    -0.177 A  
HETATM   16  N   UNL     1      -8.381   8.612  69.154  1.00  0.00    -0.118 N  
HETATM   17  O   UNL     1      -5.981   9.207  68.784  1.00  0.00    -0.043 OA 
HETATM   18  C   UNL     1      -8.973  14.980  67.323  1.00  0.00    -0.199 C  
HETATM   19  F   UNL     1      -8.438  16.145  67.765  1.00  0.00    -0.155 F  
HETATM   20  F   UNL     1      -8.800  14.992  65.969  1.00  0.00    -0.295 F  
HETATM   21  S   UNL     1      -7.126   9.651  69.545  1.00  0.00    -0.082 S  
HETATM   22  F   UNL     1     -10.317  15.117  67.512  1.00  0.00    -0.234 F  
HETATM   23  O   UNL     1      -7.089   9.745  70.986  1.00  0.00    -0.325 OA 
HETATM   24  H   UNL     1      -8.798   7.945  69.804  1.00  0.00     0.000 HD 
BRANCH  14  25
HETATM   25  C   UNL     1      -9.802   7.641  67.437  1.00  0.00    -0.226 C  
BRANCH  25  26
HETATM   26  C   UNL     1      -9.788   6.514  68.442  1.00  0.00    -0.137 A  
HETATM   27  C   UNL     1      -8.813   5.508  68.383  1.00  0.00    -0.107 A  
HETATM   28  C   UNL     1      -8.881   4.411  69.241  1.00  0.00    -0.133 A  
HETATM   29  C   UNL     1      -9.903   4.326  70.184  1.00  0.00    -0.271 A  
HETATM   30  C   UNL     1     -10.839   5.352  70.293  1.00  0.00    -0.214 A  
HETATM   31  C   UNL     1     -10.780   6.444  69.429  1.00  0.00    -0.347 A  
ENDBRANCH  25  26
ENDBRANCH  14  25
ENDBRANCH   4   7
TORSDOF 3
ENDMDL
MODEL      157
REMARK 921   NORMALIZED FREE ENERGY PREDICTED BY IDOCK:   -2.53 KCAL/MOL
REMARK 922        TOTAL FREE ENERGY PREDICTED BY IDOCK:   -3.11 KCAL/MOL
REMARK 923 INTER-LIGAND FREE ENERGY PREDICTED BY IDOCK:   -2.93 KCAL/MOL
REMARK 924 INTRA-LIGAND FREE ENERGY PREDICTED BY IDOCK:   -0.18 KCAL/MOL
REMARK 927      BINDING AFFINITY PREDICTED BY RF-SCORE:    0.00 PKD
ROOT
HETATM    1  N   UNL     1     -10.815  11.627  67.172  1.00  0.00    -0.247 N  
HETATM    2  H1  UNL     1     -10.206  11.981  67.909  1.00  0.00     0.000 HD 
HETATM    3  H2  UNL     1     -11.832  11.567  67.222  1.00  0.00     0.000 HD 
HETATM    4  S   UNL     1      -9.876  11.159  65.864  1.00  0.00    -0.244 S  
HETATM    5  O   UNL     1      -8.976  12.267  65.650  1.00  0.00     0.087 OA 
HETATM    6  O   UNL     1     -10.736  10.659  64.824  1.00  0.00    -0.225 OA 
ENDROOT
BRANCH   4   7
HETATM    7  C   UNL     1      -8.958   9.799  66.547  1.00  0.00    -0.150 A  
HETATM    8  C   UNL     1      -9.265   9.445  67.863  1.00  0.00    -0.139 A  
HETATM    9  C   UNL     1      -8.656   8.336  68.449  1.00  0.00    -0.133 A  
HETATM   10  C   UNL     1      -7.729   7.550  67.776  1.00  0.00    -0.115 A  
HETATM   11  C   UNL     1      -7.435   7.918  66.451  1.00  0.00    -0.087 A  
HETATM   12  N   UNL     1      -7.220   6.357  68.296  1.00  0.00    -0.083 NA 
HETATM   13  H   UNL     1      -6.864   5.626  67.680  1.00  0.00     0.000 HD 
HETATM   14  C   UNL     1      -7.213   6.186  69.745  1.00  0.00    -0.074 C  
HETATM   15  C   UNL     1      -8.021   9.055  65.815  1.00  0.00    -0.103 A  
HETATM   16  N   UNL     1      -8.574   6.333  70.246  1.00  0.00    -0.136 N  
HETATM   17  O   UNL     1      -8.338   8.710  70.989  1.00  0.00    -0.129 OA 
HETATM   18  C   UNL     1      -7.571   9.344  64.400  1.00  0.00    -0.114 C  
HETATM   19  F   UNL     1      -8.172  10.370  63.749  1.00  0.00    -0.157 F  
HETATM   20  F   UNL     1      -6.235   9.615  64.349  1.00  0.00    -0.079 F  
HETATM   21  S   UNL     1      -9.125   7.907  70.080  1.00  0.00    -0.152 S  
HETATM   22  F   UNL     1      -7.746   8.262  63.587  1.00  0.00    -0.113 F  
HETATM   23  O   UNL     1     -10.566   7.862  70.162  1.00  0.00    -0.228 OA 
HETATM   24  H   UNL     1      -9.123   5.573  70.649  1.00  0.00     0.000 HD 
BRANCH  14  25
HETATM   25  C   UNL     1      -6.714   4.772  70.138  1.00  0.00    -0.037 C  
BRANCH  25  26
HETATM   26  C   UNL     1      -6.712   4.525  71.628  1.00  0.00    -0.031 A  
HETATM   27  C   UNL     1      -7.635   3.648  72.214  1.00  0.00    -0.058 A  
HETATM   28  C   UNL     1      -7.701   3.519  73.601  1.00  0.00    -0.066 A  
HETATM   29  C   UNL     1      -6.826   4.241  74.410  1.00  0.00    -0.064 A  
HETATM   30  C   UNL     1      -5.863   5.067  73.834  1.00  0.00    -0.030 A  
HETATM   31  C   UNL     1      -5.802   5.206  72.448  1.00  0.00    -0.021 A  
ENDBRANCH  25  26
ENDBRANCH  14  25
ENDBRANCH   4   7
TORSDOF 3
ENDMDL
MODEL      158
REMARK 921   NORMALIZED FREE ENERGY PREDICTED BY IDOCK:   -2.33 KCAL/MOL
REMARK 922        TOTAL FREE ENERGY PREDICTED BY IDOCK:   -2.88 KCAL/MOL
REMARK 923 INTER-LIGAND FREE ENERGY PREDICTED BY IDOCK:   -4.55 KCAL/MOL
REMARK 924 INTRA-LIGAND FREE ENERGY PREDICTED BY IDOCK:    1.66 KCAL/MOL
REMARK 927      BINDING AFFINITY PREDICTED BY RF-SCORE:    0.00 PKD
ROOT
HETATM    1  N   UNL     1      -8.504  15.518  66.431  1.00  0.00    -0.383 N  
HETATM    2  H1  UNL     1      -9.382  15.517  65.912  1.00  0.00     0.000 HD 
HETATM    3  H2  UNL     1      -7.607  15.853  66.079  1.00  0.00     0.000 HD 
HETATM    4  S   UNL     1      -8.771  14.879  67.958  1.00  0.00    -0.171 S  
HETATM    5  O   UNL     1      -9.946  15.566  68.438  1.00  0.00    -0.209 OA 
HETATM    6  O   UNL     1      -7.532  14.880  68.691  1.00  0.00    -0.111 OA 
ENDROOT
BRANCH   4   7
HETATM    7  C   UNL     1      -9.205  13.198  67.576  1.00  0.00    -0.206 A  
HETATM    8  C   UNL     1      -8.142  12.327  67.323  1.00  0.00    -0.182 A  
HETATM    9  C   UNL     1      -8.385  10.973  67.100  1.00  0.00    -0.132 A  
HETATM   10  C   UNL     1      -9.666  10.433  67.107  1.00  0.00    -0.172 A  
HETATM   11  C   UNL     1     -10.723  11.322  67.367  1.00  0.00    -0.285 A  
HETATM   12  N   UNL     1      -9.914   9.060  67.029  1.00  0.00    -0.209 NA 
HETATM   13  H   UNL     1     -10.774   8.661  67.405  1.00  0.00     0.000 HD 
HETATM   14  C   UNL     1      -8.909   8.214  66.395  1.00  0.00    -0.155 C  
HETATM   15  C   UNL     1     -10.524  12.720  67.585  1.00  0.00    -0.224 A  
HETATM   16  N   UNL     1      -7.638   8.387  67.088  1.00  0.00    -0.092 N  
HETATM   17  O   UNL     1      -6.647   9.997  65.451  1.00  0.00    -0.095 OA 
HETATM   18  C   UNL     1     -11.766  13.553  67.810  1.00  0.00    -0.359 C  
HETATM   19  F   UNL     1     -11.596  14.866  68.097  1.00  0.00    -0.294 F  
HETATM   20  F   UNL     1     -12.588  13.523  66.720  1.00  0.00    -0.374 F  
HETATM   21  S   UNL     1      -7.009   9.922  66.848  1.00  0.00    -0.090 S  
HETATM   22  F   UNL     1     -12.519  13.063  68.837  1.00  0.00    -0.224 F  
HETATM   23  O   UNL     1      -6.040  10.150  67.895  1.00  0.00    -0.052 OA 
HETATM   24  H   UNL     1      -7.187   7.664  67.649  1.00  0.00     0.000 HD 
BRANCH  14  25
HETATM   25  C   UNL     1      -9.299   6.717  66.488  1.00  0.00    -0.191 C  
BRANCH  25  26
HETATM   26  C   UNL     1      -9.022   5.940  65.223  1.00  0.00     0.031 A  
HETATM   27  C   UNL     1      -8.370   6.541  64.138  1.00  0.00     0.121 A  
HETATM   28  C   UNL     1      -8.226   5.853  62.933  1.00  0.00    -0.076 A  
HETATM   29  C   UNL     1      -8.705   4.550  62.815  1.00  0.00    -0.117 A  
HETATM   30  C   UNL     1      -9.298   3.922  63.908  1.00  0.00    -0.148 A  
HETATM   31  C   UNL     1      -9.452   4.612  65.109  1.00  0.00    -0.147 A  
ENDBRANCH  25  26
ENDBRANCH  14  25
ENDBRANCH   4   7
TORSDOF 3
ENDMDL
MODEL      159
REMARK 921   NORMALIZED FREE ENERGY PREDICTED BY IDOCK:   -1.86 KCAL/MOL
REMARK 922        TOTAL FREE ENERGY PREDICTED BY IDOCK:   -2.33 KCAL/MOL
REMARK 923 INTER-LIGAND FREE ENERGY PREDICTED BY IDOCK:   -5.18 KCAL/MOL
REMARK 924 INTRA-LIGAND FREE ENERGY PREDICTED BY IDOCK:    2.85 KCAL/MOL
REMARK 927      BINDING AFFINITY PREDICTED BY RF-SCORE:    0.00 PKD
ROOT
HETATM    1  N   UNL     1     -10.757  14.608  64.536  1.00  0.00    -0.610 N  
HETATM    2  H1  UNL     1     -10.061  14.208  63.906  1.00  0.00     0.000 HD 
HETATM    3  H2  UNL     1     -10.771  15.573  64.866  1.00  0.00     0.000 HD 
HETATM    4  S   UNL     1     -11.872  13.425  64.940  1.00  0.00    -0.394 S  
HETATM    5  O   UNL     1     -12.235  12.822  63.680  1.00  0.00    -0.485 OA 
HETATM    6  O   UNL     1     -12.854  13.989  65.829  1.00  0.00    -0.516 OA 
ENDROOT
BRANCH   4   7
HETATM    7  C   UNL     1     -10.868  12.278  65.855  1.00  0.00    -0.271 A  
HETATM    8  C   UNL     1     -10.084  11.403  65.099  1.00  0.00    -0.319 A  
HETATM    9  C   UNL     1      -9.202  10.530  65.732  1.00  0.00    -0.182 A  
HETATM   10  C   UNL     1      -9.065  10.478  67.115  1.00  0.00    -0.143 A  
HETATM   11  C   UNL     1      -9.858  11.368  67.860  1.00  0.00    -0.188 A  
HETATM   12  N   UNL     1      -8.086   9.714  67.756  1.00  0.00    -0.112 NA 
HETATM   13  H   UNL     1      -7.753   9.964  68.687  1.00  0.00     0.000 HD 
HETATM   14  C   UNL     1      -7.553   8.551  67.055  1.00  0.00    -0.092 C  
HETATM   15  C   UNL     1     -10.788  12.269  67.255  1.00  0.00    -0.283 A  
HETATM   16  N   UNL     1      -7.001   8.979  65.775  1.00  0.00    -0.080 N  
HETATM   17  O   UNL     1      -8.980   8.329  64.391  1.00  0.00     0.222 OA 
HETATM   18  C   UNL     1     -11.599  13.134  68.195  1.00  0.00    -0.339 C  
HETATM   19  F   UNL     1     -12.429  14.051  67.642  1.00  0.00    -0.357 F  
HETATM   20  F   UNL     1     -12.387  12.376  69.011  1.00  0.00    -0.261 F  
HETATM   21  S   UNL     1      -8.203   9.500  64.730  1.00  0.00    -0.154 S  
HETATM   22  F   UNL     1     -10.797  13.848  69.037  1.00  0.00    -0.236 F  
HETATM   23  O   UNL     1      -7.562  10.304  63.715  1.00  0.00    -0.146 OA 
HETATM   24  H   UNL     1      -6.008   8.963  65.545  1.00  0.00     0.000 HD 
BRANCH  14  25
HETATM   25  C   UNL     1      -6.410   7.886  67.865  1.00  0.00    -0.051 C  
BRANCH  25  26
HETATM   26  C   UNL     1      -6.535   8.080  69.357  1.00  0.00    -0.035 A  
HETATM   27  C   UNL     1      -7.201   9.195  69.885  1.00  0.00    -0.062 A  
HETATM   28  C   UNL     1      -7.207   9.426  71.260  1.00  0.00     0.060 A  
HETATM   29  C   UNL     1      -6.575   8.529  72.120  1.00  0.00    -0.085 A  
HETATM   30  C   UNL     1      -5.966   7.385  71.609  1.00  0.00    -0.036 A  
HETATM   31  C   UNL     1      -5.949   7.158  70.234  1.00  0.00    -0.024 A  
ENDBRANCH  25  26
ENDBRANCH  14  25
ENDBRANCH   4   7
TORSDOF 3
ENDMDL
MODEL      160
REMARK 921   NORMALIZED FREE ENERGY PREDICTED BY IDOCK:   -0.31 KCAL/MOL
REMARK 922        TOTAL FREE ENERGY PREDICTED BY IDOCK:   -0.50 KCAL/MOL
REMARK 923 INTER-LIGAND FREE ENERGY PREDICTED BY IDOCK:   -2.14 KCAL/MOL
REMARK 924 INTRA-LIGAND FREE ENERGY PREDICTED BY IDOCK:    1.64 KCAL/MOL
REMARK 927      BINDING AFFINITY PREDICTED BY RF-SCORE:    0.00 PKD
ROOT
HETATM    1  N   UNL     1      -8.775   7.121  71.329  1.00  0.00    -0.128 N  
HETATM    2  H1  UNL     1      -8.235   7.950  71.574  1.00  0.00     0.000 HD 
HETATM    3  H2  UNL     1      -8.386   6.232  71.014  1.00  0.00     0.000 HD 
HETATM    4  S   UNL     1     -10.406   7.453  71.525  1.00  0.00    -0.200 S  
HETATM    5  O   UNL     1     -10.496   8.071  72.827  1.00  0.00    -0.307 OA 
HETATM    6  O   UNL     1     -11.169   6.283  71.179  1.00  0.00    -0.284 OA 
ENDROOT
BRANCH   4   7
HETATM    7  C   UNL     1     -10.674   8.696  70.282  1.00  0.00    -0.227 A  
HETATM    8  C   UNL     1     -11.254   9.890  70.717  1.00  0.00    -0.427 A  
HETATM    9  C   UNL     1     -11.421  10.951  69.829  1.00  0.00    -0.313 A  
HETATM   10  C   UNL     1     -11.039  10.875  68.495  1.00  0.00    -0.256 A  
HETATM   11  C   UNL     1     -10.453   9.668  68.075  1.00  0.00    -0.276 A  
HETATM   12  N   UNL     1     -11.066  11.973  67.631  1.00  0.00    -0.247 NA 
HETATM   13  H   UNL     1     -10.456  12.012  66.814  1.00  0.00     0.000 HD 
HETATM   14  C   UNL     1     -11.992  13.061  67.929  1.00  0.00    -0.291 C  
HETATM   15  C   UNL     1     -10.277   8.549  68.945  1.00  0.00    -0.221 A  
HETATM   16  N   UNL     1     -11.712  13.568  69.267  1.00  0.00    -0.309 N  
HETATM   17  O   UNL     1     -13.538  12.313  70.426  1.00  0.00     1.262 OA 
HETATM   18  C   UNL     1      -9.670   7.306  68.333  1.00  0.00    -0.148 C  
HETATM   19  F   UNL     1      -9.420   6.260  69.158  1.00  0.00    -0.132 F  
HETATM   20  F   UNL     1     -10.460   6.805  67.340  1.00  0.00    -0.200 F  
HETATM   21  S   UNL     1     -12.098  12.442  70.447  1.00  0.00    -0.194 S  
HETATM   22  F   UNL     1      -8.473   7.574  67.735  1.00  0.00    -0.115 F  
HETATM   23  O   UNL     1     -11.389  12.824  71.645  1.00  0.00     2.620 OA 
HETATM   24  H   UNL     1     -11.328  14.493  69.461  1.00  0.00     0.000 HD 
BRANCH  14  25
HETATM   25  C   UNL     1     -11.815  14.234  66.932  1.00  0.00    -0.458 C  
BRANCH  25  26
HETATM   26  C   UNL     1     -10.792  15.253  67.373  1.00  0.00    -0.304 A  
HETATM   27  C   UNL     1      -9.671  14.871  68.123  1.00  0.00    -0.214 A  
HETATM   28  C   UNL     1      -8.798  15.835  68.625  1.00  0.00    -0.199 A  
HETATM   29  C   UNL     1      -9.021  17.184  68.358  1.00  0.00    -0.259 A  
HETATM   30  C   UNL     1     -10.096  17.569  67.561  1.00  0.00    -0.326 A  
HETATM   31  C   UNL     1     -10.977  16.608  67.066  1.00  0.00     0.015 A  
ENDBRANCH  25  26
ENDBRANCH  14  25
ENDBRANCH   4   7
TORSDOF 3
ENDMDL
MODEL      161
REMARK 921   NORMALIZED FREE ENERGY PREDICTED BY IDOCK:    0.80 KCAL/MOL
REMARK 922        TOTAL FREE ENERGY PREDICTED BY IDOCK:    0.81 KCAL/MOL
REMARK 923 INTER-LIGAND FREE ENERGY PREDICTED BY IDOCK:   -0.91 KCAL/MOL
REMARK 924 INTRA-LIGAND FREE ENERGY PREDICTED BY IDOCK:    1.72 KCAL/MOL
REMARK 927      BINDING AFFINITY PREDICTED BY RF-SCORE:    0.00 PKD
ROOT
HETATM    1  N   UNL     1     -12.136  13.579  66.454  1.00  0.00    -0.415 N  
HETATM    2  H1  UNL     1     -13.065  13.425  66.848  1.00  0.00     0.000 HD 
HETATM    3  H2  UNL     1     -11.880  13.452  65.475  1.00  0.00     0.000 HD 
HETATM    4  S   UNL     1     -11.100  14.074  67.675  1.00  0.00    -0.292 S  
HETATM    5  O   UNL     1     -11.823  15.115  68.365  1.00  0.00    -0.328 OA 
HETATM    6  O   UNL     1      -9.790  14.291  67.119  1.00  0.00    -0.243 OA 
ENDROOT
BRANCH   4   7
HETATM    7  C   UNL     1     -11.047  12.630  68.711  1.00  0.00    -0.263 A  
HETATM    8  C   UNL     1     -11.897  12.634  69.820  1.00  0.00    -0.379 A  
HETATM    9  C   UNL     1     -11.985  11.509  70.638  1.00  0.00    -0.292 A  
HETATM   10  C   UNL     1     -11.242  10.357  70.406  1.00  0.00    -0.321 A  
HETATM   11  C   UNL     1     -10.395  10.369  69.284  1.00  0.00    -0.250 A  
HETATM   12  N   UNL     1     -11.425   9.174  71.128  1.00  0.00    -0.293 NA 
HETATM   13  H   UNL     1     -11.174   8.271  70.726  1.00  0.00     0.000 HD 
HETATM   14  C   UNL     1     -11.983   9.268  72.472  1.00  0.00     0.201 C  
HETATM   15  C   UNL     1     -10.260  11.504  68.428  1.00  0.00    -0.211 A  
HETATM   16  N   UNL     1     -13.276   9.939  72.403  1.00  0.00    -0.559 N  
HETATM   17  O   UNL     1     -12.452  12.199  73.087  1.00  0.00     2.708 OA 
HETATM   18  C   UNL     1      -9.276  11.376  67.286  1.00  0.00    -0.165 C  
HETATM   19  F   UNL     1      -9.190  12.411  66.414  1.00  0.00    -0.221 F  
HETATM   20  F   UNL     1      -8.006  11.182  67.745  1.00  0.00    -0.107 F  
HETATM   21  S   UNL     1     -13.112  11.551  71.976  1.00  0.00    -0.112 S  
HETATM   22  F   UNL     1      -9.545  10.286  66.511  1.00  0.00    -0.184 F  
HETATM   23  O   UNL     1     -14.400  11.995  71.497  1.00  0.00     1.675 OA 
HETATM   24  H   UNL     1     -14.169   9.483  72.592  1.00  0.00     0.000 HD 
BRANCH  14  25
HETATM   25  C   UNL     1     -12.211   7.862  73.082  1.00  0.00     0.661 C  
BRANCH  25  26
HETATM   26  C   UNL     1     -11.623   6.742  72.256  1.00  0.00    -0.311 A  
HETATM   27  C   UNL     1     -10.784   5.782  72.839  1.00  0.00    -0.282 A  
HETATM   28  C   UNL     1     -10.152   4.825  72.045  1.00  0.00    -0.258 A  
HETATM   29  C   UNL     1     -10.377   4.801  70.670  1.00  0.00    -0.184 A  
HETATM   30  C   UNL     1     -11.259   5.712  70.092  1.00  0.00    -0.056 A  
HETATM   31  C   UNL     1     -11.883   6.676  70.881  1.00  0.00    -0.434 A  
ENDBRANCH  25  26
ENDBRANCH  14  25
ENDBRANCH   4   7
TORSDOF 3
ENDMDL
MODEL      162
REMARK 921   NORMALIZED FREE ENERGY PREDICTED BY IDOCK:    0.88 KCAL/MOL
REMARK 922        TOTAL FREE ENERGY PREDICTED BY IDOCK:    0.90 KCAL/MOL
REMARK 923 INTER-LIGAND FREE ENERGY PREDICTED BY IDOCK:   -2.26 KCAL/MOL
REMARK 924 INTRA-LIGAND FREE ENERGY PREDICTED BY IDOCK:    3.16 KCAL/MOL
REMARK 927      BINDING AFFINITY PREDICTED BY RF-SCORE:    0.00 PKD
ROOT
HETATM    1  N   UNL     1      -9.053  19.819  67.263  1.00  0.00    -0.312 N  
HETATM    2  H1  UNL     1     -10.040  19.570  67.324  1.00  0.00     0.000 HD 
HETATM    3  H2  UNL     1      -8.651  20.491  66.609  1.00  0.00     0.000 HD 
HETATM    4  S   UNL     1      -8.198  18.948  68.412  1.00  0.00    -0.352 S  
HETATM    5  O   UNL     1      -8.956  19.110  69.628  1.00  0.00     0.216 OA 
HETATM    6  O   UNL     1      -6.804  19.300  68.326  1.00  0.00    -0.248 OA 
ENDROOT
BRANCH   4   7
HETATM    7  C   UNL     1      -8.401  17.282  67.826  1.00  0.00    -0.212 A  
HETATM    8  C   UNL     1      -7.632  16.305  68.464  1.00  0.00    -0.179 A  
HETATM    9  C   UNL     1      -7.790  14.961  68.129  1.00  0.00    -0.122 A  
HETATM   10  C   UNL     1      -8.691  14.534  67.161  1.00  0.00    -0.219 A  
HETATM   11  C   UNL     1      -9.460  15.529  66.533  1.00  0.00    -0.299 A  
HETATM   12  N   UNL     1      -8.965  13.185  66.917  1.00  0.00    -0.284 NA 
HETATM   13  H   UNL     1      -9.854  12.897  66.509  1.00  0.00     0.000 HD 
HETATM   14  C   UNL     1      -7.944  12.202  67.262  1.00  0.00    -0.176 C  
HETATM   15  C   UNL     1      -9.320  16.919  66.831  1.00  0.00    -0.254 A  
HETATM   16  N   UNL     1      -7.621  12.331  68.678  1.00  0.00    -0.185 N  
HETATM   17  O   UNL     1      -5.547  13.694  68.367  1.00  0.00    -0.082 OA 
HETATM   18  C   UNL     1     -10.189  17.871  66.039  1.00  0.00    -0.295 C  
HETATM   19  F   UNL     1     -10.131  19.187  66.361  1.00  0.00    -0.349 F  
HETATM   20  F   UNL     1      -9.905  17.810  64.706  1.00  0.00     1.249 F  
HETATM   21  S   UNL     1      -6.842  13.779  69.005  1.00  0.00    -0.100 S  
HETATM   22  F   UNL     1     -11.510  17.544  66.137  1.00  0.00     0.454 F  
HETATM   23  O   UNL     1      -6.975  14.020  70.422  1.00  0.00     0.197 OA 
HETATM   24  H   UNL     1      -7.842  11.627  69.383  1.00  0.00     0.000 HD 
BRANCH  14  25
HETATM   25  C   UNL     1      -8.453  10.759  67.022  1.00  0.00    -0.128 C  
BRANCH  25  26
HETATM   26  C   UNL     1      -7.725  10.038  65.913  1.00  0.00    -0.116 A  
HETATM   27  C   UNL     1      -8.186  10.098  64.590  1.00  0.00    -0.165 A  
HETATM   28  C   UNL     1      -7.576   9.334  63.596  1.00  0.00    -0.112 A  
HETATM   29  C   UNL     1      -6.483   8.528  63.909  1.00  0.00    -0.072 A  
HETATM   30  C   UNL     1      -5.978   8.511  65.208  1.00  0.00    -0.048 A  
HETATM   31  C   UNL     1      -6.593   9.265  66.205  1.00  0.00    -0.070 A  
ENDBRANCH  25  26
ENDBRANCH  14  25
ENDBRANCH   4   7
TORSDOF 3
ENDMDL
MODEL      163
REMARK 921   NORMALIZED FREE ENERGY PREDICTED BY IDOCK:    2.68 KCAL/MOL
REMARK 922        TOTAL FREE ENERGY PREDICTED BY IDOCK:    3.02 KCAL/MOL
REMARK 923 INTER-LIGAND FREE ENERGY PREDICTED BY IDOCK:    3.25 KCAL/MOL
REMARK 924 INTRA-LIGAND FREE ENERGY PREDICTED BY IDOCK:   -0.23 KCAL/MOL
REMARK 927      BINDING AFFINITY PREDICTED BY RF-SCORE:    0.00 PKD
ROOT
HETATM    1  N   UNL     1     -12.932  12.378  70.390  1.00  0.00     0.294 N  
HETATM    2  H1  UNL     1     -12.484  11.895  71.168  1.00  0.00     0.000 HD 
HETATM    3  H2  UNL     1     -13.938  12.440  70.232  1.00  0.00     0.000 HD 
HETATM    4  S   UNL     1     -11.750  13.055  69.412  1.00  0.00    -0.315 S  
HETATM    5  O   UNL     1     -10.866  13.733  70.329  1.00  0.00     0.375 OA 
HETATM    6  O   UNL     1     -12.383  13.737  68.314  1.00  0.00    -0.242 OA 
ENDROOT
BRANCH   4   7
HETATM    7  C   UNL     1     -10.928  11.609  68.786  1.00  0.00    -0.226 A  
HETATM    8  C   UNL     1     -11.453  10.377  69.186  1.00  0.00    -0.261 A  
HETATM    9  C   UNL     1     -10.926   9.193  68.674  1.00  0.00     0.047 A  
HETATM   10  C   UNL     1      -9.870   9.174  67.770  1.00  0.00    -0.174 A  
HETATM   11  C   UNL     1      -9.356  10.422  67.376  1.00  0.00    -0.162 A  
HETATM   12  N   UNL     1      -9.427   8.008  67.140  1.00  0.00    -0.153 NA 
HETATM   13  H   UNL     1      -8.944   8.049  66.242  1.00  0.00     0.000 HD 
HETATM   14  C   UNL     1      -9.672   6.732  67.803  1.00  0.00    -0.124 C  
HETATM   15  C   UNL     1      -9.854  11.660  67.886  1.00  0.00    -0.189 A  
HETATM   16  N   UNL     1     -11.105   6.585  68.032  1.00  0.00    -0.496 N  
HETATM   17  O   UNL     1     -11.077   7.298  70.429  1.00  0.00    -0.257 OA 
HETATM   18  C   UNL     1      -9.168  12.917  67.396  1.00  0.00    -0.197 C  
HETATM   19  F   UNL     1      -9.674  14.106  67.804  1.00  0.00    -0.208 F  
HETATM   20  F   UNL     1      -7.852  12.938  67.759  1.00  0.00    -0.112 F  
HETATM   21  S   UNL     1     -11.665   7.684  69.166  1.00  0.00     1.261 S  
HETATM   22  F   UNL     1      -9.162  12.987  66.033  1.00  0.00    -0.199 F  
HETATM   23  O   UNL     1     -13.095   7.779  68.993  1.00  0.00     5.009 OA 
HETATM   24  H   UNL     1     -11.694   5.897  67.560  1.00  0.00     0.000 HD 
BRANCH  14  25
HETATM   25  C   UNL     1      -9.209   5.545  66.920  1.00  0.00    -0.119 C  
BRANCH  25  26
HETATM   26  C   UNL     1      -7.885   4.956  67.346  1.00  0.00    -0.095 A  
HETATM   27  C   UNL     1      -6.920   4.595  66.396  1.00  0.00    -0.066 A  
HETATM   28  C   UNL     1      -5.752   3.943  66.792  1.00  0.00    -0.022 A  
HETATM   29  C   UNL     1      -5.527   3.676  68.141  1.00  0.00    -0.013 A  
HETATM   30  C   UNL     1      -6.452   4.089  69.098  1.00  0.00    -0.036 A  
HETATM   31  C   UNL     1      -7.625   4.730  68.704  1.00  0.00    -0.069 A  
ENDBRANCH  25  26
ENDBRANCH  14  25
ENDBRANCH   4   7
TORSDOF 3
ENDMDL
MODEL      164
REMARK 921   NORMALIZED FREE ENERGY PREDICTED BY IDOCK:    3.17 KCAL/MOL
REMARK 922        TOTAL FREE ENERGY PREDICTED BY IDOCK:    3.58 KCAL/MOL
REMARK 923 INTER-LIGAND FREE ENERGY PREDICTED BY IDOCK:    0.58 KCAL/MOL
REMARK 924 INTRA-LIGAND FREE ENERGY PREDICTED BY IDOCK:    3.00 KCAL/MOL
REMARK 927      BINDING AFFINITY PREDICTED BY RF-SCORE:    0.00 PKD
ROOT
HETATM    1  N   UNL     1     -14.394  12.726  72.249  1.00  0.00     0.040 N  
HETATM    2  H1  UNL     1     -15.031  12.016  71.888  1.00  0.00     0.000 HD 
HETATM    3  H2  UNL     1     -14.660  13.664  72.546  1.00  0.00     0.000 HD 
HETATM    4  S   UNL     1     -12.838  12.101  72.277  1.00  0.00     0.503 S  
HETATM    5  O   UNL     1     -12.978  10.807  72.901  1.00  0.00     0.896 OA 
HETATM    6  O   UNL     1     -11.939  13.103  72.787  1.00  0.00     1.518 OA 
ENDROOT
BRANCH   4   7
HETATM    7  C   UNL     1     -12.510  11.870  70.545  1.00  0.00    -0.215 A  
HETATM    8  C   UNL     1     -12.065  12.994  69.846  1.00  0.00    -0.347 A  
HETATM    9  C   UNL     1     -11.701  12.885  68.505  1.00  0.00    -0.339 A  
HETATM   10  C   UNL     1     -11.770  11.684  67.808  1.00  0.00    -0.245 A  
HETATM   11  C   UNL     1     -12.217  10.563  68.527  1.00  0.00     0.620 A  
HETATM   12  N   UNL     1     -11.275  11.527  66.510  1.00  0.00    -0.309 NA 
HETATM   13  H   UNL     1     -10.988  10.610  66.167  1.00  0.00     0.000 HD 
HETATM   14  C   UNL     1     -11.181  12.709  65.661  1.00  0.00    -0.309 C  
HETATM   15  C   UNL     1     -12.616  10.631  69.898  1.00  0.00    -0.168 A  
HETATM   16  N   UNL     1     -10.349  13.705  66.326  1.00  0.00    -0.287 N  
HETATM   17  O   UNL     1     -12.232  15.076  67.236  1.00  0.00    -0.052 OA 
HETATM   18  C   UNL     1     -13.113   9.345  70.521  1.00  0.00     0.353 C  
HETATM   19  F   UNL     1     -13.422   9.368  71.841  1.00  0.00    -0.367 F  
HETATM   20  F   UNL     1     -14.237   8.891  69.893  1.00  0.00     1.328 F  
HETATM   21  S   UNL     1     -11.093  14.314  67.698  1.00  0.00    -0.304 S  
HETATM   22  F   UNL     1     -12.201   8.338  70.391  1.00  0.00    -0.079 F  
HETATM   23  O   UNL     1     -10.059  14.913  68.510  1.00  0.00    -0.220 OA 
HETATM   24  H   UNL     1      -9.427  13.995  65.997  1.00  0.00     0.000 HD 
BRANCH  14  25
HETATM   25  C   UNL     1     -10.519  12.370  64.302  1.00  0.00    -0.389 C  
BRANCH  25  26
HETATM   26  C   UNL     1      -9.561  11.204  64.371  1.00  0.00    -0.288 A  
HETATM   27  C   UNL     1      -8.526  11.066  63.435  1.00  0.00     0.111 A  
HETATM   28  C   UNL     1      -7.723   9.926  63.437  1.00  0.00    -0.145 A  
HETATM   29  C   UNL     1      -7.928   8.931  64.390  1.00  0.00    -0.137 A  
HETATM   30  C   UNL     1      -8.912   9.089  65.363  1.00  0.00    -0.249 A  
HETATM   31  C   UNL     1      -9.724  10.223  65.357  1.00  0.00    -0.340 A  
ENDBRANCH  25  26
ENDBRANCH  14  25
ENDBRANCH   4   7
TORSDOF 3
ENDMDL
MODEL      165
REMARK 921   NORMALIZED FREE ENERGY PREDICTED BY IDOCK:    4.65 KCAL/MOL
REMARK 922        TOTAL FREE ENERGY PREDICTED BY IDOCK:    5.33 KCAL/MOL
REMARK 923 INTER-LIGAND FREE ENERGY PREDICTED BY IDOCK:    2.37 KCAL/MOL
REMARK 924 INTRA-LIGAND FREE ENERGY PREDICTED BY IDOCK:    2.96 KCAL/MOL
REMARK 927      BINDING AFFINITY PREDICTED BY RF-SCORE:    0.00 PKD
ROOT
HETATM    1  N   UNL     1     -11.236  16.123  67.014  1.00  0.00    -0.013 N  
HETATM    2  H1  UNL     1     -10.828  15.929  66.100  1.00  0.00     0.000 HD 
HETATM    3  H2  UNL     1     -10.881  16.800  67.690  1.00  0.00     0.000 HD 
HETATM    4  S   UNL     1     -12.585  15.151  67.229  1.00  0.00     1.612 S  
HETATM    5  O   UNL     1     -13.337  15.299  66.007  1.00  0.00     1.597 OA 
HETATM    6  O   UNL     1     -13.160  15.425  68.520  1.00  0.00     1.423 OA 
ENDROOT
BRANCH   4   7
HETATM    7  C   UNL     1     -11.859  13.528  67.262  1.00  0.00    -0.385 A  
HETATM    8  C   UNL     1     -11.262  13.094  66.075  1.00  0.00    -0.316 A  
HETATM    9  C   UNL     1     -10.594  11.872  66.036  1.00  0.00    -0.265 A  
HETATM   10  C   UNL     1     -10.496  11.037  67.143  1.00  0.00    -0.232 A  
HETATM   11  C   UNL     1     -11.098  11.491  68.329  1.00  0.00    -0.295 A  
HETATM   12  N   UNL     1      -9.709   9.882  67.159  1.00  0.00    -0.171 NA 
HETATM   13  H   UNL     1      -9.348   9.506  68.036  1.00  0.00     0.000 HD 
HETATM   14  C   UNL     1      -9.419   9.229  65.887  1.00  0.00    -0.259 C  
HETATM   15  C   UNL     1     -11.807  12.728  68.413  1.00  0.00    -0.353 A  
HETATM   16  N   UNL     1      -8.768  10.185  65.000  1.00  0.00    -0.162 N  
HETATM   17  O   UNL     1     -10.814  10.791  63.695  1.00  0.00    -0.110 OA 
HETATM   18  C   UNL     1     -12.436  13.057  69.749  1.00  0.00     0.059 C  
HETATM   19  F   UNL     1     -13.046  14.261  69.875  1.00  0.00    -0.238 F  
HETATM   20  F   UNL     1     -13.380  12.134  70.094  1.00  0.00     0.461 F  
HETATM   21  S   UNL     1      -9.815  11.410  64.538  1.00  0.00    -0.259 S  
HETATM   22  F   UNL     1     -11.518  13.022  70.758  1.00  0.00    -0.083 F  
HETATM   23  O   UNL     1      -9.001  12.507  64.068  1.00  0.00     0.809 OA 
HETATM   24  H   UNL     1      -7.795  10.118  64.699  1.00  0.00     0.000 HD 
BRANCH  14  25
HETATM   25  C   UNL     1      -8.456   8.031  66.081  1.00  0.00    -0.141 C  
BRANCH  25  26
HETATM   26  C   UNL     1      -7.263   8.350  66.950  1.00  0.00    -0.079 A  
HETATM   27  C   UNL     1      -6.186   7.458  67.050  1.00  0.00    -0.047 A  
HETATM   28  C   UNL     1      -5.146   7.707  67.946  1.00  0.00    -0.030 A  
HETATM   29  C   UNL     1      -5.160   8.862  68.725  1.00  0.00    -0.033 A  
HETATM   30  C   UNL     1      -6.194   9.785  68.586  1.00  0.00    -0.042 A  
HETATM   31  C   UNL     1      -7.240   9.533  67.700  1.00  0.00    -0.082 A  
ENDBRANCH  25  26
ENDBRANCH  14  25
ENDBRANCH   4   7
TORSDOF 3
ENDMDL
MODEL      166
REMARK 921   NORMALIZED FREE ENERGY PREDICTED BY IDOCK:    5.63 KCAL/MOL
REMARK 922        TOTAL FREE ENERGY PREDICTED BY IDOCK:    6.47 KCAL/MOL
REMARK 923 INTER-LIGAND FREE ENERGY PREDICTED BY IDOCK:    6.67 KCAL/MOL
REMARK 924 INTRA-LIGAND FREE ENERGY PREDICTED BY IDOCK:   -0.20 KCAL/MOL
REMARK 927      BINDING AFFINITY PREDICTED BY RF-SCORE:    0.00 PKD
ROOT
HETATM    1  N   UNL     1     -11.040  11.726  63.418  1.00  0.00    -0.617 N  
HETATM    2  H1  UNL     1     -10.807  12.715  63.330  1.00  0.00     0.000 HD 
HETATM    3  H2  UNL     1     -11.984  11.342  63.474  1.00  0.00     0.000 HD 
HETATM    4  S   UNL     1      -9.623  10.832  63.457  1.00  0.00    -0.350 S  
HETATM    5  O   UNL     1      -8.842  11.341  62.355  1.00  0.00    -0.314 OA 
HETATM    6  O   UNL     1      -9.951   9.436  63.582  1.00  0.00     1.054 OA 
ENDROOT
BRANCH   4   7
HETATM    7  C   UNL     1      -8.890  11.383  64.980  1.00  0.00     0.155 A  
HETATM    8  C   UNL     1      -9.585  12.374  65.677  1.00  0.00    -0.120 A  
HETATM    9  C   UNL     1      -9.129  12.804  66.922  1.00  0.00    -0.221 A  
HETATM   10  C   UNL     1      -7.983  12.289  67.517  1.00  0.00    -0.166 A  
HETATM   11  C   UNL     1      -7.298  11.290  66.804  1.00  0.00    -0.146 A  
HETATM   12  N   UNL     1      -7.595  12.603  68.822  1.00  0.00    -0.270 NA 
HETATM   13  H   UNL     1      -7.010  11.966  69.362  1.00  0.00     0.000 HD 
HETATM   14  C   UNL     1      -8.049  13.868  69.390  1.00  0.00     0.500 C  
HETATM   15  C   UNL     1      -7.718  10.830  65.518  1.00  0.00    -0.020 A  
HETATM   16  N   UNL     1      -9.506  13.910  69.348  1.00  0.00    -0.120 N  
HETATM   17  O   UNL     1      -9.683  15.306  67.280  1.00  0.00    -0.211 OA 
HETATM   18  C   UNL     1      -6.852   9.779  64.860  1.00  0.00    -0.117 C  
HETATM   19  F   UNL     1      -7.274   9.271  63.676  1.00  0.00    -0.093 F  
HETATM   20  F   UNL     1      -5.593  10.250  64.624  1.00  0.00    -0.082 F  
HETATM   21  S   UNL     1     -10.075  14.005  67.774  1.00  0.00    -0.244 S  
HETATM   22  F   UNL     1      -6.680   8.692  65.667  1.00  0.00    -0.060 F  
HETATM   23  O   UNL     1     -11.458  13.589  67.799  1.00  0.00    -0.280 OA 
HETATM   24  H   UNL     1     -10.105  13.885  70.174  1.00  0.00     0.000 HD 
BRANCH  14  25
HETATM   25  C   UNL     1      -7.614  14.004  70.871  1.00  0.00     2.754 C  
BRANCH  25  26
HETATM   26  C   UNL     1      -6.820  15.257  71.154  1.00  0.00     1.214 A  
HETATM   27  C   UNL     1      -6.511  16.162  70.129  1.00  0.00     0.098 A  
HETATM   28  C   UNL     1      -5.678  17.252  70.378  1.00  0.00    -0.119 A  
HETATM   29  C   UNL     1      -5.172  17.463  71.659  1.00  0.00     0.271 A  
HETATM   30  C   UNL     1      -5.525  16.605  72.699  1.00  0.00     1.927 A  
HETATM   31  C   UNL     1      -6.349  15.509  72.450  1.00  0.00     2.250 A  
ENDBRANCH  25  26
ENDBRANCH  14  25
ENDBRANCH   4   7
TORSDOF 3
ENDMDL
MODEL      167
REMARK 921   NORMALIZED FREE ENERGY PREDICTED BY IDOCK:   11.93 KCAL/MOL
REMARK 922        TOTAL FREE ENERGY PREDICTED BY IDOCK:   13.88 KCAL/MOL
REMARK 923 INTER-LIGAND FREE ENERGY PREDICTED BY IDOCK:   11.70 KCAL/MOL
REMARK 924 INTRA-LIGAND FREE ENERGY PREDICTED BY IDOCK:    2.18 KCAL/MOL
REMARK 927      BINDING AFFINITY PREDICTED BY RF-SCORE:    0.00 PKD
ROOT
HETATM    1  N   UNL     1      -8.172  11.998  63.613  1.00  0.00     1.325 N  
HETATM    2  H1  UNL     1      -7.593  12.289  64.401  1.00  0.00     0.000 HD 
HETATM    3  H2  UNL     1      -8.126  12.383  62.670  1.00  0.00     0.000 HD 
HETATM    4  S   UNL     1      -9.213  10.784  64.118  1.00  0.00    -0.219 S  
HETATM    5  O   UNL     1      -8.369   9.857  64.833  1.00  0.00    -0.134 OA 
HETATM    6  O   UNL     1     -10.030  10.374  63.006  1.00  0.00    -0.237 OA 
ENDROOT
BRANCH   4   7
HETATM    7  C   UNL     1     -10.235  11.648  65.288  1.00  0.00    -0.272 A  
HETATM    8  C   UNL     1     -10.128  11.242  66.621  1.00  0.00    -0.251 A  
HETATM    9  C   UNL     1     -10.827  11.921  67.617  1.00  0.00    -0.227 A  
HETATM   10  C   UNL     1     -11.655  13.004  67.344  1.00  0.00    -0.356 A  
HETATM   11  C   UNL     1     -11.748  13.402  65.999  1.00  0.00    -0.398 A  
HETATM   12  N   UNL     1     -12.246  13.782  68.342  1.00  0.00    -0.443 NA 
HETATM   13  H   UNL     1     -12.516  14.749  68.162  1.00  0.00     0.000 HD 
HETATM   14  C   UNL     1     -12.467  13.173  69.649  1.00  0.00     0.073 C  
HETATM   15  C   UNL     1     -11.063  12.727  64.942  1.00  0.00    -0.324 A  
HETATM   16  N   UNL     1     -11.192  12.693  70.170  1.00  0.00    -0.324 N  
HETATM   17  O   UNL     1     -11.509  10.301  69.515  1.00  0.00    -0.242 OA 
HETATM   18  C   UNL     1     -11.298  13.249  63.542  1.00  0.00    -0.054 C  
HETATM   19  F   UNL     1     -10.598  12.675  62.534  1.00  0.00     0.511 F  
HETATM   20  F   UNL     1     -12.610  13.135  63.184  1.00  0.00    -0.495 F  
HETATM   21  S   UNL     1     -10.606  11.404  69.274  1.00  0.00    -0.039 S  
HETATM   22  F   UNL     1     -11.018  14.581  63.450  1.00  0.00     0.945 F  
HETATM   23  O   UNL     1      -9.193  11.302  69.554  1.00  0.00     0.266 OA 
HETATM   24  H   UNL     1     -10.716  13.093  70.980  1.00  0.00     0.000 HD 
BRANCH  14  25
HETATM   25  C   UNL     1     -13.032  14.204  70.658  1.00  0.00    -0.290 C  
BRANCH  25  26
HETATM   26  C   UNL     1     -11.973  14.850  71.520  1.00  0.00    -0.408 A  
HETATM   27  C   UNL     1     -10.613  14.590  71.304  1.00  0.00     1.430 A  
HETATM   28  C   UNL     1      -9.652  15.096  72.179  1.00  0.00     4.674 A  
HETATM   29  C   UNL     1     -10.040  15.890  73.257  1.00  0.00     6.896 A  
HETATM   30  C   UNL     1     -11.384  16.206  73.442  1.00  0.00     0.819 A  
HETATM   31  C   UNL     1     -12.348  15.692  72.575  1.00  0.00    -0.528 A  
ENDBRANCH  25  26
ENDBRANCH  14  25
ENDBRANCH   4   7
TORSDOF 3
ENDMDL
MODEL      168
REMARK 921   NORMALIZED FREE ENERGY PREDICTED BY IDOCK:   12.25 KCAL/MOL
REMARK 922        TOTAL FREE ENERGY PREDICTED BY IDOCK:   14.26 KCAL/MOL
REMARK 923 INTER-LIGAND FREE ENERGY PREDICTED BY IDOCK:   11.57 KCAL/MOL
REMARK 924 INTRA-LIGAND FREE ENERGY PREDICTED BY IDOCK:    2.69 KCAL/MOL
REMARK 927      BINDING AFFINITY PREDICTED BY RF-SCORE:    0.00 PKD
ROOT
HETATM    1  N   UNL     1      -6.045   9.644  66.191  1.00  0.00    -0.062 N  
HETATM    2  H1  UNL     1      -5.256  10.161  65.803  1.00  0.00     0.000 HD 
HETATM    3  H2  UNL     1      -6.518   8.859  65.743  1.00  0.00     0.000 HD 
HETATM    4  S   UNL     1      -6.440  10.292  67.686  1.00  0.00    -0.058 S  
HETATM    5  O   UNL     1      -5.179  10.401  68.379  1.00  0.00    -0.035 OA 
HETATM    6  O   UNL     1      -7.554   9.563  68.234  1.00  0.00    -0.078 OA 
ENDROOT
BRANCH   4   7
HETATM    7  C   UNL     1      -6.991  11.922  67.239  1.00  0.00    -0.145 A  
HETATM    8  C   UNL     1      -6.982  12.878  68.258  1.00  0.00    -0.099 A  
HETATM    9  C   UNL     1      -7.315  14.202  67.977  1.00  0.00    -0.140 A  
HETATM   10  C   UNL     1      -7.675  14.628  66.704  1.00  0.00     0.682 A  
HETATM   11  C   UNL     1      -7.675  13.654  65.691  1.00  0.00     4.835 A  
HETATM   12  N   UNL     1      -7.870  15.973  66.377  1.00  0.00    -0.223 NA 
HETATM   13  H   UNL     1      -7.756  16.301  65.418  1.00  0.00     0.000 HD 
HETATM   14  C   UNL     1      -8.242  16.894  67.446  1.00  0.00    -0.182 C  
HETATM   15  C   UNL     1      -7.357  12.283  65.934  1.00  0.00     1.800 A  
HETATM   16  N   UNL     1      -7.225  16.844  68.490  1.00  0.00    -0.188 N  
HETATM   17  O   UNL     1      -8.470  15.301  70.015  1.00  0.00    -0.003 OA 
HETATM   18  C   UNL     1      -7.443  11.348  64.748  1.00  0.00     1.380 C  
HETATM   19  F   UNL     1      -7.070  10.059  64.938  1.00  0.00    -0.113 F  
HETATM   20  F   UNL     1      -8.714  11.288  64.255  1.00  0.00    -0.066 F  
HETATM   21  S   UNL     1      -7.226  15.366  69.281  1.00  0.00    -0.201 S  
HETATM   22  F   UNL     1      -6.677  11.786  63.707  1.00  0.00     1.764 F  
HETATM   23  O   UNL     1      -5.949  15.240  69.943  1.00  0.00    -0.126 OA 
HETATM   24  H   UNL     1      -6.592  17.612  68.712  1.00  0.00     0.000 HD 
BRANCH  14  25
HETATM   25  C   UNL     1      -8.316  18.352  66.927  1.00  0.00    -0.261 C  
BRANCH  25  26
HETATM   26  C   UNL     1      -9.438  19.155  67.540  1.00  0.00    -0.365 A  
HETATM   27  C   UNL     1      -9.312  19.704  68.824  1.00  0.00    -0.368 A  
HETATM   28  C   UNL     1     -10.396  20.341  69.427  1.00  0.00     0.099 A  
HETATM   29  C   UNL     1     -11.603  20.462  68.740  1.00  0.00     2.771 A  
HETATM   30  C   UNL     1     -11.717  19.977  67.439  1.00  0.00     1.510 A  
HETATM   31  C   UNL     1     -10.638  19.329  66.839  1.00  0.00    -0.557 A  
ENDBRANCH  25  26
ENDBRANCH  14  25
ENDBRANCH   4   7
TORSDOF 3
ENDMDL
MODEL      169
REMARK 921   NORMALIZED FREE ENERGY PREDICTED BY IDOCK:   13.42 KCAL/MOL
REMARK 922        TOTAL FREE ENERGY PREDICTED BY IDOCK:   15.64 KCAL/MOL
REMARK 923 INTER-LIGAND FREE ENERGY PREDICTED BY IDOCK:   11.63 KCAL/MOL
REMARK 924 INTRA-LIGAND FREE ENERGY PREDICTED BY IDOCK:    4.00 KCAL/MOL
REMARK 927      BINDING AFFINITY PREDICTED BY RF-SCORE:    0.00 PKD
ROOT
HETATM    1  N   UNL     1     -11.323  10.836  62.951  1.00  0.00     0.011 N  
HETATM    2  H1  UNL     1     -10.761  10.176  63.488  1.00  0.00     0.000 HD 
HETATM    3  H2  UNL     1     -11.304  10.942  61.936  1.00  0.00     0.000 HD 
HETATM    4  S   UNL     1     -12.282  11.721  64.003  1.00  0.00    -0.164 S  
HETATM    5  O   UNL     1     -12.879  10.731  64.868  1.00  0.00     3.249 OA 
HETATM    6  O   UNL     1     -13.074  12.653  63.245  1.00  0.00    -0.455 OA 
ENDROOT
BRANCH   4   7
HETATM    7  C   UNL     1     -11.063  12.628  64.927  1.00  0.00    -0.296 A  
HETATM    8  C   UNL     1     -11.525  13.747  65.626  1.00  0.00    -0.318 A  
HETATM    9  C   UNL     1     -10.656  14.466  66.445  1.00  0.00    -0.297 A  
HETATM   10  C   UNL     1      -9.318  14.124  66.598  1.00  0.00    -0.282 A  
HETATM   11  C   UNL     1      -8.872  12.994  65.891  1.00  0.00     0.591 A  
HETATM   12  N   UNL     1      -8.474  14.744  67.523  1.00  0.00    -0.179 NA 
HETATM   13  H   UNL     1      -7.653  14.262  67.889  1.00  0.00     0.000 HD 
HETATM   14  C   UNL     1      -8.799  16.101  67.949  1.00  0.00    -0.182 C  
HETATM   15  C   UNL     1      -9.721  12.236  65.027  1.00  0.00    -0.080 A  
HETATM   16  N   UNL     1     -10.144  16.111  68.514  1.00  0.00    -0.234 N  
HETATM   17  O   UNL     1     -11.296  16.973  66.468  1.00  0.00     0.439 OA 
HETATM   18  C   UNL     1      -9.081  11.072  64.303  1.00  0.00    -0.102 C  
HETATM   19  F   UNL     1      -9.885  10.291  63.540  1.00  0.00    -0.338 F  
HETATM   20  F   UNL     1      -8.086  11.492  63.469  1.00  0.00     0.388 F  
HETATM   21  S   UNL     1     -11.306  15.821  67.342  1.00  0.00    -0.014 S  
HETATM   22  F   UNL     1      -8.477  10.210  65.172  1.00  0.00    -0.135 F  
HETATM   23  O   UNL     1     -12.505  15.403  68.030  1.00  0.00     0.374 OA 
HETATM   24  H   UNL     1     -10.351  16.274  69.500  1.00  0.00     0.000 HD 
BRANCH  14  25
HETATM   25  C   UNL     1      -7.821  16.591  69.047  1.00  0.00    -0.226 C  
BRANCH  25  26
HETATM   26  C   UNL     1      -8.301  17.824  69.777  1.00  0.00     1.306 A  
HETATM   27  C   UNL     1      -7.399  18.661  70.447  1.00  0.00     1.698 A  
HETATM   28  C   UNL     1      -7.865  19.727  71.215  1.00  0.00     2.186 A  
HETATM   29  C   UNL     1      -9.232  19.983  71.295  1.00  0.00     2.290 A  
HETATM   30  C   UNL     1     -10.132  19.195  70.581  1.00  0.00     1.689 A  
HETATM   31  C   UNL     1      -9.669  18.122  69.821  1.00  0.00     0.710 A  
ENDBRANCH  25  26
ENDBRANCH  14  25
ENDBRANCH   4   7
TORSDOF 3
ENDMDL
MODEL      170
REMARK 921   NORMALIZED FREE ENERGY PREDICTED BY IDOCK:   17.72 KCAL/MOL
REMARK 922        TOTAL FREE ENERGY PREDICTED BY IDOCK:   20.69 KCAL/MOL
REMARK 923 INTER-LIGAND FREE ENERGY PREDICTED BY IDOCK:   19.80 KCAL/MOL
REMARK 924 INTRA-LIGAND FREE ENERGY PREDICTED BY IDOCK:    0.89 KCAL/MOL
REMARK 927      BINDING AFFINITY PREDICTED BY RF-SCORE:    0.00 PKD
ROOT
HETATM    1  N   UNL     1     -11.444  14.184  63.796  1.00  0.00    -0.457 N  
HETATM    2  H1  UNL     1     -12.159  13.958  64.487  1.00  0.00     0.000 HD 
HETATM    3  H2  UNL     1     -11.039  13.530  63.127  1.00  0.00     0.000 HD 
HETATM    4  S   UNL     1     -11.041  15.805  63.937  1.00  0.00     1.511 S  
HETATM    5  O   UNL     1     -12.309  16.492  63.981  1.00  0.00    -0.523 OA 
HETATM    6  O   UNL     1     -10.031  16.124  62.963  1.00  0.00     7.438 OA 
ENDROOT
BRANCH   4   7
HETATM    7  C   UNL     1     -10.306  15.856  65.556  1.00  0.00    -0.400 A  
HETATM    8  C   UNL     1      -9.666  14.688  65.980  1.00  0.00    -0.340 A  
HETATM    9  C   UNL     1      -8.989  14.666  67.198  1.00  0.00    -0.225 A  
HETATM   10  C   UNL     1      -8.924  15.771  68.038  1.00  0.00    -0.178 A  
HETATM   11  C   UNL     1      -9.570  16.938  67.594  1.00  0.00    -0.248 A  
HETATM   12  N   UNL     1      -8.132  15.809  69.188  1.00  0.00    -0.223 NA 
HETATM   13  H   UNL     1      -7.800  16.696  69.567  1.00  0.00     0.000 HD 
HETATM   14  C   UNL     1      -7.794  14.545  69.833  1.00  0.00     0.399 C  
HETATM   15  C   UNL     1     -10.290  17.003  66.362  1.00  0.00    -0.304 A  
HETATM   16  N   UNL     1      -7.117  13.687  68.868  1.00  0.00    -0.110 N  
HETATM   17  O   UNL     1      -9.120  12.314  68.268  1.00  0.00    -0.194 OA 
HETATM   18  C   UNL     1     -10.967  18.318  66.043  1.00  0.00     0.242 C  
HETATM   19  F   UNL     1     -11.589  18.428  64.844  1.00  0.00     0.672 F  
HETATM   20  F   UNL     1     -11.917  18.625  66.974  1.00  0.00     1.035 F  
HETATM   21  S   UNL     1      -8.155  13.194  67.647  1.00  0.00    -0.191 S  
HETATM   22  F   UNL     1     -10.085  19.359  66.078  1.00  0.00    -0.405 F  
HETATM   23  O   UNL     1      -7.332  12.759  66.543  1.00  0.00     0.497 OA 
HETATM   24  H   UNL     1      -6.134  13.419  68.928  1.00  0.00     0.000 HD 
BRANCH  14  25
HETATM   25  C   UNL     1      -6.830  14.767  71.026  1.00  0.00     0.742 C  
BRANCH  25  26
HETATM   26  C   UNL     1      -6.387  16.202  71.187  1.00  0.00     1.455 A  
HETATM   27  C   UNL     1      -6.728  16.937  72.331  1.00  0.00     6.454 A  
HETATM   28  C   UNL     1      -6.416  18.293  72.415  1.00  0.00     3.590 A  
HETATM   29  C   UNL     1      -5.736  18.917  71.371  1.00  0.00     0.036 A  
HETATM   30  C   UNL     1      -5.337  18.180  70.258  1.00  0.00    -0.250 A  
HETATM   31  C   UNL     1      -5.657  16.826  70.167  1.00  0.00    -0.218 A  
ENDBRANCH  25  26
ENDBRANCH  14  25
ENDBRANCH   4   7
TORSDOF 3
ENDMDL
MODEL      171
REMARK 921   NORMALIZED FREE ENERGY PREDICTED BY IDOCK:   63.02 KCAL/MOL
REMARK 922        TOTAL FREE ENERGY PREDICTED BY IDOCK:   73.94 KCAL/MOL
REMARK 923 INTER-LIGAND FREE ENERGY PREDICTED BY IDOCK:   72.59 KCAL/MOL
REMARK 924 INTRA-LIGAND FREE ENERGY PREDICTED BY IDOCK:    1.35 KCAL/MOL
REMARK 927      BINDING AFFINITY PREDICTED BY RF-SCORE:    0.00 PKD
ROOT
HETATM    1  N   UNL     1     -11.430  13.832  72.858  1.00  0.00     2.049 N  
HETATM    2  H1  UNL     1     -12.131  14.559  72.711  1.00  0.00     0.000 HD 
HETATM    3  H2  UNL     1     -10.766  13.797  73.630  1.00  0.00     0.000 HD 
HETATM    4  S   UNL     1     -11.547  12.704  71.623  1.00  0.00     3.281 S  
HETATM    5  O   UNL     1     -12.956  12.405  71.537  1.00  0.00    -0.383 OA 
HETATM    6  O   UNL     1     -10.558  11.679  71.829  1.00  0.00     5.734 OA 
ENDROOT
BRANCH   4   7
HETATM    7  C   UNL     1     -11.079  13.670  70.206  1.00  0.00     0.484 A  
HETATM    8  C   UNL     1      -9.776  13.486  69.736  1.00  0.00     1.562 A  
HETATM    9  C   UNL     1      -9.351  14.137  68.579  1.00  0.00    -0.191 A  
HETATM   10  C   UNL     1     -10.177  14.989  67.855  1.00  0.00    -0.228 A  
HETATM   11  C   UNL     1     -11.486  15.159  68.339  1.00  0.00    -0.347 A  
HETATM   12  N   UNL     1      -9.816  15.533  66.620  1.00  0.00    -0.245 NA 
HETATM   13  H   UNL     1     -10.525  15.822  65.947  1.00  0.00     0.000 HD 
HETATM   14  C   UNL     1      -8.395  15.676  66.320  1.00  0.00    -0.057 C  
HETATM   15  C   UNL     1     -11.960  14.526  69.529  1.00  0.00    -0.363 A  
HETATM   16  N   UNL     1      -7.755  14.370  66.424  1.00  0.00     0.578 N  
HETATM   17  O   UNL     1      -6.830  14.697  68.724  1.00  0.00    -0.086 OA 
HETATM   18  C   UNL     1     -13.380  14.842  69.943  1.00  0.00     0.690 C  
HETATM   19  F   UNL     1     -13.877  14.192  71.024  1.00  0.00    -0.341 F  
HETATM   20  F   UNL     1     -13.533  16.171  70.216  1.00  0.00     0.198 F  
HETATM   21  S   UNL     1      -7.728  13.820  68.007  1.00  0.00    -0.171 S  
HETATM   22  F   UNL     1     -14.265  14.581  68.938  1.00  0.00     4.662 F  
HETATM   23  O   UNL     1      -7.513  12.393  67.955  1.00  0.00    -0.094 OA 
HETATM   24  H   UNL     1      -7.371  13.854  65.631  1.00  0.00     0.000 HD 
BRANCH  14  25
HETATM   25  C   UNL     1      -8.178  16.196  64.876  1.00  0.00     5.432 C  
BRANCH  25  26
HETATM   26  C   UNL     1      -9.321  17.036  64.359  1.00  0.00     5.925 A  
HETATM   27  C   UNL     1     -10.532  16.445  63.971  1.00  0.00     2.836 A  
HETATM   28  C   UNL     1     -11.536  17.215  63.385  1.00  0.00     6.271 A  
HETATM   29  C   UNL     1     -11.350  18.585  63.209  1.00  0.00    14.010 A  
HETATM   30  C   UNL     1     -10.176  19.192  63.650  1.00  0.00    12.573 A  
HETATM   31  C   UNL     1      -9.167  18.422  64.226  1.00  0.00     8.812 A  
ENDBRANCH  25  26
ENDBRANCH  14  25
ENDBRANCH   4   7
TORSDOF 3
ENDMDL
