MODEL        1
REMARK 921   NORMALIZED FREE ENERGY PREDICTED BY IDOCK:   -6.32 KCAL/MOL
REMARK 922        TOTAL FREE ENERGY PREDICTED BY IDOCK:   -9.32 KCAL/MOL
REMARK 923 INTER-LIGAND FREE ENERGY PREDICTED BY IDOCK:   -8.54 KCAL/MOL
REMARK 924 INTRA-LIGAND FREE ENERGY PREDICTED BY IDOCK:   -0.78 KCAL/MOL
REMARK 927      BINDING AFFINITY PREDICTED BY RF-SCORE:    0.00 PKD
ROOT
HETATM    1  C   UNL     1     -12.877  14.108  70.774  1.00  0.00    -0.310 C  
HETATM    2  N   UNL     1     -12.233  13.065  70.006  1.00  0.00    -0.276 NA 
HETATM    3  C   UNL     1     -11.621  13.164  68.773  1.00  0.00    -0.308 A  
HETATM    4  C   UNL     1     -12.151  11.752  70.420  1.00  0.00    -0.352 A  
HETATM    5  N   UNL     1     -11.136  11.994  68.403  1.00  0.00    -0.226 NA 
HETATM    6  C   UNL     1     -12.594  11.062  71.552  1.00  0.00    -0.461 A  
HETATM    7  C   UNL     1     -11.468  11.115  69.399  1.00  0.00    -0.298 A  
HETATM    8  C   UNL     1     -12.310   9.681  71.615  1.00  0.00    -0.489 A  
HETATM    9  C   UNL     1     -11.211   9.740  69.488  1.00  0.00    -0.181 A  
HETATM   10  C   UNL     1     -11.609   8.990  70.611  1.00  0.00    -0.224 A  
ENDROOT
BRANCH   3  11
HETATM   11  C   UNL     1     -11.513  14.388  67.916  1.00  0.00    -0.346 C  
BRANCH  11  12
HETATM   12  C   UNL     1     -12.053  14.086  66.512  1.00  0.00    -0.488 C  
BRANCH  12  13
HETATM   13  C   UNL     1     -11.174  14.661  65.408  1.00  0.00    -0.347 C  
HETATM   14  O   UNL     1     -12.608  14.068  63.578  1.00  0.00    -0.842 OA 
HETATM   15  O   UNL     1     -12.079  16.245  63.831  1.00  0.00    -0.986 OA 
HETATM   16  C   UNL     1     -11.994  15.087  64.213  1.00  0.00    -0.295 C  
ENDBRANCH  12  13
ENDBRANCH  11  12
ENDBRANCH   3  11
BRANCH  10  17
HETATM   17  N   UNL     1     -11.295   7.638  70.713  1.00  0.00    -0.279 NA 
BRANCH  17  18
HETATM   18  C   UNL     1     -12.063   6.696  71.548  1.00  0.00    -0.355 C  
HETATM   19 CL   UNL     1     -10.430   7.127  73.732  1.00  0.00    -0.409 Cl 
HETATM   20  C   UNL     1     -11.213   5.984  72.606  1.00  0.00    -0.285 C  
ENDBRANCH  17  18
BRANCH  17  21
HETATM   21  C   UNL     1     -10.058   7.118  70.092  1.00  0.00    -0.188 C  
HETATM   22 CL   UNL     1     -11.262   6.575  67.672  1.00  0.00    -0.368 Cl 
HETATM   23  C   UNL     1     -10.308   6.003  69.069  1.00  0.00    -0.225 C  
ENDBRANCH  17  21
ENDBRANCH  10  17
TORSDOF 6
ENDMDL
MODEL        2
REMARK 921   NORMALIZED FREE ENERGY PREDICTED BY IDOCK:   -6.29 KCAL/MOL
REMARK 922        TOTAL FREE ENERGY PREDICTED BY IDOCK:   -9.27 KCAL/MOL
REMARK 923 INTER-LIGAND FREE ENERGY PREDICTED BY IDOCK:   -8.49 KCAL/MOL
REMARK 924 INTRA-LIGAND FREE ENERGY PREDICTED BY IDOCK:   -0.78 KCAL/MOL
REMARK 927      BINDING AFFINITY PREDICTED BY RF-SCORE:    0.00 PKD
ROOT
HETATM    1  C   UNL     1     -12.971  14.087  70.903  1.00  0.00    -0.277 C  
HETATM    2  N   UNL     1     -12.225  13.136  70.110  1.00  0.00    -0.318 NA 
HETATM    3  C   UNL     1     -11.552  13.351  68.925  1.00  0.00    -0.314 A  
HETATM    4  C   UNL     1     -12.090  11.804  70.442  1.00  0.00    -0.352 A  
HETATM    5  N   UNL     1     -10.980  12.237  68.510  1.00  0.00    -0.227 NA 
HETATM    6  C   UNL     1     -12.555  11.016  71.498  1.00  0.00    -0.461 A  
HETATM    7  C   UNL     1     -11.315  11.276  69.425  1.00  0.00    -0.292 A  
HETATM    8  C   UNL     1     -12.194   9.652  71.489  1.00  0.00    -0.483 A  
HETATM    9  C   UNL     1     -10.983   9.914  69.440  1.00  0.00    -0.263 A  
HETATM   10  C   UNL     1     -11.400   9.069  70.487  1.00  0.00    -0.243 A  
ENDROOT
BRANCH   3  11
HETATM   11  C   UNL     1     -11.468  14.634  68.155  1.00  0.00    -0.346 C  
BRANCH  11  12
HETATM   12  C   UNL     1     -12.022  14.428  66.740  1.00  0.00    -0.423 C  
BRANCH  12  13
HETATM   13  C   UNL     1     -11.019  14.801  65.656  1.00  0.00    -0.345 C  
HETATM   14  O   UNL     1     -12.557  14.710  63.816  1.00  0.00    -0.820 OA 
HETATM   15  O   UNL     1     -11.462  16.650  64.172  1.00  0.00    -1.131 OA 
HETATM   16  C   UNL     1     -11.691  15.493  64.494  1.00  0.00    -0.253 C  
ENDBRANCH  12  13
ENDBRANCH  11  12
ENDBRANCH   3  11
BRANCH  10  17
HETATM   17  N   UNL     1     -11.014   7.732  70.520  1.00  0.00    -0.243 NA 
BRANCH  17  18
HETATM   18  C   UNL     1      -9.795   7.231  69.859  1.00  0.00    -0.178 C  
HETATM   19 CL   UNL     1     -11.154   6.689  67.517  1.00  0.00    -0.398 Cl 
HETATM   20  C   UNL     1     -10.069   6.136  68.822  1.00  0.00    -0.169 C  
ENDBRANCH  17  18
BRANCH  17  21
HETATM   21  C   UNL     1     -11.917   6.718  71.105  1.00  0.00    -0.370 C  
HETATM   22 CL   UNL     1     -10.829   6.916  73.631  1.00  0.00    -0.293 Cl 
HETATM   23  C   UNL     1     -11.271   5.900  72.231  1.00  0.00    -0.291 C  
ENDBRANCH  17  21
ENDBRANCH  10  17
TORSDOF 6
ENDMDL
MODEL        3
REMARK 921   NORMALIZED FREE ENERGY PREDICTED BY IDOCK:   -6.19 KCAL/MOL
REMARK 922        TOTAL FREE ENERGY PREDICTED BY IDOCK:   -9.13 KCAL/MOL
REMARK 923 INTER-LIGAND FREE ENERGY PREDICTED BY IDOCK:   -8.51 KCAL/MOL
REMARK 924 INTRA-LIGAND FREE ENERGY PREDICTED BY IDOCK:   -0.62 KCAL/MOL
REMARK 927      BINDING AFFINITY PREDICTED BY RF-SCORE:    0.00 PKD
ROOT
HETATM    1  C   UNL     1     -10.066  10.402  65.291  1.00  0.00    -0.300 C  
HETATM    2  N   UNL     1     -10.767  10.867  66.467  1.00  0.00    -0.238 NA 
HETATM    3  C   UNL     1     -11.533  12.005  66.613  1.00  0.00    -0.346 A  
HETATM    4  C   UNL     1     -10.751  10.204  67.676  1.00  0.00    -0.285 A  
HETATM    5  N   UNL     1     -12.021  12.080  67.837  1.00  0.00    -0.547 NA 
HETATM    6  C   UNL     1     -10.146   9.029  68.132  1.00  0.00    -0.229 A  
HETATM    7  C   UNL     1     -11.536  10.987  68.505  1.00  0.00    -0.309 A  
HETATM    8  C   UNL     1     -10.373   8.669  69.477  1.00  0.00    -0.214 A  
HETATM    9  C   UNL     1     -11.733  10.606  69.839  1.00  0.00    -0.395 A  
HETATM   10  C   UNL     1     -11.171   9.423  70.355  1.00  0.00    -0.262 A  
ENDROOT
BRANCH   3  11
HETATM   11  C   UNL     1     -11.789  13.058  65.579  1.00  0.00    -0.438 C  
BRANCH  11  12
HETATM   12  C   UNL     1     -11.633  14.450  66.206  1.00  0.00    -0.377 C  
BRANCH  12  13
HETATM   13  C   UNL     1     -10.448  15.221  65.639  1.00  0.00    -0.377 C  
HETATM   14  O   UNL     1     -11.636  16.261  63.832  1.00  0.00    -0.987 OA 
HETATM   15  O   UNL     1     -10.592  17.606  65.311  1.00  0.00    -0.663 OA 
HETATM   16  C   UNL     1     -10.893  16.482  64.937  1.00  0.00    -0.204 C  
ENDBRANCH  12  13
ENDBRANCH  11  12
ENDBRANCH   3  11
BRANCH  10  17
HETATM   17  N   UNL     1     -11.423   9.025  71.665  1.00  0.00    -0.336 NA 
BRANCH  17  18
HETATM   18  C   UNL     1     -12.679   9.338  72.371  1.00  0.00    -0.313 C  
HETATM   19 CL   UNL     1     -13.935   7.095  71.364  1.00  0.00    -0.445 Cl 
HETATM   20  C   UNL     1     -13.932   8.860  71.630  1.00  0.00    -0.362 C  
ENDBRANCH  17  18
BRANCH  17  21
HETATM   21  C   UNL     1     -10.352   8.393  72.464  1.00  0.00    -0.301 C  
HETATM   22 CL   UNL     1     -10.800   5.872  71.438  1.00  0.00    -0.324 Cl 
HETATM   23  C   UNL     1     -10.659   6.943  72.860  1.00  0.00    -0.261 C  
ENDBRANCH  17  21
ENDBRANCH  10  17
TORSDOF 6
ENDMDL
MODEL        4
REMARK 921   NORMALIZED FREE ENERGY PREDICTED BY IDOCK:   -6.06 KCAL/MOL
REMARK 922        TOTAL FREE ENERGY PREDICTED BY IDOCK:   -8.97 KCAL/MOL
REMARK 923 INTER-LIGAND FREE ENERGY PREDICTED BY IDOCK:   -8.11 KCAL/MOL
REMARK 924 INTRA-LIGAND FREE ENERGY PREDICTED BY IDOCK:   -0.86 KCAL/MOL
REMARK 927      BINDING AFFINITY PREDICTED BY RF-SCORE:    0.00 PKD
ROOT
HETATM    1  C   UNL     1     -12.376  10.778  71.526  1.00  0.00    -0.276 C  
HETATM    2  N   UNL     1     -12.153  11.658  70.402  1.00  0.00    -0.374 NA 
HETATM    3  C   UNL     1     -12.398  13.014  70.314  1.00  0.00    -0.241 A  
HETATM    4  C   UNL     1     -11.651  11.235  69.189  1.00  0.00    -0.319 A  
HETATM    5  N   UNL     1     -12.051  13.469  69.125  1.00  0.00    -0.320 NA 
HETATM    6  C   UNL     1     -11.242   9.997  68.686  1.00  0.00    -0.175 A  
HETATM    7  C   UNL     1     -11.605  12.385  68.419  1.00  0.00    -0.324 A  
HETATM    8  C   UNL     1     -10.772   9.966  67.357  1.00  0.00    -0.323 A  
HETATM    9  C   UNL     1     -11.142  12.318  67.098  1.00  0.00    -0.330 A  
HETATM   10  C   UNL     1     -10.694  11.106  66.538  1.00  0.00    -0.260 A  
ENDROOT
BRANCH   3  11
HETATM   11  C   UNL     1     -12.994  13.892  71.371  1.00  0.00    -0.430 C  
BRANCH  11  12
HETATM   12  C   UNL     1     -12.669  15.361  71.069  1.00  0.00    -0.510 C  
BRANCH  12  13
HETATM   13  C   UNL     1     -12.000  16.067  72.242  1.00  0.00    -0.633 C  
HETATM   14  O   UNL     1     -14.001  16.446  73.511  1.00  0.00    -0.408 OA 
HETATM   15  O   UNL     1     -12.342  15.277  74.495  1.00  0.00    -0.629 OA 
HETATM   16  C   UNL     1     -12.779  15.874  73.521  1.00  0.00    -0.585 C  
ENDBRANCH  12  13
ENDBRANCH  11  12
ENDBRANCH   3  11
BRANCH  10  17
HETATM   17  N   UNL     1     -10.182  11.065  65.244  1.00  0.00    -0.270 NA 
BRANCH  17  18
HETATM   18  C   UNL     1      -9.506   9.880  64.685  1.00  0.00    -0.278 C  
HETATM   19 CL   UNL     1      -7.143  10.479  65.982  1.00  0.00    -0.133 Cl 
HETATM   20  C   UNL     1      -8.002  10.081  64.469  1.00  0.00    -0.148 C  
ENDBRANCH  17  18
BRANCH  17  21
HETATM   21  C   UNL     1     -10.163  12.292  64.418  1.00  0.00    -0.314 C  
HETATM   22 CL   UNL     1     -12.687  11.877  63.387  1.00  0.00    -0.655 Cl 
HETATM   23  C   UNL     1     -10.946  12.158  63.106  1.00  0.00    -0.177 C  
ENDBRANCH  17  21
ENDBRANCH  10  17
TORSDOF 6
ENDMDL
MODEL        5
REMARK 921   NORMALIZED FREE ENERGY PREDICTED BY IDOCK:   -6.02 KCAL/MOL
REMARK 922        TOTAL FREE ENERGY PREDICTED BY IDOCK:   -8.91 KCAL/MOL
REMARK 923 INTER-LIGAND FREE ENERGY PREDICTED BY IDOCK:   -8.11 KCAL/MOL
REMARK 924 INTRA-LIGAND FREE ENERGY PREDICTED BY IDOCK:   -0.80 KCAL/MOL
REMARK 927      BINDING AFFINITY PREDICTED BY RF-SCORE:    0.00 PKD
ROOT
HETATM    1  C   UNL     1     -11.894  14.007  67.086  1.00  0.00    -0.411 C  
HETATM    2  N   UNL     1     -11.845  13.274  68.331  1.00  0.00    -0.354 NA 
HETATM    3  C   UNL     1     -12.069  13.742  69.610  1.00  0.00    -0.336 A  
HETATM    4  C   UNL     1     -11.536  11.932  68.415  1.00  0.00    -0.299 A  
HETATM    5  N   UNL     1     -11.945  12.765  70.488  1.00  0.00    -0.276 NA 
HETATM    6  C   UNL     1     -11.207  10.951  67.476  1.00  0.00    -0.364 A  
HETATM    7  C   UNL     1     -11.602  11.651  69.769  1.00  0.00    -0.315 A  
HETATM    8  C   UNL     1     -10.950   9.653  67.964  1.00  0.00    -0.197 A  
HETATM    9  C   UNL     1     -11.332  10.353  70.223  1.00  0.00    -0.406 A  
HETATM   10  C   UNL     1     -11.017   9.313  69.327  1.00  0.00    -0.085 A  
ENDROOT
BRANCH   3  11
HETATM   11  C   UNL     1     -12.384  15.151  70.012  1.00  0.00    -0.356 C  
BRANCH  11  12
HETATM   12  C   UNL     1     -11.502  15.561  71.198  1.00  0.00    -0.442 C  
BRANCH  12  13
HETATM   13  C   UNL     1     -12.300  16.181  72.338  1.00  0.00    -0.554 C  
HETATM   14  O   UNL     1     -13.451  14.179  72.988  1.00  0.00    -0.661 OA 
HETATM   15  O   UNL     1     -12.207  15.226  74.550  1.00  0.00    -0.634 OA 
HETATM   16  C   UNL     1     -12.626  15.162  73.404  1.00  0.00    -0.531 C  
ENDBRANCH  12  13
ENDBRANCH  11  12
ENDBRANCH   3  11
BRANCH  10  17
HETATM   17  N   UNL     1     -10.808   8.016  69.786  1.00  0.00    -0.229 NA 
BRANCH  17  18
HETATM   18  C   UNL     1      -9.663   7.189  69.362  1.00  0.00    -0.160 C  
HETATM   19 CL   UNL     1     -11.014   6.260  67.140  1.00  0.00    -0.448 Cl 
HETATM   20  C   UNL     1     -10.073   5.914  68.617  1.00  0.00    -0.168 C  
ENDBRANCH  17  18
BRANCH  17  21
HETATM   21  C   UNL     1     -11.835   7.352  70.616  1.00  0.00    -0.215 C  
HETATM   22 CL   UNL     1     -10.665   8.082  73.004  1.00  0.00    -0.402 Cl 
HETATM   23  C   UNL     1     -11.289   6.794  71.936  1.00  0.00    -0.271 C  
ENDBRANCH  17  21
ENDBRANCH  10  17
TORSDOF 6
ENDMDL
MODEL        6
REMARK 921   NORMALIZED FREE ENERGY PREDICTED BY IDOCK:   -5.99 KCAL/MOL
REMARK 922        TOTAL FREE ENERGY PREDICTED BY IDOCK:   -8.87 KCAL/MOL
REMARK 923 INTER-LIGAND FREE ENERGY PREDICTED BY IDOCK:   -7.95 KCAL/MOL
REMARK 924 INTRA-LIGAND FREE ENERGY PREDICTED BY IDOCK:   -0.92 KCAL/MOL
REMARK 927      BINDING AFFINITY PREDICTED BY RF-SCORE:    0.00 PKD
ROOT
HETATM    1  C   UNL     1     -10.939  14.129  68.236  1.00  0.00    -0.251 C  
HETATM    2  N   UNL     1     -11.469  13.192  69.202  1.00  0.00    -0.289 NA 
HETATM    3  C   UNL     1     -12.285  13.448  70.284  1.00  0.00    -0.335 A  
HETATM    4  C   UNL     1     -11.202  11.839  69.178  1.00  0.00    -0.264 A  
HETATM    5  N   UNL     1     -12.567  12.329  70.924  1.00  0.00    -0.304 NA 
HETATM    6  C   UNL     1     -10.441  11.014  68.344  1.00  0.00    -0.203 A  
HETATM    7  C   UNL     1     -11.896  11.335  70.264  1.00  0.00    -0.357 A  
HETATM    8  C   UNL     1     -10.414   9.638  68.653  1.00  0.00    -0.235 A  
HETATM    9  C   UNL     1     -11.840   9.965  70.549  1.00  0.00    -0.350 A  
HETATM   10  C   UNL     1     -11.111   9.075  69.737  1.00  0.00    -0.104 A  
ENDROOT
BRANCH   3  11
HETATM   11  C   UNL     1     -12.789  14.784  70.738  1.00  0.00    -0.418 C  
BRANCH  11  12
HETATM   12  C   UNL     1     -13.920  14.594  71.756  1.00  0.00    -0.564 C  
BRANCH  12  13
HETATM   13  C   UNL     1     -13.980  15.716  72.785  1.00  0.00    -0.563 C  
HETATM   14  O   UNL     1     -12.391  14.771  74.314  1.00  0.00    -0.535 OA 
HETATM   15  O   UNL     1     -11.960  16.827  73.493  1.00  0.00    -0.416 OA 
HETATM   16  C   UNL     1     -12.681  15.841  73.544  1.00  0.00    -0.575 C  
ENDBRANCH  12  13
ENDBRANCH  11  12
ENDBRANCH   3  11
BRANCH  10  17
HETATM   17  N   UNL     1     -11.112   7.708  69.997  1.00  0.00    -0.231 NA 
BRANCH  17  18
HETATM   18  C   UNL     1     -12.103   7.057  70.872  1.00  0.00    -0.357 C  
HETATM   19 CL   UNL     1     -10.720   7.766  73.154  1.00  0.00    -0.444 Cl 
HETATM   20  C   UNL     1     -11.503   6.501  72.168  1.00  0.00    -0.292 C  
ENDBRANCH  17  18
BRANCH  17  21
HETATM   21  C   UNL     1      -9.997   6.864  69.514  1.00  0.00    -0.164 C  
HETATM   22 CL   UNL     1     -11.083   6.518  67.003  1.00  0.00    -0.476 Cl 
HETATM   23  C   UNL     1     -10.432   5.797  68.502  1.00  0.00    -0.225 C  
ENDBRANCH  17  21
ENDBRANCH  10  17
TORSDOF 6
ENDMDL
MODEL        7
REMARK 921   NORMALIZED FREE ENERGY PREDICTED BY IDOCK:   -5.95 KCAL/MOL
REMARK 922        TOTAL FREE ENERGY PREDICTED BY IDOCK:   -8.82 KCAL/MOL
REMARK 923 INTER-LIGAND FREE ENERGY PREDICTED BY IDOCK:   -8.14 KCAL/MOL
REMARK 924 INTRA-LIGAND FREE ENERGY PREDICTED BY IDOCK:   -0.67 KCAL/MOL
REMARK 927      BINDING AFFINITY PREDICTED BY RF-SCORE:    0.00 PKD
ROOT
HETATM    1  C   UNL     1     -13.744  13.404  72.571  1.00  0.00    -0.531 C  
HETATM    2  N   UNL     1     -13.030  12.877  71.429  1.00  0.00    -0.328 NA 
HETATM    3  C   UNL     1     -12.748  11.560  71.129  1.00  0.00    -0.356 A  
HETATM    4  C   UNL     1     -12.492  13.667  70.434  1.00  0.00    -0.294 A  
HETATM    5  N   UNL     1     -12.087  11.477  69.990  1.00  0.00    -0.330 NA 
HETATM    6  C   UNL     1     -12.446  15.045  70.207  1.00  0.00    -0.385 A  
HETATM    7  C   UNL     1     -11.910  12.765  69.561  1.00  0.00    -0.316 A  
HETATM    8  C   UNL     1     -11.783  15.483  69.042  1.00  0.00    -0.392 A  
HETATM    9  C   UNL     1     -11.251  13.233  68.416  1.00  0.00    -0.314 A  
HETATM   10  C   UNL     1     -11.188  14.608  68.116  1.00  0.00    -0.289 A  
ENDROOT
BRANCH   3  11
HETATM   11  C   UNL     1     -13.090  10.355  71.952  1.00  0.00    -0.563 C  
BRANCH  11  12
HETATM   12  C   UNL     1     -12.250   9.157  71.491  1.00  0.00    -0.422 C  
BRANCH  12  13
HETATM   13  C   UNL     1     -12.936   7.822  71.753  1.00  0.00    -0.351 C  
HETATM   14  O   UNL     1     -11.755   6.574  70.078  1.00  0.00    -0.416 OA 
HETATM   15  O   UNL     1     -11.626   5.850  72.210  1.00  0.00    -0.303 OA 
HETATM   16  C   UNL     1     -12.040   6.660  71.395  1.00  0.00    -0.347 C  
ENDBRANCH  12  13
ENDBRANCH  11  12
ENDBRANCH   3  11
BRANCH  10  17
HETATM   17  N   UNL     1     -10.581  15.055  66.946  1.00  0.00    -0.291 NA 
BRANCH  17  18
HETATM   18  C   UNL     1      -9.314  15.809  66.937  1.00  0.00    -0.227 C  
HETATM   19 CL   UNL     1     -10.613  18.217  67.307  1.00  0.00    -0.404 Cl 
HETATM   20  C   UNL     1      -9.452  17.229  66.378  1.00  0.00    -0.263 C  
ENDBRANCH  17  18
BRANCH  17  21
HETATM   21  C   UNL     1     -11.283  14.920  65.652  1.00  0.00    -0.347 C  
HETATM   22 CL   UNL     1     -10.338  12.374  65.178  1.00  0.00    -0.305 Cl 
HETATM   23  C   UNL     1     -10.524  14.063  64.631  1.00  0.00    -0.373 C  
ENDBRANCH  17  21
ENDBRANCH  10  17
TORSDOF 6
ENDMDL
MODEL        8
REMARK 921   NORMALIZED FREE ENERGY PREDICTED BY IDOCK:   -5.93 KCAL/MOL
REMARK 922        TOTAL FREE ENERGY PREDICTED BY IDOCK:   -8.79 KCAL/MOL
REMARK 923 INTER-LIGAND FREE ENERGY PREDICTED BY IDOCK:   -8.08 KCAL/MOL
REMARK 924 INTRA-LIGAND FREE ENERGY PREDICTED BY IDOCK:   -0.71 KCAL/MOL
REMARK 927      BINDING AFFINITY PREDICTED BY RF-SCORE:    0.00 PKD
ROOT
HETATM    1  C   UNL     1     -12.169  10.508  71.252  1.00  0.00    -0.368 C  
HETATM    2  N   UNL     1     -11.949  11.463  70.189  1.00  0.00    -0.352 NA 
HETATM    3  C   UNL     1     -12.162  12.826  70.206  1.00  0.00    -0.277 A  
HETATM    4  C   UNL     1     -11.483  11.119  68.938  1.00  0.00    -0.295 A  
HETATM    5  N   UNL     1     -11.831  13.360  69.046  1.00  0.00    -0.322 NA 
HETATM    6  C   UNL     1     -11.116   9.911  68.337  1.00  0.00    -0.193 A  
HETATM    7  C   UNL     1     -11.426  12.320  68.252  1.00  0.00    -0.315 A  
HETATM    8  C   UNL     1     -10.675   9.967  66.998  1.00  0.00    -0.248 A  
HETATM    9  C   UNL     1     -10.994  12.339  66.920  1.00  0.00    -0.312 A  
HETATM   10  C   UNL     1     -10.587  11.162  66.263  1.00  0.00    -0.253 A  
ENDROOT
BRANCH   3  11
HETATM   11  C   UNL     1     -12.715  13.639  71.338  1.00  0.00    -0.437 C  
BRANCH  11  12
HETATM   12  C   UNL     1     -12.571  15.133  71.022  1.00  0.00    -0.441 C  
BRANCH  12  13
HETATM   13  C   UNL     1     -11.938  15.917  72.165  1.00  0.00    -0.612 C  
HETATM   14  O   UNL     1     -13.952  16.229  73.432  1.00  0.00    -0.500 OA 
HETATM   15  O   UNL     1     -12.226  15.190  74.446  1.00  0.00    -0.634 OA 
HETATM   16  C   UNL     1     -12.699  15.726  73.455  1.00  0.00    -0.575 C  
ENDBRANCH  12  13
ENDBRANCH  11  12
ENDBRANCH   3  11
BRANCH  10  17
HETATM   17  N   UNL     1     -10.104  11.204  64.958  1.00  0.00    -0.264 NA 
BRANCH  17  18
HETATM   18  C   UNL     1     -10.281  12.370  64.074  1.00  0.00    -0.375 C  
HETATM   19 CL   UNL     1     -13.033  12.178  64.184  1.00  0.00    -0.384 Cl 
HETATM   20  C   UNL     1     -11.543  12.294  63.207  1.00  0.00    -0.351 C  
ENDBRANCH  17  18
BRANCH  17  21
HETATM   21  C   UNL     1      -9.518   9.991  64.349  1.00  0.00    -0.286 C  
HETATM   22 CL   UNL     1      -7.119  10.237  65.687  1.00  0.00    -0.132 Cl 
HETATM   23  C   UNL     1      -8.000  10.083  64.141  1.00  0.00    -0.152 C  
ENDBRANCH  17  21
ENDBRANCH  10  17
TORSDOF 6
ENDMDL
MODEL        9
REMARK 921   NORMALIZED FREE ENERGY PREDICTED BY IDOCK:   -5.92 KCAL/MOL
REMARK 922        TOTAL FREE ENERGY PREDICTED BY IDOCK:   -8.78 KCAL/MOL
REMARK 923 INTER-LIGAND FREE ENERGY PREDICTED BY IDOCK:   -7.82 KCAL/MOL
REMARK 924 INTRA-LIGAND FREE ENERGY PREDICTED BY IDOCK:   -0.95 KCAL/MOL
REMARK 927      BINDING AFFINITY PREDICTED BY RF-SCORE:    0.00 PKD
ROOT
HETATM    1  C   UNL     1     -10.331  11.915  63.832  1.00  0.00    -0.389 C  
HETATM    2  N   UNL     1     -10.773  11.583  65.167  1.00  0.00    -0.294 NA 
HETATM    3  C   UNL     1     -11.606  12.305  65.998  1.00  0.00    -0.393 A  
HETATM    4  C   UNL     1     -10.390  10.439  65.836  1.00  0.00    -0.190 A  
HETATM    5  N   UNL     1     -11.787  11.666  67.138  1.00  0.00    -0.607 NA 
HETATM    6  C   UNL     1      -9.562   9.359  65.516  1.00  0.00    -0.328 A  
HETATM    7  C   UNL     1     -11.034  10.525  67.058  1.00  0.00    -0.180 A  
HETATM    8  C   UNL     1      -9.414   8.351  66.492  1.00  0.00    -0.284 A  
HETATM    9  C   UNL     1     -10.858   9.512  68.009  1.00  0.00    -0.225 A  
HETATM   10  C   UNL     1     -10.056   8.386  67.742  1.00  0.00    -0.207 A  
ENDROOT
BRANCH   3  11
HETATM   11  C   UNL     1     -12.223  13.640  65.716  1.00  0.00    -0.503 C  
BRANCH  11  12
HETATM   12  C   UNL     1     -11.508  14.725  66.532  1.00  0.00    -0.328 C  
BRANCH  12  13
HETATM   13  C   UNL     1     -10.246  15.237  65.851  1.00  0.00    -0.353 C  
HETATM   14  O   UNL     1     -11.339  16.763  64.356  1.00  0.00    -1.089 OA 
HETATM   15  O   UNL     1      -9.786  17.603  65.759  1.00  0.00    -0.539 OA 
HETATM   16  C   UNL     1     -10.425  16.648  65.342  1.00  0.00    -0.233 C  
ENDBRANCH  12  13
ENDBRANCH  11  12
ENDBRANCH   3  11
BRANCH  10  17
HETATM   17  N   UNL     1      -9.936   7.358  68.673  1.00  0.00    -0.164 NA 
BRANCH  17  18
HETATM   18  C   UNL     1      -8.654   6.986  69.298  1.00  0.00    -0.136 C  
HETATM   19 CL   UNL     1      -8.710   9.176  70.979  1.00  0.00    -0.271 Cl 
HETATM   20  C   UNL     1      -7.835   8.191  69.775  1.00  0.00    -0.105 C  
ENDBRANCH  17  18
BRANCH  17  21
HETATM   21  C   UNL     1     -11.093   6.483  68.960  1.00  0.00    -0.310 C  
HETATM   22 CL   UNL     1     -11.945   7.977  71.116  1.00  0.00    -0.302 Cl 
HETATM   23  C   UNL     1     -11.441   6.397  70.451  1.00  0.00    -0.393 C  
ENDBRANCH  17  21
ENDBRANCH  10  17
TORSDOF 6
ENDMDL
MODEL       10
REMARK 921   NORMALIZED FREE ENERGY PREDICTED BY IDOCK:   -5.91 KCAL/MOL
REMARK 922        TOTAL FREE ENERGY PREDICTED BY IDOCK:   -8.76 KCAL/MOL
REMARK 923 INTER-LIGAND FREE ENERGY PREDICTED BY IDOCK:   -7.89 KCAL/MOL
REMARK 924 INTRA-LIGAND FREE ENERGY PREDICTED BY IDOCK:   -0.87 KCAL/MOL
REMARK 927      BINDING AFFINITY PREDICTED BY RF-SCORE:    0.00 PKD
ROOT
HETATM    1  C   UNL     1     -12.486  14.335  69.905  1.00  0.00    -0.264 C  
HETATM    2  N   UNL     1     -12.050  13.222  69.092  1.00  0.00    -0.284 NA 
HETATM    3  C   UNL     1     -11.791  13.201  67.737  1.00  0.00    -0.348 A  
HETATM    4  C   UNL     1     -11.834  11.953  69.589  1.00  0.00    -0.337 A  
HETATM    5  N   UNL     1     -11.399  11.998  67.361  1.00  0.00    -0.305 NA 
HETATM    6  C   UNL     1     -11.944  11.375  70.856  1.00  0.00    -0.271 A  
HETATM    7  C   UNL     1     -11.436  11.218  68.485  1.00  0.00    -0.306 A  
HETATM    8  C   UNL     1     -11.626  10.005  70.968  1.00  0.00    -0.476 A  
HETATM    9  C   UNL     1     -11.136   9.857  68.629  1.00  0.00    -0.182 A  
HETATM   10  C   UNL     1     -11.205   9.219  69.882  1.00  0.00    -0.126 A  
ENDROOT
BRANCH   3  11
HETATM   11  C   UNL     1     -11.942  14.337  66.773  1.00  0.00    -0.462 C  
BRANCH  11  12
HETATM   12  C   UNL     1     -11.150  14.040  65.493  1.00  0.00    -0.309 C  
BRANCH  12  13
HETATM   13  C   UNL     1     -12.024  14.052  64.245  1.00  0.00    -0.463 C  
HETATM   14  O   UNL     1     -10.938  12.226  63.131  1.00  0.00    -0.377 OA 
HETATM   15  O   UNL     1     -13.151  12.044  63.528  1.00  0.00    -0.764 OA 
HETATM   16  C   UNL     1     -12.112  12.682  63.617  1.00  0.00    -0.547 C  
ENDBRANCH  12  13
ENDBRANCH  11  12
ENDBRANCH   3  11
BRANCH  10  17
HETATM   17  N   UNL     1     -10.848   7.880  70.021  1.00  0.00    -0.248 NA 
BRANCH  17  18
HETATM   18  C   UNL     1      -9.639   7.303  69.405  1.00  0.00    -0.154 C  
HETATM   19 CL   UNL     1     -10.996   6.648  67.090  1.00  0.00    -0.471 Cl 
HETATM   20  C   UNL     1      -9.937   6.151  68.438  1.00  0.00    -0.140 C  
ENDBRANCH  17  18
BRANCH  17  21
HETATM   21  C   UNL     1     -11.774   6.934  70.679  1.00  0.00    -0.367 C  
HETATM   22 CL   UNL     1     -10.744   7.371  73.200  1.00  0.00    -0.404 Cl 
HETATM   23  C   UNL     1     -11.162   6.226  71.895  1.00  0.00    -0.283 C  
ENDBRANCH  17  21
ENDBRANCH  10  17
TORSDOF 6
ENDMDL
MODEL       11
REMARK 921   NORMALIZED FREE ENERGY PREDICTED BY IDOCK:   -5.89 KCAL/MOL
REMARK 922        TOTAL FREE ENERGY PREDICTED BY IDOCK:   -8.74 KCAL/MOL
REMARK 923 INTER-LIGAND FREE ENERGY PREDICTED BY IDOCK:   -8.08 KCAL/MOL
REMARK 924 INTRA-LIGAND FREE ENERGY PREDICTED BY IDOCK:   -0.66 KCAL/MOL
REMARK 927      BINDING AFFINITY PREDICTED BY RF-SCORE:    0.00 PKD
ROOT
HETATM    1  C   UNL     1     -13.709  13.524  72.356  1.00  0.00    -0.602 C  
HETATM    2  N   UNL     1     -12.914  12.993  71.272  1.00  0.00    -0.293 NA 
HETATM    3  C   UNL     1     -12.594  11.676  71.009  1.00  0.00    -0.331 A  
HETATM    4  C   UNL     1     -12.320  13.778  70.305  1.00  0.00    -0.337 A  
HETATM    5  N   UNL     1     -11.857  11.589  69.918  1.00  0.00    -0.328 NA 
HETATM    6  C   UNL     1     -12.277  15.154  70.063  1.00  0.00    -0.379 A  
HETATM    7  C   UNL     1     -11.668  12.873  69.484  1.00  0.00    -0.323 A  
HETATM    8  C   UNL     1     -11.544  15.586  68.939  1.00  0.00    -0.384 A  
HETATM    9  C   UNL     1     -10.940  13.337  68.381  1.00  0.00    -0.289 A  
HETATM   10  C   UNL     1     -10.876  14.708  68.068  1.00  0.00    -0.257 A  
ENDROOT
BRANCH   3  11
HETATM   11  C   UNL     1     -12.975  10.477  71.823  1.00  0.00    -0.582 C  
BRANCH  11  12
HETATM   12  C   UNL     1     -12.289   9.227  71.256  1.00  0.00    -0.403 C  
BRANCH  12  13
HETATM   13  C   UNL     1     -13.080   7.952  71.521  1.00  0.00    -0.343 C  
HETATM   14  O   UNL     1     -11.753   6.513  70.132  1.00  0.00    -0.418 OA 
HETATM   15  O   UNL     1     -11.960   5.967  72.310  1.00  0.00    -0.318 OA 
HETATM   16  C   UNL     1     -12.211   6.724  71.384  1.00  0.00    -0.363 C  
ENDBRANCH  12  13
ENDBRANCH  11  12
ENDBRANCH   3  11
BRANCH  10  17
HETATM   17  N   UNL     1     -10.197  15.150  66.935  1.00  0.00    -0.256 NA 
BRANCH  17  18
HETATM   18  C   UNL     1     -10.856  15.885  65.841  1.00  0.00    -0.233 C  
HETATM   19 CL   UNL     1     -12.606  13.807  65.347  1.00  0.00    -0.525 Cl 
HETATM   20  C   UNL     1     -11.403  14.975  64.735  1.00  0.00    -0.406 C  
ENDBRANCH  17  18
BRANCH  17  21
HETATM   21  C   UNL     1      -8.790  14.752  66.715  1.00  0.00    -0.252 C  
HETATM   22 CL   UNL     1      -7.793  16.498  68.603  1.00  0.00    -0.213 Cl 
HETATM   23  C   UNL     1      -7.791  15.898  66.921  1.00  0.00    -0.247 C  
ENDBRANCH  17  21
ENDBRANCH  10  17
TORSDOF 6
ENDMDL
MODEL       12
REMARK 921   NORMALIZED FREE ENERGY PREDICTED BY IDOCK:   -5.89 KCAL/MOL
REMARK 922        TOTAL FREE ENERGY PREDICTED BY IDOCK:   -8.73 KCAL/MOL
REMARK 923 INTER-LIGAND FREE ENERGY PREDICTED BY IDOCK:   -7.97 KCAL/MOL
REMARK 924 INTRA-LIGAND FREE ENERGY PREDICTED BY IDOCK:   -0.76 KCAL/MOL
REMARK 927      BINDING AFFINITY PREDICTED BY RF-SCORE:    0.00 PKD
ROOT
HETATM    1  C   UNL     1      -9.451   9.977  64.409  1.00  0.00    -0.286 C  
HETATM    2  N   UNL     1     -10.251  10.544  65.471  1.00  0.00    -0.272 NA 
HETATM    3  C   UNL     1     -11.036  11.679  65.439  1.00  0.00    -0.270 A  
HETATM    4  C   UNL     1     -10.332  10.004  66.737  1.00  0.00    -0.217 A  
HETATM    5  N   UNL     1     -11.625  11.866  66.604  1.00  0.00    -0.528 NA 
HETATM    6  C   UNL     1      -9.758   8.890  67.356  1.00  0.00    -0.227 A  
HETATM    7  C   UNL     1     -11.190  10.853  67.416  1.00  0.00    -0.273 A  
HETATM    8  C   UNL     1     -10.095   8.660  68.706  1.00  0.00    -0.210 A  
HETATM    9  C   UNL     1     -11.496  10.601  68.759  1.00  0.00    -0.330 A  
HETATM   10  C   UNL     1     -10.970   9.484  69.436  1.00  0.00    -0.170 A  
ENDROOT
BRANCH   3  11
HETATM   11  C   UNL     1     -11.212  12.621  64.287  1.00  0.00    -0.410 C  
BRANCH  11  12
HETATM   12  C   UNL     1     -11.591  14.013  64.808  1.00  0.00    -0.387 C  
BRANCH  12  13
HETATM   13  C   UNL     1     -10.378  14.903  65.046  1.00  0.00    -0.401 C  
HETATM   14  O   UNL     1     -11.329  16.910  64.138  1.00  0.00    -1.208 OA 
HETATM   15  O   UNL     1     -10.604  16.967  66.273  1.00  0.00    -0.284 OA 
HETATM   16  C   UNL     1     -10.780  16.347  65.234  1.00  0.00    -0.295 C  
ENDBRANCH  12  13
ENDBRANCH  11  12
ENDBRANCH   3  11
BRANCH  10  17
HETATM   17  N   UNL     1     -11.329   9.213  70.753  1.00  0.00    -0.269 NA 
BRANCH  17  18
HETATM   18  C   UNL     1     -10.343   8.922  71.810  1.00  0.00    -0.356 C  
HETATM   19 CL   UNL     1     -10.448   6.208  71.315  1.00  0.00    -0.263 Cl 
HETATM   20  C   UNL     1     -10.549   7.558  72.478  1.00  0.00    -0.270 C  
ENDBRANCH  17  18
BRANCH  17  21
HETATM   21  C   UNL     1     -12.754   9.054  71.112  1.00  0.00    -0.192 C  
HETATM   22 CL   UNL     1     -13.103  11.719  71.728  1.00  0.00    -0.551 Cl 
HETATM   23  C   UNL     1     -13.215  10.007  72.223  1.00  0.00    -0.305 C  
ENDBRANCH  17  21
ENDBRANCH  10  17
TORSDOF 6
ENDMDL
MODEL       13
REMARK 921   NORMALIZED FREE ENERGY PREDICTED BY IDOCK:   -5.88 KCAL/MOL
REMARK 922        TOTAL FREE ENERGY PREDICTED BY IDOCK:   -8.72 KCAL/MOL
REMARK 923 INTER-LIGAND FREE ENERGY PREDICTED BY IDOCK:   -7.92 KCAL/MOL
REMARK 924 INTRA-LIGAND FREE ENERGY PREDICTED BY IDOCK:   -0.80 KCAL/MOL
REMARK 927      BINDING AFFINITY PREDICTED BY RF-SCORE:    0.00 PKD
ROOT
HETATM    1  C   UNL     1      -8.136  11.981  67.177  1.00  0.00    -0.177 C  
HETATM    2  N   UNL     1      -8.940  13.155  66.923  1.00  0.00    -0.226 NA 
HETATM    3  C   UNL     1     -10.235  13.221  66.453  1.00  0.00    -0.292 A  
HETATM    4  C   UNL     1      -8.490  14.445  67.116  1.00  0.00    -0.208 A  
HETATM    5  N   UNL     1     -10.632  14.476  66.365  1.00  0.00    -0.296 NA 
HETATM    6  C   UNL     1      -7.282  14.996  67.554  1.00  0.00    -0.228 A  
HETATM    7  C   UNL     1      -9.564  15.239  66.755  1.00  0.00    -0.241 A  
HETATM    8  C   UNL     1      -7.204  16.403  67.620  1.00  0.00    -0.156 A  
HETATM    9  C   UNL     1      -9.450  16.634  66.822  1.00  0.00    -0.260 A  
HETATM   10  C   UNL     1      -8.270  17.253  67.276  1.00  0.00    -0.196 A  
ENDROOT
BRANCH   3  11
HETATM   11  C   UNL     1     -11.109  12.070  66.054  1.00  0.00    -0.364 C  
BRANCH  11  12
HETATM   12  C   UNL     1     -10.558  11.419  64.779  1.00  0.00    -0.377 C  
BRANCH  12  13
HETATM   13  C   UNL     1     -10.784  12.272  63.537  1.00  0.00    -0.497 C  
HETATM   14  O   UNL     1     -13.136  11.844  63.334  1.00  0.00    -0.710 OA 
HETATM   15  O   UNL     1     -12.475  13.991  63.533  1.00  0.00    -0.826 OA 
HETATM   16  C   UNL     1     -12.197  12.802  63.480  1.00  0.00    -0.525 C  
ENDBRANCH  12  13
ENDBRANCH  11  12
ENDBRANCH   3  11
BRANCH  10  17
HETATM   17  N   UNL     1      -8.191  18.638  67.394  1.00  0.00    -0.254 NA 
BRANCH  17  18
HETATM   18  C   UNL     1      -6.982  19.405  67.044  1.00  0.00    -0.197 C  
HETATM   19 CL   UNL     1      -6.011  19.267  69.625  1.00  0.00    -0.275 Cl 
HETATM   20  C   UNL     1      -6.440  20.253  68.200  1.00  0.00    -0.291 C  
ENDBRANCH  17  18
BRANCH  17  21
HETATM   21  C   UNL     1      -9.292  19.388  68.035  1.00  0.00    -0.336 C  
HETATM   22 CL   UNL     1     -10.631  19.839  65.667  1.00  0.00    -0.556 Cl 
HETATM   23  C   UNL     1      -9.876  20.494  67.147  1.00  0.00    -0.426 C  
ENDBRANCH  17  21
ENDBRANCH  10  17
TORSDOF 6
ENDMDL
MODEL       14
REMARK 921   NORMALIZED FREE ENERGY PREDICTED BY IDOCK:   -5.88 KCAL/MOL
REMARK 922        TOTAL FREE ENERGY PREDICTED BY IDOCK:   -8.71 KCAL/MOL
REMARK 923 INTER-LIGAND FREE ENERGY PREDICTED BY IDOCK:   -7.81 KCAL/MOL
REMARK 924 INTRA-LIGAND FREE ENERGY PREDICTED BY IDOCK:   -0.90 KCAL/MOL
REMARK 927      BINDING AFFINITY PREDICTED BY RF-SCORE:    0.00 PKD
ROOT
HETATM    1  C   UNL     1     -11.883  14.127  67.647  1.00  0.00    -0.392 C  
HETATM    2  N   UNL     1     -11.953  13.275  68.813  1.00  0.00    -0.328 NA 
HETATM    3  C   UNL     1     -12.397  13.592  70.080  1.00  0.00    -0.304 A  
HETATM    4  C   UNL     1     -11.550  11.956  68.819  1.00  0.00    -0.309 A  
HETATM    5  N   UNL     1     -12.320  12.540  70.873  1.00  0.00    -0.341 NA 
HETATM    6  C   UNL     1     -11.010  11.101  67.854  1.00  0.00    -0.307 A  
HETATM    7  C   UNL     1     -11.788  11.532  70.115  1.00  0.00    -0.356 A  
HETATM    8  C   UNL     1     -10.721   9.780  68.254  1.00  0.00    -0.277 A  
HETATM    9  C   UNL     1     -11.479  10.216  70.483  1.00  0.00    -0.417 A  
HETATM   10  C   UNL     1     -10.955   9.298  69.554  1.00  0.00    -0.151 A  
ENDROOT
BRANCH   3  11
HETATM   11  C   UNL     1     -12.880  14.927  70.558  1.00  0.00    -0.376 C  
BRANCH  11  12
HETATM   12  C   UNL     1     -14.039  14.737  71.545  1.00  0.00    -0.566 C  
BRANCH  12  13
HETATM   13  C   UNL     1     -14.014  15.749  72.683  1.00  0.00    -0.557 C  
HETATM   14  O   UNL     1     -12.352  14.634  74.006  1.00  0.00    -0.474 OA 
HETATM   15  O   UNL     1     -11.934  16.757  73.371  1.00  0.00    -0.429 OA 
HETATM   16  C   UNL     1     -12.668  15.780  73.367  1.00  0.00    -0.551 C  
ENDBRANCH  12  13
ENDBRANCH  11  12
ENDBRANCH   3  11
BRANCH  10  17
HETATM   17  N   UNL     1     -10.708   7.977  69.918  1.00  0.00    -0.247 NA 
BRANCH  17  18
HETATM   18  C   UNL     1      -9.447   7.280  69.605  1.00  0.00    -0.155 C  
HETATM   19 CL   UNL     1      -8.067   8.665  71.555  1.00  0.00    -0.182 Cl 
HETATM   20  C   UNL     1      -8.199   8.133  69.856  1.00  0.00    -0.118 C  
ENDBRANCH  17  18
BRANCH  17  21
HETATM   21  C   UNL     1     -11.788   7.160  70.511  1.00  0.00    -0.243 C  
HETATM   22 CL   UNL     1     -11.001   7.644  73.109  1.00  0.00    -0.452 Cl 
HETATM   23  C   UNL     1     -11.385   6.469  71.820  1.00  0.00    -0.281 C  
ENDBRANCH  17  21
ENDBRANCH  10  17
TORSDOF 6
ENDMDL
MODEL       15
REMARK 921   NORMALIZED FREE ENERGY PREDICTED BY IDOCK:   -5.87 KCAL/MOL
REMARK 922        TOTAL FREE ENERGY PREDICTED BY IDOCK:   -8.71 KCAL/MOL
REMARK 923 INTER-LIGAND FREE ENERGY PREDICTED BY IDOCK:   -8.09 KCAL/MOL
REMARK 924 INTRA-LIGAND FREE ENERGY PREDICTED BY IDOCK:   -0.62 KCAL/MOL
REMARK 927      BINDING AFFINITY PREDICTED BY RF-SCORE:    0.00 PKD
ROOT
HETATM    1  C   UNL     1     -13.582  13.480  72.556  1.00  0.00    -0.569 C  
HETATM    2  N   UNL     1     -12.923  13.011  71.358  1.00  0.00    -0.334 NA 
HETATM    3  C   UNL     1     -12.649  11.711  70.984  1.00  0.00    -0.331 A  
HETATM    4  C   UNL     1     -12.439  13.849  70.375  1.00  0.00    -0.334 A  
HETATM    5  N   UNL     1     -12.045  11.686  69.811  1.00  0.00    -0.303 NA 
HETATM    6  C   UNL     1     -12.412  15.237  70.210  1.00  0.00    -0.405 A  
HETATM    7  C   UNL     1     -11.896  12.993  69.433  1.00  0.00    -0.322 A  
HETATM    8  C   UNL     1     -11.811  15.733  69.034  1.00  0.00    -0.367 A  
HETATM    9  C   UNL     1     -11.298  13.518  68.280  1.00  0.00    -0.328 A  
HETATM   10  C   UNL     1     -11.257  14.905  68.041  1.00  0.00    -0.308 A  
ENDROOT
BRANCH   3  11
HETATM   11  C   UNL     1     -12.942  10.468  71.766  1.00  0.00    -0.582 C  
BRANCH  11  12
HETATM   12  C   UNL     1     -11.899   9.391  71.441  1.00  0.00    -0.447 C  
BRANCH  12  13
HETATM   13  C   UNL     1     -11.897   8.250  72.450  1.00  0.00    -0.461 C  
HETATM   14  O   UNL     1     -13.532   6.894  71.334  1.00  0.00    -0.293 OA 
HETATM   15  O   UNL     1     -11.505   5.984  71.723  1.00  0.00    -0.288 OA 
HETATM   16  C   UNL     1     -12.266   6.937  71.801  1.00  0.00    -0.356 C  
ENDBRANCH  12  13
ENDBRANCH  11  12
ENDBRANCH   3  11
BRANCH  10  17
HETATM   17  N   UNL     1     -10.712  15.411  66.864  1.00  0.00    -0.311 NA 
BRANCH  17  18
HETATM   18  C   UNL     1     -11.325  15.202  65.540  1.00  0.00    -0.274 C  
HETATM   19 CL   UNL     1     -10.209  12.688  65.297  1.00  0.00    -0.302 Cl 
HETATM   20  C   UNL     1     -10.488  14.313  64.613  1.00  0.00    -0.298 C  
ENDBRANCH  17  18
BRANCH  17  21
HETATM   21  C   UNL     1      -9.383  16.060  66.886  1.00  0.00    -0.228 C  
HETATM   22 CL   UNL     1     -10.404  18.585  67.320  1.00  0.00    -0.404 Cl 
HETATM   23  C   UNL     1      -9.393  17.492  66.334  1.00  0.00    -0.246 C  
ENDBRANCH  17  21
ENDBRANCH  10  17
TORSDOF 6
ENDMDL
MODEL       16
REMARK 921   NORMALIZED FREE ENERGY PREDICTED BY IDOCK:   -5.86 KCAL/MOL
REMARK 922        TOTAL FREE ENERGY PREDICTED BY IDOCK:   -8.69 KCAL/MOL
REMARK 923 INTER-LIGAND FREE ENERGY PREDICTED BY IDOCK:   -7.98 KCAL/MOL
REMARK 924 INTRA-LIGAND FREE ENERGY PREDICTED BY IDOCK:   -0.71 KCAL/MOL
REMARK 927      BINDING AFFINITY PREDICTED BY RF-SCORE:    0.00 PKD
ROOT
HETATM    1  C   UNL     1     -10.377  10.939  64.485  1.00  0.00    -0.348 C  
HETATM    2  N   UNL     1     -10.871  11.140  65.829  1.00  0.00    -0.201 NA 
HETATM    3  C   UNL     1     -11.540  12.234  66.340  1.00  0.00    -0.383 A  
HETATM    4  C   UNL     1     -10.720  10.219  66.844  1.00  0.00    -0.184 A  
HETATM    5  N   UNL     1     -11.841  12.039  67.610  1.00  0.00    -0.564 NA 
HETATM    6  C   UNL     1     -10.124   8.957  66.929  1.00  0.00    -0.343 A  
HETATM    7  C   UNL     1     -11.329  10.812  67.937  1.00  0.00    -0.299 A  
HETATM    8  C   UNL     1     -10.175   8.305  68.179  1.00  0.00    -0.255 A  
HETATM    9  C   UNL     1     -11.353  10.141  69.167  1.00  0.00    -0.198 A  
HETATM   10  C   UNL     1     -10.792   8.858  69.315  1.00  0.00    -0.096 A  
ENDROOT
BRANCH   3  11
HETATM   11  C   UNL     1     -11.881  13.501  65.617  1.00  0.00    -0.397 C  
BRANCH  11  12
HETATM   12  C   UNL     1     -11.474  14.710  66.469  1.00  0.00    -0.354 C  
BRANCH  12  13
HETATM   13  C   UNL     1     -10.278  15.458  65.894  1.00  0.00    -0.365 C  
HETATM   14  O   UNL     1     -11.506  16.731  64.271  1.00  0.00    -1.125 OA 
HETATM   15  O   UNL     1     -10.286  17.868  65.790  1.00  0.00    -0.577 OA 
HETATM   16  C   UNL     1     -10.682  16.803  65.338  1.00  0.00    -0.189 C  
ENDBRANCH  12  13
ENDBRANCH  11  12
ENDBRANCH   3  11
BRANCH  10  17
HETATM   17  N   UNL     1     -10.875   8.179  70.527  1.00  0.00    -0.237 NA 
BRANCH  17  18
HETATM   18  C   UNL     1     -11.471   6.837  70.656  1.00  0.00    -0.351 C  
HETATM   19 CL   UNL     1     -13.876   7.866  71.538  1.00  0.00    -0.416 Cl 
HETATM   20  C   UNL     1     -12.515   6.736  71.774  1.00  0.00    -0.349 C  
ENDBRANCH  17  18
BRANCH  17  21
HETATM   21  C   UNL     1     -10.498   8.862  71.783  1.00  0.00    -0.360 C  
HETATM   22 CL   UNL     1      -7.796   8.429  71.442  1.00  0.00    -0.119 Cl 
HETATM   23  C   UNL     1      -9.257   8.263  72.456  1.00  0.00    -0.269 C  
ENDBRANCH  17  21
ENDBRANCH  10  17
TORSDOF 6
ENDMDL
MODEL       17
REMARK 921   NORMALIZED FREE ENERGY PREDICTED BY IDOCK:   -5.84 KCAL/MOL
REMARK 922        TOTAL FREE ENERGY PREDICTED BY IDOCK:   -8.66 KCAL/MOL
REMARK 923 INTER-LIGAND FREE ENERGY PREDICTED BY IDOCK:   -7.88 KCAL/MOL
REMARK 924 INTRA-LIGAND FREE ENERGY PREDICTED BY IDOCK:   -0.79 KCAL/MOL
REMARK 927      BINDING AFFINITY PREDICTED BY RF-SCORE:    0.00 PKD
ROOT
HETATM    1  C   UNL     1     -11.392  12.055  67.898  1.00  0.00    -0.305 C  
HETATM    2  N   UNL     1     -11.337  13.330  67.219  1.00  0.00    -0.299 NA 
HETATM    3  C   UNL     1     -11.873  13.672  65.994  1.00  0.00    -0.385 A  
HETATM    4  C   UNL     1     -10.692  14.439  67.727  1.00  0.00    -0.248 A  
HETATM    5  N   UNL     1     -11.624  14.938  65.718  1.00  0.00    -0.288 NA 
HETATM    6  C   UNL     1      -9.969  14.690  68.897  1.00  0.00    -0.228 A  
HETATM    7  C   UNL     1     -10.886  15.416  66.767  1.00  0.00    -0.306 A  
HETATM    8  C   UNL     1      -9.448  15.990  69.064  1.00  0.00    -0.243 A  
HETATM    9  C   UNL     1     -10.346  16.695  66.959  1.00  0.00    -0.301 A  
HETATM   10  C   UNL     1      -9.628  17.021  68.125  1.00  0.00    -0.266 A  
ENDROOT
BRANCH   3  11
HETATM   11  C   UNL     1     -12.616  12.773  65.053  1.00  0.00    -0.538 C  
BRANCH  11  12
HETATM   12  C   UNL     1     -11.948  12.801  63.672  1.00  0.00    -0.616 C  
BRANCH  12  13
HETATM   13  C   UNL     1     -10.442  12.580  63.743  1.00  0.00    -0.451 C  
HETATM   14  O   UNL     1     -10.534  10.346  64.615  1.00  0.00    -0.259 OA 
HETATM   15  O   UNL     1      -9.442  10.666  62.668  1.00  0.00    -0.293 OA 
HETATM   16  C   UNL     1     -10.091  11.118  63.600  1.00  0.00    -0.379 C  
ENDBRANCH  12  13
ENDBRANCH  11  12
ENDBRANCH   3  11
BRANCH  10  17
HETATM   17  N   UNL     1      -9.147  18.311  68.330  1.00  0.00    -0.297 NA 
BRANCH  17  18
HETATM   18  C   UNL     1      -7.714  18.617  68.494  1.00  0.00    -0.316 C  
HETATM   19 CL   UNL     1      -7.277  18.573  65.768  1.00  0.00    -0.266 Cl 
HETATM   20  C   UNL     1      -6.830  18.008  67.401  1.00  0.00    -0.190 C  
ENDBRANCH  17  18
BRANCH  17  21
HETATM   21  C   UNL     1     -10.094  19.426  68.548  1.00  0.00    -0.437 C  
HETATM   22 CL   UNL     1     -10.417  19.942  65.858  1.00  0.00    -0.607 Cl 
HETATM   23  C   UNL     1      -9.991  20.531  67.489  1.00  0.00    -0.356 C  
ENDBRANCH  17  21
ENDBRANCH  10  17
TORSDOF 6
ENDMDL
MODEL       18
REMARK 921   NORMALIZED FREE ENERGY PREDICTED BY IDOCK:   -5.84 KCAL/MOL
REMARK 922        TOTAL FREE ENERGY PREDICTED BY IDOCK:   -8.66 KCAL/MOL
REMARK 923 INTER-LIGAND FREE ENERGY PREDICTED BY IDOCK:   -8.22 KCAL/MOL
REMARK 924 INTRA-LIGAND FREE ENERGY PREDICTED BY IDOCK:   -0.44 KCAL/MOL
REMARK 927      BINDING AFFINITY PREDICTED BY RF-SCORE:    0.00 PKD
ROOT
HETATM    1  C   UNL     1     -11.957  13.938  68.613  1.00  0.00    -0.366 C  
HETATM    2  N   UNL     1     -11.500  12.577  68.447  1.00  0.00    -0.287 NA 
HETATM    3  C   UNL     1     -10.854  12.016  67.364  1.00  0.00    -0.242 A  
HETATM    4  C   UNL     1     -11.672  11.593  69.398  1.00  0.00    -0.340 A  
HETATM    5  N   UNL     1     -10.587  10.745  67.593  1.00  0.00    -0.214 NA 
HETATM    6  C   UNL     1     -12.260  11.560  70.666  1.00  0.00    -0.473 A  
HETATM    7  C   UNL     1     -11.097  10.468  68.833  1.00  0.00    -0.261 A  
HETATM    8  C   UNL     1     -12.238  10.329  71.353  1.00  0.00    -0.481 A  
HETATM    9  C   UNL     1     -11.101   9.257  69.539  1.00  0.00    -0.099 A  
HETATM   10  C   UNL     1     -11.656   9.161  70.829  1.00  0.00    -0.276 A  
ENDROOT
BRANCH   3  11
HETATM   11  C   UNL     1     -10.503  12.693  66.074  1.00  0.00    -0.288 C  
BRANCH  11  12
HETATM   12  C   UNL     1     -10.580  11.685  64.921  1.00  0.00    -0.349 C  
BRANCH  12  13
HETATM   13  C   UNL     1     -10.896  12.343  63.584  1.00  0.00    -0.509 C  
HETATM   14  O   UNL     1     -13.271  12.015  63.670  1.00  0.00    -0.737 OA 
HETATM   15  O   UNL     1     -12.512  14.128  63.457  1.00  0.00    -0.817 OA 
HETATM   16  C   UNL     1     -12.286  12.933  63.572  1.00  0.00    -0.512 C  
ENDBRANCH  12  13
ENDBRANCH  11  12
ENDBRANCH   3  11
BRANCH  10  17
HETATM   17  N   UNL     1     -11.600   7.967  71.543  1.00  0.00    -0.266 NA 
BRANCH  17  18
HETATM   18  C   UNL     1     -12.129   6.695  71.020  1.00  0.00    -0.327 C  
HETATM   19 CL   UNL     1      -9.654   5.930  70.064  1.00  0.00    -0.190 Cl 
HETATM   20  C   UNL     1     -11.395   6.195  69.771  1.00  0.00    -0.382 C  
ENDBRANCH  17  18
BRANCH  17  21
HETATM   21  C   UNL     1     -11.136   7.967  72.947  1.00  0.00    -0.331 C  
HETATM   22 CL   UNL     1      -8.503   8.454  72.286  1.00  0.00    -0.242 Cl 
HETATM   23  C   UNL     1      -9.708   7.433  73.119  1.00  0.00    -0.231 C  
ENDBRANCH  17  21
ENDBRANCH  10  17
TORSDOF 6
ENDMDL
MODEL       19
REMARK 921   NORMALIZED FREE ENERGY PREDICTED BY IDOCK:   -5.78 KCAL/MOL
REMARK 922        TOTAL FREE ENERGY PREDICTED BY IDOCK:   -8.59 KCAL/MOL
REMARK 923 INTER-LIGAND FREE ENERGY PREDICTED BY IDOCK:   -7.84 KCAL/MOL
REMARK 924 INTRA-LIGAND FREE ENERGY PREDICTED BY IDOCK:   -0.75 KCAL/MOL
REMARK 927      BINDING AFFINITY PREDICTED BY RF-SCORE:    0.00 PKD
ROOT
HETATM    1  C   UNL     1     -11.510  12.435  67.449  1.00  0.00    -0.352 C  
HETATM    2  N   UNL     1     -11.420  13.530  66.509  1.00  0.00    -0.326 NA 
HETATM    3  C   UNL     1     -12.015  13.645  65.269  1.00  0.00    -0.376 A  
HETATM    4  C   UNL     1     -10.673  14.667  66.731  1.00  0.00    -0.301 A  
HETATM    5  N   UNL     1     -11.705  14.801  64.714  1.00  0.00    -0.413 NA 
HETATM    6  C   UNL     1      -9.858  15.104  67.780  1.00  0.00    -0.223 A  
HETATM    7  C   UNL     1     -10.869  15.432  65.595  1.00  0.00    -0.355 A  
HETATM    8  C   UNL     1      -9.244  16.366  67.635  1.00  0.00    -0.199 A  
HETATM    9  C   UNL     1     -10.237  16.677  65.478  1.00  0.00    -0.227 A  
HETATM   10  C   UNL     1      -9.421  17.186  66.507  1.00  0.00    -0.273 A  
ENDROOT
BRANCH   3  11
HETATM   11  C   UNL     1     -12.876  12.627  64.585  1.00  0.00    -0.361 C  
BRANCH  11  12
HETATM   12  C   UNL     1     -12.134  12.051  63.372  1.00  0.00    -0.597 C  
BRANCH  12  13
HETATM   13  C   UNL     1     -10.620  12.123  63.520  1.00  0.00    -0.501 C  
HETATM   14  O   UNL     1     -10.400  10.245  64.998  1.00  0.00    -0.288 OA 
HETATM   15  O   UNL     1      -9.258  10.188  63.053  1.00  0.00    -0.253 OA 
HETATM   16  C   UNL     1     -10.027  10.764  63.809  1.00  0.00    -0.351 C  
ENDBRANCH  12  13
ENDBRANCH  11  12
ENDBRANCH   3  11
BRANCH  10  17
HETATM   17  N   UNL     1      -8.847  18.449  66.403  1.00  0.00    -0.386 NA 
BRANCH  17  18
HETATM   18  C   UNL     1      -9.634  19.695  66.434  1.00  0.00    -0.401 C  
HETATM   19 CL   UNL     1     -10.020  19.515  69.162  1.00  0.00    -0.496 Cl 
HETATM   20  C   UNL     1     -10.709  19.711  67.527  1.00  0.00    -0.406 C  
ENDBRANCH  17  18
BRANCH  17  21
HETATM   21  C   UNL     1      -7.406  18.582  66.095  1.00  0.00    -0.259 C  
HETATM   22 CL   UNL     1      -6.682  19.022  68.720  1.00  0.00    -0.301 Cl 
HETATM   23  C   UNL     1      -6.672  19.563  67.018  1.00  0.00    -0.195 C  
ENDBRANCH  17  21
ENDBRANCH  10  17
TORSDOF 6
ENDMDL
MODEL       20
REMARK 921   NORMALIZED FREE ENERGY PREDICTED BY IDOCK:   -5.78 KCAL/MOL
REMARK 922        TOTAL FREE ENERGY PREDICTED BY IDOCK:   -8.59 KCAL/MOL
REMARK 923 INTER-LIGAND FREE ENERGY PREDICTED BY IDOCK:   -7.77 KCAL/MOL
REMARK 924 INTRA-LIGAND FREE ENERGY PREDICTED BY IDOCK:   -0.82 KCAL/MOL
REMARK 927      BINDING AFFINITY PREDICTED BY RF-SCORE:    0.00 PKD
ROOT
HETATM    1  C   UNL     1     -13.661  14.476  71.707  1.00  0.00    -0.418 C  
HETATM    2  N   UNL     1     -12.776  13.745  70.828  1.00  0.00    -0.313 NA 
HETATM    3  C   UNL     1     -12.026  14.226  69.774  1.00  0.00    -0.339 A  
HETATM    4  C   UNL     1     -12.559  12.386  70.921  1.00  0.00    -0.246 A  
HETATM    5  N   UNL     1     -11.332  13.252  69.218  1.00  0.00    -0.266 NA 
HETATM    6  C   UNL     1     -13.043  11.381  71.764  1.00  0.00    -0.523 A  
HETATM    7  C   UNL     1     -11.661  12.113  69.903  1.00  0.00    -0.287 A  
HETATM    8  C   UNL     1     -12.571  10.071  71.538  1.00  0.00    -0.525 A  
HETATM    9  C   UNL     1     -11.220  10.799  69.700  1.00  0.00    -0.355 A  
HETATM   10  C   UNL     1     -11.650   9.744  70.528  1.00  0.00    -0.292 A  
ENDROOT
BRANCH   3  11
HETATM   11  C   UNL     1     -11.986  15.635  69.266  1.00  0.00    -0.338 C  
BRANCH  11  12
HETATM   12  C   UNL     1     -11.081  15.716  68.030  1.00  0.00    -0.335 C  
BRANCH  12  13
HETATM   13  C   UNL     1     -10.163  16.932  68.051  1.00  0.00    -0.310 C  
HETATM   14  O   UNL     1     -10.429  17.516  65.739  1.00  0.00    -0.535 OA 
HETATM   15  O   UNL     1     -10.963  19.073  67.280  1.00  0.00    -0.459 OA 
HETATM   16  C   UNL     1     -10.568  17.948  67.009  1.00  0.00    -0.279 C  
ENDBRANCH  12  13
ENDBRANCH  11  12
ENDBRANCH   3  11
BRANCH  10  17
HETATM   17  N   UNL     1     -11.159   8.454  70.351  1.00  0.00    -0.244 NA 
BRANCH  17  18
HETATM   18  C   UNL     1     -11.895   7.250  70.778  1.00  0.00    -0.288 C  
HETATM   19 CL   UNL     1     -10.850   7.379  73.330  1.00  0.00    -0.419 Cl 
HETATM   20  C   UNL     1     -11.163   6.433  71.849  1.00  0.00    -0.280 C  
ENDBRANCH  17  18
BRANCH  17  21
HETATM   21  C   UNL     1      -9.781   8.249  69.857  1.00  0.00    -0.180 C  
HETATM   22 CL   UNL     1     -10.511   8.307  67.199  1.00  0.00    -0.388 Cl 
HETATM   23  C   UNL     1      -9.712   7.453  68.548  1.00  0.00    -0.151 C  
ENDBRANCH  17  21
ENDBRANCH  10  17
TORSDOF 6
ENDMDL
MODEL       21
REMARK 921   NORMALIZED FREE ENERGY PREDICTED BY IDOCK:   -5.78 KCAL/MOL
REMARK 922        TOTAL FREE ENERGY PREDICTED BY IDOCK:   -8.58 KCAL/MOL
REMARK 923 INTER-LIGAND FREE ENERGY PREDICTED BY IDOCK:   -7.54 KCAL/MOL
REMARK 924 INTRA-LIGAND FREE ENERGY PREDICTED BY IDOCK:   -1.04 KCAL/MOL
REMARK 927      BINDING AFFINITY PREDICTED BY RF-SCORE:    0.00 PKD
ROOT
HETATM    1  C   UNL     1      -7.911  10.412  65.463  1.00  0.00    -0.153 C  
HETATM    2  N   UNL     1      -9.227  10.627  66.022  1.00  0.00    -0.176 NA 
HETATM    3  C   UNL     1     -10.342  11.157  65.406  1.00  0.00    -0.271 A  
HETATM    4  C   UNL     1      -9.560  10.328  67.326  1.00  0.00    -0.159 A  
HETATM    5  N   UNL     1     -11.363  11.181  66.242  1.00  0.00    -0.179 NA 
HETATM    6  C   UNL     1      -8.857   9.794  68.410  1.00  0.00    -0.120 A  
HETATM    7  C   UNL     1     -10.892  10.689  67.429  1.00  0.00    -0.296 A  
HETATM    8  C   UNL     1      -9.565   9.633  69.619  1.00  0.00    -0.225 A  
HETATM    9  C   UNL     1     -11.564  10.524  68.648  1.00  0.00    -0.241 A  
HETATM   10  C   UNL     1     -10.921   9.972  69.772  1.00  0.00    -0.276 A  
ENDROOT
BRANCH   3  11
HETATM   11  C   UNL     1     -10.438  11.674  64.003  1.00  0.00    -0.418 C  
BRANCH  11  12
HETATM   12  C   UNL     1     -11.900  11.986  63.663  1.00  0.00    -0.602 C  
BRANCH  12  13
HETATM   13  C   UNL     1     -12.128  13.459  63.345  1.00  0.00    -0.437 C  
HETATM   14  O   UNL     1     -13.177  14.031  65.426  1.00  0.00    -0.761 OA 
HETATM   15  O   UNL     1     -11.319  15.168  64.841  1.00  0.00    -0.385 OA 
HETATM   16  C   UNL     1     -12.145  14.300  64.599  1.00  0.00    -0.463 C  
ENDBRANCH  12  13
ENDBRANCH  11  12
ENDBRANCH   3  11
BRANCH  10  17
HETATM   17  N   UNL     1     -11.616   9.760  70.959  1.00  0.00    -0.345 NA 
BRANCH  17  18
HETATM   18  C   UNL     1     -11.076   8.961  72.074  1.00  0.00    -0.351 C  
HETATM   19 CL   UNL     1     -11.326   6.606  70.655  1.00  0.00    -0.373 Cl 
HETATM   20  C   UNL     1     -11.648   7.541  72.142  1.00  0.00    -0.298 C  
ENDBRANCH  17  18
BRANCH  17  21
HETATM   21  C   UNL     1     -13.019  10.212  71.084  1.00  0.00    -0.395 C  
HETATM   22 CL   UNL     1     -12.350  12.879  71.296  1.00  0.00    -0.291 Cl 
HETATM   23  C   UNL     1     -13.185  11.452  71.971  1.00  0.00    -0.327 C  
ENDBRANCH  17  21
ENDBRANCH  10  17
TORSDOF 6
ENDMDL
MODEL       22
REMARK 921   NORMALIZED FREE ENERGY PREDICTED BY IDOCK:   -5.77 KCAL/MOL
REMARK 922        TOTAL FREE ENERGY PREDICTED BY IDOCK:   -8.58 KCAL/MOL
REMARK 923 INTER-LIGAND FREE ENERGY PREDICTED BY IDOCK:   -7.57 KCAL/MOL
REMARK 924 INTRA-LIGAND FREE ENERGY PREDICTED BY IDOCK:   -1.00 KCAL/MOL
REMARK 927      BINDING AFFINITY PREDICTED BY RF-SCORE:    0.00 PKD
ROOT
HETATM    1  C   UNL     1      -9.521   9.205  70.480  1.00  0.00    -0.242 C  
HETATM    2  N   UNL     1     -10.526  10.153  70.053  1.00  0.00    -0.277 NA 
HETATM    3  C   UNL     1     -11.762  10.400  70.613  1.00  0.00    -0.351 A  
HETATM    4  C   UNL     1     -10.382  10.975  68.955  1.00  0.00    -0.209 A  
HETATM    5  N   UNL     1     -12.390  11.350  69.946  1.00  0.00    -0.249 NA 
HETATM    6  C   UNL     1      -9.373  11.160  68.006  1.00  0.00    -0.166 A  
HETATM    7  C   UNL     1     -11.560  11.701  68.916  1.00  0.00    -0.314 A  
HETATM    8  C   UNL     1      -9.601  12.126  67.004  1.00  0.00    -0.207 A  
HETATM    9  C   UNL     1     -11.760  12.646  67.901  1.00  0.00    -0.412 A  
HETATM   10  C   UNL     1     -10.774  12.897  66.927  1.00  0.00    -0.257 A  
ENDROOT
BRANCH   3  11
HETATM   11  C   UNL     1     -12.373   9.705  71.792  1.00  0.00    -0.474 C  
BRANCH  11  12
HETATM   12  C   UNL     1     -13.598   8.899  71.342  1.00  0.00    -0.311 C  
BRANCH  12  13
HETATM   13  C   UNL     1     -13.545   7.446  71.794  1.00  0.00    -0.396 C  
HETATM   14  O   UNL     1     -11.987   6.697  70.129  1.00  0.00    -0.367 OA 
HETATM   15  O   UNL     1     -11.428   6.403  72.294  1.00  0.00    -0.273 OA 
HETATM   16  C   UNL     1     -12.218   6.809  71.454  1.00  0.00    -0.363 C  
ENDBRANCH  12  13
ENDBRANCH  11  12
ENDBRANCH   3  11
BRANCH  10  17
HETATM   17  N   UNL     1     -10.962  13.880  65.959  1.00  0.00    -0.284 NA 
BRANCH  17  18
HETATM   18  C   UNL     1      -9.928  14.872  65.612  1.00  0.00    -0.358 C  
HETATM   19 CL   UNL     1     -10.712  16.566  67.647  1.00  0.00    -0.329 Cl 
HETATM   20  C   UNL     1     -10.340  16.316  65.919  1.00  0.00    -0.365 C  
ENDBRANCH  17  18
BRANCH  17  21
HETATM   21  C   UNL     1     -12.292  14.062  65.341  1.00  0.00    -0.478 C  
HETATM   22 CL   UNL     1     -11.949  12.015  63.525  1.00  0.00    -0.600 Cl 
HETATM   23  C   UNL     1     -12.320  13.733  63.843  1.00  0.00    -0.292 C  
ENDBRANCH  17  21
ENDBRANCH  10  17
TORSDOF 6
ENDMDL
MODEL       23
REMARK 921   NORMALIZED FREE ENERGY PREDICTED BY IDOCK:   -5.77 KCAL/MOL
REMARK 922        TOTAL FREE ENERGY PREDICTED BY IDOCK:   -8.57 KCAL/MOL
REMARK 923 INTER-LIGAND FREE ENERGY PREDICTED BY IDOCK:   -7.66 KCAL/MOL
REMARK 924 INTRA-LIGAND FREE ENERGY PREDICTED BY IDOCK:   -0.91 KCAL/MOL
REMARK 927      BINDING AFFINITY PREDICTED BY RF-SCORE:    0.00 PKD
ROOT
HETATM    1  C   UNL     1      -9.340   9.216  70.738  1.00  0.00    -0.264 C  
HETATM    2  N   UNL     1     -10.434  10.045  70.283  1.00  0.00    -0.285 NA 
HETATM    3  C   UNL     1     -11.701  10.160  70.817  1.00  0.00    -0.357 A  
HETATM    4  C   UNL     1     -10.358  10.870  69.180  1.00  0.00    -0.208 A  
HETATM    5  N   UNL     1     -12.415  11.030  70.128  1.00  0.00    -0.294 NA 
HETATM    6  C   UNL     1      -9.356  11.157  68.249  1.00  0.00    -0.176 A  
HETATM    7  C   UNL     1     -11.607  11.462  69.111  1.00  0.00    -0.314 A  
HETATM    8  C   UNL     1      -9.668  12.084  67.233  1.00  0.00    -0.190 A  
HETATM    9  C   UNL     1     -11.888  12.372  68.084  1.00  0.00    -0.372 A  
HETATM   10  C   UNL     1     -10.916  12.722  67.127  1.00  0.00    -0.263 A  
ENDROOT
BRANCH   3  11
HETATM   11  C   UNL     1     -12.256   9.411  71.990  1.00  0.00    -0.396 C  
BRANCH  11  12
HETATM   12  C   UNL     1     -13.570   8.726  71.594  1.00  0.00    -0.425 C  
BRANCH  12  13
HETATM   13  C   UNL     1     -13.541   7.220  71.821  1.00  0.00    -0.386 C  
HETATM   14  O   UNL     1     -12.010   6.705  70.046  1.00  0.00    -0.340 OA 
HETATM   15  O   UNL     1     -11.440   6.078  72.136  1.00  0.00    -0.289 OA 
HETATM   16  C   UNL     1     -12.229   6.619  71.375  1.00  0.00    -0.324 C  
ENDBRANCH  12  13
ENDBRANCH  11  12
ENDBRANCH   3  11
BRANCH  10  17
HETATM   17  N   UNL     1     -11.190  13.671  66.146  1.00  0.00    -0.300 NA 
BRANCH  17  18
HETATM   18  C   UNL     1     -12.456  13.705  65.392  1.00  0.00    -0.499 C  
HETATM   19 CL   UNL     1     -11.566  11.809  63.594  1.00  0.00    -0.542 Cl 
HETATM   20  C   UNL     1     -12.286  13.414  63.897  1.00  0.00    -0.415 C  
ENDBRANCH  17  18
BRANCH  17  21
HETATM   21  C   UNL     1     -10.132  14.608  65.709  1.00  0.00    -0.340 C  
HETATM   22 CL   UNL     1     -10.667  16.450  67.690  1.00  0.00    -0.326 Cl 
HETATM   23  C   UNL     1     -10.481  16.082  65.952  1.00  0.00    -0.359 C  
ENDBRANCH  17  21
ENDBRANCH  10  17
TORSDOF 6
ENDMDL
MODEL       24
REMARK 921   NORMALIZED FREE ENERGY PREDICTED BY IDOCK:   -5.76 KCAL/MOL
REMARK 922        TOTAL FREE ENERGY PREDICTED BY IDOCK:   -8.55 KCAL/MOL
REMARK 923 INTER-LIGAND FREE ENERGY PREDICTED BY IDOCK:   -7.62 KCAL/MOL
REMARK 924 INTRA-LIGAND FREE ENERGY PREDICTED BY IDOCK:   -0.93 KCAL/MOL
REMARK 927      BINDING AFFINITY PREDICTED BY RF-SCORE:    0.00 PKD
ROOT
HETATM    1  C   UNL     1     -12.261  14.174  69.204  1.00  0.00    -0.255 C  
HETATM    2  N   UNL     1     -11.945  13.000  68.420  1.00  0.00    -0.322 NA 
HETATM    3  C   UNL     1     -11.961  12.858  67.048  1.00  0.00    -0.325 A  
HETATM    4  C   UNL     1     -11.578  11.791  68.971  1.00  0.00    -0.311 A  
HETATM    5  N   UNL     1     -11.598  11.636  66.706  1.00  0.00    -0.526 NA 
HETATM    6  C   UNL     1     -11.408  11.332  70.281  1.00  0.00    -0.179 A  
HETATM    7  C   UNL     1     -11.375  10.965  67.879  1.00  0.00    -0.308 A  
HETATM    8  C   UNL     1     -11.013   9.988  70.445  1.00  0.00    -0.384 A  
HETATM    9  C   UNL     1     -10.992   9.632  68.077  1.00  0.00    -0.197 A  
HETATM   10  C   UNL     1     -10.781   9.113  69.369  1.00  0.00    -0.198 A  
ENDROOT
BRANCH   3  11
HETATM   11  C   UNL     1     -12.351  13.894  66.038  1.00  0.00    -0.511 C  
BRANCH  11  12
HETATM   12  C   UNL     1     -11.333  13.910  64.891  1.00  0.00    -0.349 C  
BRANCH  12  13
HETATM   13  C   UNL     1     -10.170  14.860  65.149  1.00  0.00    -0.409 C  
HETATM   14  O   UNL     1     -11.255  16.845  64.351  1.00  0.00    -1.159 OA 
HETATM   15  O   UNL     1     -10.494  16.849  66.474  1.00  0.00    -0.305 OA 
HETATM   16  C   UNL     1     -10.652  16.267  65.411  1.00  0.00    -0.352 C  
ENDBRANCH  12  13
ENDBRANCH  11  12
ENDBRANCH   3  11
BRANCH  10  17
HETATM   17  N   UNL     1     -10.344   7.804  69.549  1.00  0.00    -0.215 NA 
BRANCH  17  18
HETATM   18  C   UNL     1      -8.994   7.349  69.171  1.00  0.00    -0.135 C  
HETATM   19 CL   UNL     1      -7.917   8.192  71.570  1.00  0.00    -0.118 Cl 
HETATM   20  C   UNL     1      -7.871   8.192  69.785  1.00  0.00    -0.105 C  
ENDBRANCH  17  18
BRANCH  17  21
HETATM   21  C   UNL     1     -11.295   6.763  69.995  1.00  0.00    -0.342 C  
HETATM   22 CL   UNL     1     -11.070   7.418  72.664  1.00  0.00    -0.342 Cl 
HETATM   23  C   UNL     1     -10.966   6.185  71.377  1.00  0.00    -0.277 C  
ENDBRANCH  17  21
ENDBRANCH  10  17
TORSDOF 6
ENDMDL
MODEL       25
REMARK 921   NORMALIZED FREE ENERGY PREDICTED BY IDOCK:   -5.75 KCAL/MOL
REMARK 922        TOTAL FREE ENERGY PREDICTED BY IDOCK:   -8.54 KCAL/MOL
REMARK 923 INTER-LIGAND FREE ENERGY PREDICTED BY IDOCK:   -7.93 KCAL/MOL
REMARK 924 INTRA-LIGAND FREE ENERGY PREDICTED BY IDOCK:   -0.61 KCAL/MOL
REMARK 927      BINDING AFFINITY PREDICTED BY RF-SCORE:    0.00 PKD
ROOT
HETATM    1  C   UNL     1     -11.661  13.889  67.786  1.00  0.00    -0.366 C  
HETATM    2  N   UNL     1     -11.825  13.006  68.919  1.00  0.00    -0.317 NA 
HETATM    3  C   UNL     1     -12.321  13.303  70.172  1.00  0.00    -0.236 A  
HETATM    4  C   UNL     1     -11.473  11.672  68.905  1.00  0.00    -0.287 A  
HETATM    5  N   UNL     1     -12.325  12.226  70.935  1.00  0.00    -0.347 NA 
HETATM    6  C   UNL     1     -10.917  10.825  67.942  1.00  0.00    -0.344 A  
HETATM    7  C   UNL     1     -11.793  11.221  70.173  1.00  0.00    -0.364 A  
HETATM    8  C   UNL     1     -10.699   9.483  68.315  1.00  0.00    -0.241 A  
HETATM    9  C   UNL     1     -11.555   9.883  70.515  1.00  0.00    -0.386 A  
HETATM   10  C   UNL     1     -11.018   8.972  69.586  1.00  0.00    -0.136 A  
ENDROOT
BRANCH   3  11
HETATM   11  C   UNL     1     -12.777  14.642  70.666  1.00  0.00    -0.417 C  
BRANCH  11  12
HETATM   12  C   UNL     1     -13.786  14.458  71.807  1.00  0.00    -0.504 C  
BRANCH  12  13
HETATM   13  C   UNL     1     -13.897  15.688  72.698  1.00  0.00    -0.648 C  
HETATM   14  O   UNL     1     -12.333  14.962  74.367  1.00  0.00    -0.560 OA 
HETATM   15  O   UNL     1     -11.921  16.920  73.326  1.00  0.00    -0.357 OA 
HETATM   16  C   UNL     1     -12.622  15.929  73.471  1.00  0.00    -0.578 C  
ENDBRANCH  12  13
ENDBRANCH  11  12
ENDBRANCH   3  11
BRANCH  10  17
HETATM   17  N   UNL     1     -10.840   7.633  69.920  1.00  0.00    -0.250 NA 
BRANCH  17  18
HETATM   18  C   UNL     1     -11.908   6.803  70.507  1.00  0.00    -0.362 C  
HETATM   19 CL   UNL     1     -11.200   7.513  73.079  1.00  0.00    -0.404 Cl 
HETATM   20  C   UNL     1     -11.553   6.234  71.885  1.00  0.00    -0.317 C  
ENDBRANCH  17  18
BRANCH  17  21
HETATM   21  C   UNL     1      -9.495   7.023  69.839  1.00  0.00    -0.157 C  
HETATM   22 CL   UNL     1      -8.419   8.655  71.784  1.00  0.00    -0.229 Cl 
HETATM   23  C   UNL     1      -8.357   8.013  70.118  1.00  0.00    -0.126 C  
ENDBRANCH  17  21
ENDBRANCH  10  17
TORSDOF 6
ENDMDL
MODEL       26
REMARK 921   NORMALIZED FREE ENERGY PREDICTED BY IDOCK:   -5.73 KCAL/MOL
REMARK 922        TOTAL FREE ENERGY PREDICTED BY IDOCK:   -8.52 KCAL/MOL
REMARK 923 INTER-LIGAND FREE ENERGY PREDICTED BY IDOCK:   -7.58 KCAL/MOL
REMARK 924 INTRA-LIGAND FREE ENERGY PREDICTED BY IDOCK:   -0.94 KCAL/MOL
REMARK 927      BINDING AFFINITY PREDICTED BY RF-SCORE:    0.00 PKD
ROOT
HETATM    1  C   UNL     1     -13.465  13.254  72.444  1.00  0.00    -0.569 C  
HETATM    2  N   UNL     1     -12.909  12.580  71.292  1.00  0.00    -0.313 NA 
HETATM    3  C   UNL     1     -12.782  11.223  71.073  1.00  0.00    -0.359 A  
HETATM    4  C   UNL     1     -12.387  13.240  70.200  1.00  0.00    -0.236 A  
HETATM    5  N   UNL     1     -12.235  10.995  69.894  1.00  0.00    -0.339 NA 
HETATM    6  C   UNL     1     -12.228  14.588  69.865  1.00  0.00    -0.379 A  
HETATM    7  C   UNL     1     -11.973  12.226  69.354  1.00  0.00    -0.259 A  
HETATM    8  C   UNL     1     -11.632  14.874  68.619  1.00  0.00    -0.342 A  
HETATM    9  C   UNL     1     -11.376  12.545  68.127  1.00  0.00    -0.343 A  
HETATM   10  C   UNL     1     -11.208  13.882  67.718  1.00  0.00    -0.293 A  
ENDROOT
BRANCH   3  11
HETATM   11  C   UNL     1     -13.165  10.119  72.010  1.00  0.00    -0.534 C  
BRANCH  11  12
HETATM   12  C   UNL     1     -12.067   9.048  72.026  1.00  0.00    -0.440 C  
BRANCH  12  13
HETATM   13  C   UNL     1     -12.573   7.680  71.584  1.00  0.00    -0.365 C  
HETATM   14  O   UNL     1     -11.016   7.379  69.783  1.00  0.00    -0.247 OA 
HETATM   15  O   UNL     1     -11.051   5.817  71.409  1.00  0.00    -0.263 OA 
HETATM   16  C   UNL     1     -11.476   6.864  70.943  1.00  0.00    -0.323 C  
ENDBRANCH  12  13
ENDBRANCH  11  12
ENDBRANCH   3  11
BRANCH  10  17
HETATM   17  N   UNL     1     -10.666  14.184  66.472  1.00  0.00    -0.287 NA 
BRANCH  17  18
HETATM   18  C   UNL     1      -9.420  14.954  66.303  1.00  0.00    -0.309 C  
HETATM   19 CL   UNL     1      -7.864  12.835  67.146  1.00  0.00    -0.137 Cl 
HETATM   20  C   UNL     1      -8.317  14.555  67.290  1.00  0.00    -0.212 C  
ENDBRANCH  17  18
BRANCH  17  21
HETATM   21  C   UNL     1     -11.422  13.867  65.242  1.00  0.00    -0.315 C  
HETATM   22 CL   UNL     1     -10.130  11.466  64.828  1.00  0.00    -0.306 Cl 
HETATM   23  C   UNL     1     -10.609  13.072  64.212  1.00  0.00    -0.412 C  
ENDBRANCH  17  21
ENDBRANCH  10  17
TORSDOF 6
ENDMDL
MODEL       27
REMARK 921   NORMALIZED FREE ENERGY PREDICTED BY IDOCK:   -5.71 KCAL/MOL
REMARK 922        TOTAL FREE ENERGY PREDICTED BY IDOCK:   -8.49 KCAL/MOL
REMARK 923 INTER-LIGAND FREE ENERGY PREDICTED BY IDOCK:   -7.79 KCAL/MOL
REMARK 924 INTRA-LIGAND FREE ENERGY PREDICTED BY IDOCK:   -0.70 KCAL/MOL
REMARK 927      BINDING AFFINITY PREDICTED BY RF-SCORE:    0.00 PKD
ROOT
HETATM    1  C   UNL     1     -10.322  10.937  64.813  1.00  0.00    -0.323 C  
HETATM    2  N   UNL     1     -10.864  11.048  66.149  1.00  0.00    -0.197 NA 
HETATM    3  C   UNL     1     -11.714  12.013  66.650  1.00  0.00    -0.256 A  
HETATM    4  C   UNL     1     -10.576  10.162  67.166  1.00  0.00    -0.246 A  
HETATM    5  N   UNL     1     -11.997  11.767  67.915  1.00  0.00    -0.597 NA 
HETATM    6  C   UNL     1      -9.779   9.018  67.260  1.00  0.00    -0.232 A  
HETATM    7  C   UNL     1     -11.292  10.641  68.249  1.00  0.00    -0.289 A  
HETATM    8  C   UNL     1      -9.740   8.362  68.508  1.00  0.00    -0.169 A  
HETATM    9  C   UNL     1     -11.223   9.972  69.478  1.00  0.00    -0.254 A  
HETATM   10  C   UNL     1     -10.458   8.801  69.634  1.00  0.00    -0.220 A  
ENDROOT
BRANCH   3  11
HETATM   11  C   UNL     1     -12.251  13.207  65.922  1.00  0.00    -0.497 C  
BRANCH  11  12
HETATM   12  C   UNL     1     -11.478  14.463  66.344  1.00  0.00    -0.365 C  
BRANCH  12  13
HETATM   13  C   UNL     1     -10.702  15.090  65.193  1.00  0.00    -0.434 C  
HETATM   14  O   UNL     1     -12.614  15.784  63.919  1.00  0.00    -0.705 OA 
HETATM   15  O   UNL     1     -11.133  17.370  64.534  1.00  0.00    -1.008 OA 
HETATM   16  C   UNL     1     -11.488  16.200  64.536  1.00  0.00    -0.230 C  
ENDBRANCH  12  13
ENDBRANCH  11  12
ENDBRANCH   3  11
BRANCH  10  17
HETATM   17  N   UNL     1     -10.444   8.114  70.845  1.00  0.00    -0.201 NA 
BRANCH  17  18
HETATM   18  C   UNL     1      -9.976   8.717  72.105  1.00  0.00    -0.316 C  
HETATM   19 CL   UNL     1      -7.359   8.792  71.228  1.00  0.00    -0.100 Cl 
HETATM   20  C   UNL     1      -8.543   8.320  72.478  1.00  0.00    -0.208 C  
ENDBRANCH  17  18
BRANCH  17  21
HETATM   21  C   UNL     1     -10.763   6.670  70.877  1.00  0.00    -0.235 C  
HETATM   22 CL   UNL     1     -13.414   7.066  71.524  1.00  0.00    -0.404 Cl 
HETATM   23  C   UNL     1     -11.844   6.305  71.903  1.00  0.00    -0.305 C  
ENDBRANCH  17  21
ENDBRANCH  10  17
TORSDOF 6
ENDMDL
MODEL       28
REMARK 921   NORMALIZED FREE ENERGY PREDICTED BY IDOCK:   -5.68 KCAL/MOL
REMARK 922        TOTAL FREE ENERGY PREDICTED BY IDOCK:   -8.45 KCAL/MOL
REMARK 923 INTER-LIGAND FREE ENERGY PREDICTED BY IDOCK:   -7.86 KCAL/MOL
REMARK 924 INTRA-LIGAND FREE ENERGY PREDICTED BY IDOCK:   -0.59 KCAL/MOL
REMARK 927      BINDING AFFINITY PREDICTED BY RF-SCORE:    0.00 PKD
ROOT
HETATM    1  C   UNL     1      -8.620  12.694  67.464  1.00  0.00    -0.185 C  
HETATM    2  N   UNL     1      -9.785  12.336  68.241  1.00  0.00    -0.218 NA 
HETATM    3  C   UNL     1     -10.924  13.081  68.470  1.00  0.00    -0.263 A  
HETATM    4  C   UNL     1      -9.918  11.137  68.910  1.00  0.00    -0.175 A  
HETATM    5  N   UNL     1     -11.774  12.407  69.221  1.00  0.00    -0.315 NA 
HETATM    6  C   UNL     1      -9.101  10.013  69.057  1.00  0.00    -0.172 A  
HETATM    7  C   UNL     1     -11.162  11.217  69.512  1.00  0.00    -0.272 A  
HETATM    8  C   UNL     1      -9.601   8.953  69.843  1.00  0.00    -0.185 A  
HETATM    9  C   UNL     1     -11.625  10.151  70.294  1.00  0.00    -0.379 A  
HETATM   10  C   UNL     1     -10.862   8.980  70.464  1.00  0.00    -0.251 A  
ENDROOT
BRANCH   3  11
HETATM   11  C   UNL     1     -11.203  14.472  67.987  1.00  0.00    -0.308 C  
BRANCH  11  12
HETATM   12  C   UNL     1     -11.907  14.416  66.625  1.00  0.00    -0.417 C  
BRANCH  12  13
HETATM   13  C   UNL     1     -11.012  14.875  65.481  1.00  0.00    -0.355 C  
HETATM   14  O   UNL     1     -12.599  14.498  63.722  1.00  0.00    -0.825 OA 
HETATM   15  O   UNL     1     -11.767  16.582  63.953  1.00  0.00    -1.148 OA 
HETATM   16  C   UNL     1     -11.822  15.420  64.329  1.00  0.00    -0.199 C  
ENDBRANCH  12  13
ENDBRANCH  11  12
ENDBRANCH   3  11
BRANCH  10  17
HETATM   17  N   UNL     1     -11.359   7.906  71.196  1.00  0.00    -0.262 NA 
BRANCH  17  18
HETATM   18  C   UNL     1     -11.874   6.676  70.568  1.00  0.00    -0.370 C  
HETATM   19 CL   UNL     1      -9.349   5.573  70.395  1.00  0.00    -0.187 Cl 
HETATM   20  C   UNL     1     -10.882   6.023  69.599  1.00  0.00    -0.369 C  
ENDBRANCH  17  18
BRANCH  17  21
HETATM   21  C   UNL     1     -11.533   8.027  72.660  1.00  0.00    -0.402 C  
HETATM   22 CL   UNL     1      -8.839   7.798  73.201  1.00  0.00    -0.232 Cl 
HETATM   23  C   UNL     1     -10.507   7.220  73.467  1.00  0.00    -0.374 C  
ENDBRANCH  17  21
ENDBRANCH  10  17
TORSDOF 6
ENDMDL
MODEL       29
REMARK 921   NORMALIZED FREE ENERGY PREDICTED BY IDOCK:   -5.67 KCAL/MOL
REMARK 922        TOTAL FREE ENERGY PREDICTED BY IDOCK:   -8.43 KCAL/MOL
REMARK 923 INTER-LIGAND FREE ENERGY PREDICTED BY IDOCK:   -7.64 KCAL/MOL
REMARK 924 INTRA-LIGAND FREE ENERGY PREDICTED BY IDOCK:   -0.79 KCAL/MOL
REMARK 927      BINDING AFFINITY PREDICTED BY RF-SCORE:    0.00 PKD
ROOT
HETATM    1  C   UNL     1     -10.515  11.871  63.917  1.00  0.00    -0.397 C  
HETATM    2  N   UNL     1     -10.889  11.622  65.292  1.00  0.00    -0.292 NA 
HETATM    3  C   UNL     1     -11.663  12.406  66.123  1.00  0.00    -0.400 A  
HETATM    4  C   UNL     1     -10.488  10.511  66.003  1.00  0.00    -0.156 A  
HETATM    5  N   UNL     1     -11.793  11.836  67.306  1.00  0.00    -0.624 NA 
HETATM    6  C   UNL     1      -9.697   9.399  65.702  1.00  0.00    -0.336 A  
HETATM    7  C   UNL     1     -11.063  10.679  67.251  1.00  0.00    -0.243 A  
HETATM    8  C   UNL     1      -9.512   8.445  66.724  1.00  0.00    -0.255 A  
HETATM    9  C   UNL     1     -10.852   9.718  68.248  1.00  0.00    -0.256 A  
HETATM   10  C   UNL     1     -10.085   8.563  68.003  1.00  0.00    -0.200 A  
ENDROOT
BRANCH   3  11
HETATM   11  C   UNL     1     -12.273  13.735  65.798  1.00  0.00    -0.495 C  
BRANCH  11  12
HETATM   12  C   UNL     1     -11.597  14.834  66.629  1.00  0.00    -0.319 C  
BRANCH  12  13
HETATM   13  C   UNL     1     -10.326  15.365  65.978  1.00  0.00    -0.339 C  
HETATM   14  O   UNL     1     -11.411  16.780  64.372  1.00  0.00    -1.089 OA 
HETATM   15  O   UNL     1      -9.952  17.741  65.798  1.00  0.00    -0.545 OA 
HETATM   16  C   UNL     1     -10.536  16.744  65.399  1.00  0.00    -0.193 C  
ENDBRANCH  12  13
ENDBRANCH  11  12
ENDBRANCH   3  11
BRANCH  10  17
HETATM   17  N   UNL     1      -9.931   7.588  68.985  1.00  0.00    -0.171 NA 
BRANCH  17  18
HETATM   18  C   UNL     1     -10.917   6.516  69.213  1.00  0.00    -0.331 C  
HETATM   19 CL   UNL     1     -12.142   7.924  71.248  1.00  0.00    -0.313 Cl 
HETATM   20  C   UNL     1     -11.383   6.415  70.670  1.00  0.00    -0.357 C  
ENDBRANCH  17  18
BRANCH  17  21
HETATM   21  C   UNL     1      -8.820   7.687  69.956  1.00  0.00    -0.143 C  
HETATM   22 CL   UNL     1      -6.957   6.597  68.240  1.00  0.00    -0.074 Cl 
HETATM   23  C   UNL     1      -7.787   6.561  69.821  1.00  0.00    -0.115 C  
ENDBRANCH  17  21
ENDBRANCH  10  17
TORSDOF 6
ENDMDL
MODEL       30
REMARK 921   NORMALIZED FREE ENERGY PREDICTED BY IDOCK:   -5.66 KCAL/MOL
REMARK 922        TOTAL FREE ENERGY PREDICTED BY IDOCK:   -8.43 KCAL/MOL
REMARK 923 INTER-LIGAND FREE ENERGY PREDICTED BY IDOCK:   -7.68 KCAL/MOL
REMARK 924 INTRA-LIGAND FREE ENERGY PREDICTED BY IDOCK:   -0.75 KCAL/MOL
REMARK 927      BINDING AFFINITY PREDICTED BY RF-SCORE:    0.00 PKD
ROOT
HETATM    1  C   UNL     1     -12.647  12.613  65.007  1.00  0.00    -0.430 C  
HETATM    2  N   UNL     1     -11.680  13.191  65.913  1.00  0.00    -0.364 NA 
HETATM    3  C   UNL     1     -11.147  12.642  67.061  1.00  0.00    -0.281 A  
HETATM    4  C   UNL     1     -11.138  14.449  65.750  1.00  0.00    -0.316 A  
HETATM    5  N   UNL     1     -10.282  13.472  67.611  1.00  0.00    -0.236 NA 
HETATM    6  C   UNL     1     -11.304  15.462  64.801  1.00  0.00    -0.381 A  
HETATM    7  C   UNL     1     -10.278  14.592  66.825  1.00  0.00    -0.268 A  
HETATM    8  C   UNL     1     -10.551  16.641  64.981  1.00  0.00    -0.114 A  
HETATM    9  C   UNL     1      -9.552  15.780  66.980  1.00  0.00    -0.236 A  
HETATM   10  C   UNL     1      -9.656  16.831  66.048  1.00  0.00    -0.234 A  
ENDROOT
BRANCH   3  11
HETATM   11  C   UNL     1     -11.481  11.311  67.662  1.00  0.00    -0.341 C  
BRANCH  11  12
HETATM   12  C   UNL     1     -12.105  11.511  69.050  1.00  0.00    -0.303 C  
BRANCH  12  13
HETATM   13  C   UNL     1     -11.479  10.615  70.111  1.00  0.00    -0.411 C  
HETATM   14  O   UNL     1     -13.086  11.067  71.834  1.00  0.00    -0.486 OA 
HETATM   15  O   UNL     1     -12.800   8.920  71.206  1.00  0.00    -0.306 OA 
HETATM   16  C   UNL     1     -12.515  10.103  71.083  1.00  0.00    -0.387 C  
ENDBRANCH  12  13
ENDBRANCH  11  12
ENDBRANCH   3  11
BRANCH  10  17
HETATM   17  N   UNL     1      -8.884  17.982  66.182  1.00  0.00    -0.493 NA 
BRANCH  17  18
HETATM   18  C   UNL     1      -9.463  19.338  66.207  1.00  0.00    -0.345 C  
HETATM   19 CL   UNL     1      -9.940  19.206  68.923  1.00  0.00    -0.494 Cl 
HETATM   20  C   UNL     1     -10.548  19.520  67.274  1.00  0.00    -0.490 C  
ENDBRANCH  17  18
BRANCH  17  21
HETATM   21  C   UNL     1      -7.409  17.890  66.149  1.00  0.00    -0.292 C  
HETATM   22 CL   UNL     1      -7.166  17.623  68.883  1.00  0.00    -0.265 Cl 
HETATM   23  C   UNL     1      -6.731  18.494  67.386  1.00  0.00    -0.201 C  
ENDBRANCH  17  21
ENDBRANCH  10  17
TORSDOF 6
ENDMDL
MODEL       31
REMARK 921   NORMALIZED FREE ENERGY PREDICTED BY IDOCK:   -5.66 KCAL/MOL
REMARK 922        TOTAL FREE ENERGY PREDICTED BY IDOCK:   -8.42 KCAL/MOL
REMARK 923 INTER-LIGAND FREE ENERGY PREDICTED BY IDOCK:   -7.75 KCAL/MOL
REMARK 924 INTRA-LIGAND FREE ENERGY PREDICTED BY IDOCK:   -0.68 KCAL/MOL
REMARK 927      BINDING AFFINITY PREDICTED BY RF-SCORE:    0.00 PKD
ROOT
HETATM    1  C   UNL     1     -13.888  12.737  72.226  1.00  0.00    -0.302 C  
HETATM    2  N   UNL     1     -12.883  12.388  71.246  1.00  0.00    -0.313 NA 
HETATM    3  C   UNL     1     -12.204  13.223  70.383  1.00  0.00    -0.332 A  
HETATM    4  C   UNL     1     -12.453  11.098  71.020  1.00  0.00    -0.403 A  
HETATM    5  N   UNL     1     -11.354  12.533  69.647  1.00  0.00    -0.170 NA 
HETATM    6  C   UNL     1     -12.783   9.854  71.567  1.00  0.00    -0.515 A  
HETATM    7  C   UNL     1     -11.507  11.224  70.017  1.00  0.00    -0.275 A  
HETATM    8  C   UNL     1     -12.104   8.728  71.058  1.00  0.00    -0.262 A  
HETATM    9  C   UNL     1     -10.858  10.084  69.527  1.00  0.00    -0.283 A  
HETATM   10  C   UNL     1     -11.127   8.804  70.050  1.00  0.00    -0.162 A  
ENDROOT
BRANCH   3  11
HETATM   11  C   UNL     1     -12.382  14.704  70.234  1.00  0.00    -0.406 C  
BRANCH  11  12
HETATM   12  C   UNL     1     -11.778  15.423  71.446  1.00  0.00    -0.453 C  
BRANCH  12  13
HETATM   13  C   UNL     1     -12.837  16.022  72.363  1.00  0.00    -0.470 C  
HETATM   14  O   UNL     1     -12.169  14.856  74.351  1.00  0.00    -0.578 OA 
HETATM   15  O   UNL     1     -12.194  17.110  74.417  1.00  0.00    -0.510 OA 
HETATM   16  C   UNL     1     -12.364  16.071  73.796  1.00  0.00    -0.575 C  
ENDBRANCH  12  13
ENDBRANCH  11  12
ENDBRANCH   3  11
BRANCH  10  17
HETATM   17  N   UNL     1     -10.433   7.687  69.594  1.00  0.00    -0.231 NA 
BRANCH  17  18
HETATM   18  C   UNL     1      -9.095   7.768  68.981  1.00  0.00    -0.144 C  
HETATM   19 CL   UNL     1     -10.138   8.496  66.530  1.00  0.00    -0.354 Cl 
HETATM   20  C   UNL     1      -9.084   7.420  67.488  1.00  0.00    -0.125 C  
ENDBRANCH  17  18
BRANCH  17  21
HETATM   21  C   UNL     1     -11.097   6.366  69.568  1.00  0.00    -0.396 C  
HETATM   22 CL   UNL     1     -10.512   5.798  72.202  1.00  0.00    -0.247 Cl 
HETATM   23  C   UNL     1     -10.430   5.329  70.481  1.00  0.00    -0.242 C  
ENDBRANCH  17  21
ENDBRANCH  10  17
TORSDOF 6
ENDMDL
MODEL       32
REMARK 921   NORMALIZED FREE ENERGY PREDICTED BY IDOCK:   -5.65 KCAL/MOL
REMARK 922        TOTAL FREE ENERGY PREDICTED BY IDOCK:   -8.41 KCAL/MOL
REMARK 923 INTER-LIGAND FREE ENERGY PREDICTED BY IDOCK:   -7.53 KCAL/MOL
REMARK 924 INTRA-LIGAND FREE ENERGY PREDICTED BY IDOCK:   -0.87 KCAL/MOL
REMARK 927      BINDING AFFINITY PREDICTED BY RF-SCORE:    0.00 PKD
ROOT
HETATM    1  C   UNL     1     -12.381  13.809  69.731  1.00  0.00    -0.255 C  
HETATM    2  N   UNL     1     -11.990  12.796  68.776  1.00  0.00    -0.289 NA 
HETATM    3  C   UNL     1     -12.015  12.863  67.398  1.00  0.00    -0.300 A  
HETATM    4  C   UNL     1     -11.527  11.547  69.135  1.00  0.00    -0.297 A  
HETATM    5  N   UNL     1     -11.568  11.738  66.873  1.00  0.00    -0.548 NA 
HETATM    6  C   UNL     1     -11.305  10.908  70.358  1.00  0.00    -0.289 A  
HETATM    7  C   UNL     1     -11.279  10.915  67.928  1.00  0.00    -0.321 A  
HETATM    8  C   UNL     1     -10.810   9.589  70.314  1.00  0.00    -0.319 A  
HETATM    9  C   UNL     1     -10.796   9.600  67.919  1.00  0.00    -0.272 A  
HETATM   10  C   UNL     1     -10.530   8.908  69.116  1.00  0.00    -0.223 A  
ENDROOT
BRANCH   3  11
HETATM   11  C   UNL     1     -12.495  14.008  66.560  1.00  0.00    -0.351 C  
BRANCH  11  12
HETATM   12  C   UNL     1     -12.045  13.812  65.106  1.00  0.00    -0.416 C  
BRANCH  12  13
HETATM   13  C   UNL     1     -10.823  14.650  64.751  1.00  0.00    -0.402 C  
HETATM   14  O   UNL     1     -12.027  16.526  63.861  1.00  0.00    -0.979 OA 
HETATM   15  O   UNL     1     -10.613  16.906  65.576  1.00  0.00    -0.523 OA 
HETATM   16  C   UNL     1     -11.135  16.127  64.792  1.00  0.00    -0.333 C  
ENDBRANCH  12  13
ENDBRANCH  11  12
ENDBRANCH   3  11
BRANCH  10  17
HETATM   17  N   UNL     1      -9.995   7.623  69.093  1.00  0.00    -0.176 NA 
BRANCH  17  18
HETATM   18  C   UNL     1     -10.806   6.420  68.834  1.00  0.00    -0.325 C  
HETATM   19 CL   UNL     1     -11.386   6.097  71.514  1.00  0.00    -0.346 Cl 
HETATM   20  C   UNL     1     -10.781   5.406  69.983  1.00  0.00    -0.226 C  
ENDBRANCH  17  18
BRANCH  17  21
HETATM   21  C   UNL     1      -8.588   7.402  69.490  1.00  0.00    -0.134 C  
HETATM   22 CL   UNL     1      -7.578   8.040  67.004  1.00  0.00    -0.095 Cl 
HETATM   23  C   UNL     1      -7.707   6.874  68.350  1.00  0.00    -0.116 C  
ENDBRANCH  17  21
ENDBRANCH  10  17
TORSDOF 6
ENDMDL
MODEL       33
REMARK 921   NORMALIZED FREE ENERGY PREDICTED BY IDOCK:   -5.64 KCAL/MOL
REMARK 922        TOTAL FREE ENERGY PREDICTED BY IDOCK:   -8.40 KCAL/MOL
REMARK 923 INTER-LIGAND FREE ENERGY PREDICTED BY IDOCK:   -7.68 KCAL/MOL
REMARK 924 INTRA-LIGAND FREE ENERGY PREDICTED BY IDOCK:   -0.71 KCAL/MOL
REMARK 927      BINDING AFFINITY PREDICTED BY RF-SCORE:    0.00 PKD
ROOT
HETATM    1  C   UNL     1     -10.226  10.639  65.211  1.00  0.00    -0.282 C  
HETATM    2  N   UNL     1     -10.758  10.876  66.534  1.00  0.00    -0.238 NA 
HETATM    3  C   UNL     1     -11.606  11.882  66.948  1.00  0.00    -0.285 A  
HETATM    4  C   UNL     1     -10.462  10.089  67.628  1.00  0.00    -0.246 A  
HETATM    5  N   UNL     1     -11.880  11.756  68.233  1.00  0.00    -0.488 NA 
HETATM    6  C   UNL     1      -9.664   8.958  67.823  1.00  0.00    -0.196 A  
HETATM    7  C   UNL     1     -11.172  10.667  68.666  1.00  0.00    -0.278 A  
HETATM    8  C   UNL     1      -9.615   8.423  69.127  1.00  0.00    -0.164 A  
HETATM    9  C   UNL     1     -11.093  10.117  69.952  1.00  0.00    -0.346 A  
HETATM   10  C   UNL     1     -10.326   8.965  70.212  1.00  0.00    -0.206 A  
ENDROOT
BRANCH   3  11
HETATM   11  C   UNL     1     -12.149  13.003  66.115  1.00  0.00    -0.473 C  
BRANCH  11  12
HETATM   12  C   UNL     1     -11.353  14.286  66.388  1.00  0.00    -0.346 C  
BRANCH  12  13
HETATM   13  C   UNL     1     -10.647  14.815  65.146  1.00  0.00    -0.439 C  
HETATM   14  O   UNL     1     -12.627  15.195  63.846  1.00  0.00    -0.794 OA 
HETATM   15  O   UNL     1     -11.262  16.952  64.214  1.00  0.00    -1.204 OA 
HETATM   16  C   UNL     1     -11.526  15.770  64.374  1.00  0.00    -0.263 C  
ENDBRANCH  12  13
ENDBRANCH  11  12
ENDBRANCH   3  11
BRANCH  10  17
HETATM   17  N   UNL     1     -10.303   8.395  71.482  1.00  0.00    -0.213 NA 
BRANCH  17  18
HETATM   18  C   UNL     1     -11.440   7.646  72.045  1.00  0.00    -0.283 C  
HETATM   19 CL   UNL     1     -10.932   5.452  70.448  1.00  0.00    -0.216 Cl 
HETATM   20  C   UNL     1     -12.085   6.673  71.051  1.00  0.00    -0.327 C  
ENDBRANCH  17  18
BRANCH  17  21
HETATM   21  C   UNL     1      -9.166   8.659  72.389  1.00  0.00    -0.186 C  
HETATM   22 CL   UNL     1      -7.725   6.464  71.547  1.00  0.00    -0.098 Cl 
HETATM   23  C   UNL     1      -8.469   7.385  72.884  1.00  0.00    -0.114 C  
ENDBRANCH  17  21
ENDBRANCH  10  17
TORSDOF 6
ENDMDL
MODEL       34
REMARK 921   NORMALIZED FREE ENERGY PREDICTED BY IDOCK:   -5.64 KCAL/MOL
REMARK 922        TOTAL FREE ENERGY PREDICTED BY IDOCK:   -8.39 KCAL/MOL
REMARK 923 INTER-LIGAND FREE ENERGY PREDICTED BY IDOCK:   -8.12 KCAL/MOL
REMARK 924 INTRA-LIGAND FREE ENERGY PREDICTED BY IDOCK:   -0.27 KCAL/MOL
REMARK 927      BINDING AFFINITY PREDICTED BY RF-SCORE:    0.00 PKD
ROOT
HETATM    1  C   UNL     1      -9.018  12.438  66.923  1.00  0.00    -0.212 C  
HETATM    2  N   UNL     1     -10.177  12.317  67.779  1.00  0.00    -0.199 NA 
HETATM    3  C   UNL     1     -11.305  13.111  67.811  1.00  0.00    -0.290 A  
HETATM    4  C   UNL     1     -10.313  11.343  68.746  1.00  0.00    -0.204 A  
HETATM    5  N   UNL     1     -12.152  12.674  68.724  1.00  0.00    -0.208 NA 
HETATM    6  C   UNL     1      -9.506  10.287  69.181  1.00  0.00    -0.225 A  
HETATM    7  C   UNL     1     -11.548  11.598  69.316  1.00  0.00    -0.320 A  
HETATM    8  C   UNL     1     -10.007   9.484  70.227  1.00  0.00    -0.310 A  
HETATM    9  C   UNL     1     -12.012  10.786  70.360  1.00  0.00    -0.448 A  
HETATM   10  C   UNL     1     -11.259   9.693  70.830  1.00  0.00    -0.352 A  
ENDROOT
BRANCH   3  11
HETATM   11  C   UNL     1     -11.576  14.325  66.976  1.00  0.00    -0.406 C  
BRANCH  11  12
HETATM   12  C   UNL     1     -12.632  13.999  65.913  1.00  0.00    -0.484 C  
BRANCH  12  13
HETATM   13  C   UNL     1     -12.411  12.639  65.262  1.00  0.00    -0.528 C  
HETATM   14  O   UNL     1     -12.558  13.397  62.990  1.00  0.00    -0.669 OA 
HETATM   15  O   UNL     1     -10.666  12.345  63.623  1.00  0.00    -0.417 OA 
HETATM   16  C   UNL     1     -11.776  12.776  63.898  1.00  0.00    -0.459 C  
ENDBRANCH  12  13
ENDBRANCH  11  12
ENDBRANCH   3  11
BRANCH  10  17
HETATM   17  N   UNL     1     -11.758   8.860  71.828  1.00  0.00    -0.337 NA 
BRANCH  17  18
HETATM   18  C   UNL     1     -13.058   9.084  72.486  1.00  0.00    -0.385 C  
HETATM   19 CL   UNL     1     -14.231   6.982  71.133  1.00  0.00    -0.239 Cl 
HETATM   20  C   UNL     1     -14.258   8.702  71.613  1.00  0.00    -0.387 C  
ENDBRANCH  17  18
BRANCH  17  21
HETATM   21  C   UNL     1     -10.909   7.784  72.383  1.00  0.00    -0.303 C  
HETATM   22 CL   UNL     1     -11.237   6.128  70.202  1.00  0.00    -0.446 Cl 
HETATM   23  C   UNL     1     -11.357   6.377  71.966  1.00  0.00    -0.294 C  
ENDBRANCH  17  21
ENDBRANCH  10  17
TORSDOF 6
ENDMDL
MODEL       35
REMARK 921   NORMALIZED FREE ENERGY PREDICTED BY IDOCK:   -5.64 KCAL/MOL
REMARK 922        TOTAL FREE ENERGY PREDICTED BY IDOCK:   -8.39 KCAL/MOL
REMARK 923 INTER-LIGAND FREE ENERGY PREDICTED BY IDOCK:   -7.54 KCAL/MOL
REMARK 924 INTRA-LIGAND FREE ENERGY PREDICTED BY IDOCK:   -0.85 KCAL/MOL
REMARK 927      BINDING AFFINITY PREDICTED BY RF-SCORE:    0.00 PKD
ROOT
HETATM    1  C   UNL     1     -11.718  12.408  65.564  1.00  0.00    -0.407 C  
HETATM    2  N   UNL     1     -11.127  13.001  66.743  1.00  0.00    -0.279 NA 
HETATM    3  C   UNL     1     -10.867  12.407  67.961  1.00  0.00    -0.221 A  
HETATM    4  C   UNL     1     -10.735  14.321  66.819  1.00  0.00    -0.287 A  
HETATM    5  N   UNL     1     -10.308  13.271  68.787  1.00  0.00    -0.189 NA 
HETATM    6  C   UNL     1     -10.764  15.395  65.925  1.00  0.00    -0.343 A  
HETATM    7  C   UNL     1     -10.236  14.455  68.103  1.00  0.00    -0.232 A  
HETATM    8  C   UNL     1     -10.255  16.628  66.385  1.00  0.00    -0.322 A  
HETATM    9  C   UNL     1      -9.746  15.696  68.531  1.00  0.00    -0.202 A  
HETATM   10  C   UNL     1      -9.725  16.813  67.674  1.00  0.00    -0.251 A  
ENDROOT
BRANCH   3  11
HETATM   11  C   UNL     1     -11.176  10.996  68.360  1.00  0.00    -0.337 C  
BRANCH  11  12
HETATM   12  C   UNL     1     -12.348  10.981  69.350  1.00  0.00    -0.222 C  
BRANCH  12  13
HETATM   13  C   UNL     1     -11.995  10.306  70.669  1.00  0.00    -0.436 C  
HETATM   14  O   UNL     1     -13.265  11.777  72.078  1.00  0.00    -0.506 OA 
HETATM   15  O   UNL     1     -13.739   9.573  72.166  1.00  0.00    -0.417 OA 
HETATM   16  C   UNL     1     -13.087  10.494  71.696  1.00  0.00    -0.446 C  
ENDBRANCH  12  13
ENDBRANCH  11  12
ENDBRANCH   3  11
BRANCH  10  17
HETATM   17  N   UNL     1      -9.183  18.024  68.094  1.00  0.00    -0.272 NA 
BRANCH  17  18
HETATM   18  C   UNL     1      -7.753  18.198  68.406  1.00  0.00    -0.295 C  
HETATM   19 CL   UNL     1      -7.102  18.567  65.749  1.00  0.00    -0.286 Cl 
HETATM   20  C   UNL     1      -6.820  17.713  67.291  1.00  0.00    -0.162 C  
ENDBRANCH  17  18
BRANCH  17  21
HETATM   21  C   UNL     1     -10.073  19.166  68.395  1.00  0.00    -0.418 C  
HETATM   22 CL   UNL     1     -10.311  19.933  65.757  1.00  0.00    -0.566 Cl 
HETATM   23  C   UNL     1      -9.889  20.353  67.440  1.00  0.00    -0.446 C  
ENDBRANCH  17  21
ENDBRANCH  10  17
TORSDOF 6
ENDMDL
MODEL       36
REMARK 921   NORMALIZED FREE ENERGY PREDICTED BY IDOCK:   -5.60 KCAL/MOL
REMARK 922        TOTAL FREE ENERGY PREDICTED BY IDOCK:   -8.34 KCAL/MOL
REMARK 923 INTER-LIGAND FREE ENERGY PREDICTED BY IDOCK:   -7.44 KCAL/MOL
REMARK 924 INTRA-LIGAND FREE ENERGY PREDICTED BY IDOCK:   -0.90 KCAL/MOL
REMARK 927      BINDING AFFINITY PREDICTED BY RF-SCORE:    0.00 PKD
ROOT
HETATM    1  C   UNL     1     -11.272  12.696  63.644  1.00  0.00    -0.466 C  
HETATM    2  N   UNL     1     -10.542  12.940  64.868  1.00  0.00    -0.309 NA 
HETATM    3  C   UNL     1      -9.942  12.021  65.705  1.00  0.00    -0.245 A  
HETATM    4  C   UNL     1     -10.347  14.196  65.403  1.00  0.00    -0.365 A  
HETATM    5  N   UNL     1      -9.359  12.632  66.719  1.00  0.00    -0.227 NA 
HETATM    6  C   UNL     1     -10.728  15.485  65.018  1.00  0.00    -0.463 A  
HETATM    7  C   UNL     1      -9.614  13.967  66.554  1.00  0.00    -0.293 A  
HETATM    8  C   UNL     1     -10.327  16.550  65.851  1.00  0.00    -0.365 A  
HETATM    9  C   UNL     1      -9.239  15.046  67.365  1.00  0.00    -0.200 A  
HETATM   10  C   UNL     1      -9.571  16.371  67.023  1.00  0.00    -0.237 A  
ENDROOT
BRANCH   3  11
HETATM   11  C   UNL     1      -9.941  10.531  65.554  1.00  0.00    -0.342 C  
BRANCH  11  12
HETATM   12  C   UNL     1      -9.598   9.873  66.897  1.00  0.00    -0.225 C  
BRANCH  12  13
HETATM   13  C   UNL     1     -10.837   9.478  67.691  1.00  0.00    -0.253 C  
HETATM   14  O   UNL     1     -10.298  10.716  69.675  1.00  0.00    -0.216 OA 
HETATM   15  O   UNL     1     -12.258  11.172  68.655  1.00  0.00    -0.582 OA 
HETATM   16  C   UNL     1     -11.212  10.540  68.697  1.00  0.00    -0.270 C  
ENDBRANCH  12  13
ENDBRANCH  11  12
ENDBRANCH   3  11
BRANCH  10  17
HETATM   17  N   UNL     1      -9.142  17.439  67.807  1.00  0.00    -0.240 NA 
BRANCH  17  18
HETATM   18  C   UNL     1      -7.723  17.687  68.120  1.00  0.00    -0.244 C  
HETATM   19 CL   UNL     1      -7.335  19.085  65.771  1.00  0.00    -0.275 Cl 
HETATM   20  C   UNL     1      -6.831  17.778  66.877  1.00  0.00    -0.179 C  
ENDBRANCH  17  18
BRANCH  17  21
HETATM   21  C   UNL     1     -10.133  18.292  68.497  1.00  0.00    -0.398 C  
HETATM   22 CL   UNL     1     -10.657  19.830  66.268  1.00  0.00    -0.588 Cl 
HETATM   23  C   UNL     1     -10.161  19.737  67.981  1.00  0.00    -0.451 C  
ENDBRANCH  17  21
ENDBRANCH  10  17
TORSDOF 6
ENDMDL
MODEL       37
REMARK 921   NORMALIZED FREE ENERGY PREDICTED BY IDOCK:   -5.59 KCAL/MOL
REMARK 922        TOTAL FREE ENERGY PREDICTED BY IDOCK:   -8.33 KCAL/MOL
REMARK 923 INTER-LIGAND FREE ENERGY PREDICTED BY IDOCK:   -7.43 KCAL/MOL
REMARK 924 INTRA-LIGAND FREE ENERGY PREDICTED BY IDOCK:   -0.90 KCAL/MOL
REMARK 927      BINDING AFFINITY PREDICTED BY RF-SCORE:    0.00 PKD
ROOT
HETATM    1  C   UNL     1     -10.193  12.081  63.774  1.00  0.00    -0.422 C  
HETATM    2  N   UNL     1     -10.692  11.731  65.085  1.00  0.00    -0.282 NA 
HETATM    3  C   UNL     1     -11.595  12.420  65.870  1.00  0.00    -0.396 A  
HETATM    4  C   UNL     1     -10.300  10.603  65.775  1.00  0.00    -0.219 A  
HETATM    5  N   UNL     1     -11.812  11.774  67.000  1.00  0.00    -0.607 NA 
HETATM    6  C   UNL     1      -9.416   9.556  65.501  1.00  0.00    -0.334 A  
HETATM    7  C   UNL     1     -11.011  10.664  66.961  1.00  0.00    -0.208 A  
HETATM    8  C   UNL     1      -9.280   8.555  66.484  1.00  0.00    -0.239 A  
HETATM    9  C   UNL     1     -10.846   9.658  67.922  1.00  0.00    -0.272 A  
HETATM   10  C   UNL     1      -9.988   8.564  67.699  1.00  0.00    -0.198 A  
ENDROOT
BRANCH   3  11
HETATM   11  C   UNL     1     -12.248  13.730  65.553  1.00  0.00    -0.470 C  
BRANCH  11  12
HETATM   12  C   UNL     1     -11.804  14.790  66.569  1.00  0.00    -0.238 C  
BRANCH  12  13
HETATM   13  C   UNL     1     -10.426  15.361  66.259  1.00  0.00    -0.310 C  
HETATM   14  O   UNL     1     -11.117  16.777  64.449  1.00  0.00    -1.072 OA 
HETATM   15  O   UNL     1     -10.082  17.748  66.202  1.00  0.00    -0.392 OA 
HETATM   16  C   UNL     1     -10.522  16.745  65.660  1.00  0.00    -0.269 C  
ENDBRANCH  12  13
ENDBRANCH  11  12
ENDBRANCH   3  11
BRANCH  10  17
HETATM   17  N   UNL     1      -9.878   7.541  68.637  1.00  0.00    -0.162 NA 
BRANCH  17  18
HETATM   18  C   UNL     1      -8.914   6.434  68.508  1.00  0.00    -0.125 C  
HETATM   19 CL   UNL     1     -10.468   5.152  66.620  1.00  0.00    -0.320 Cl 
HETATM   20  C   UNL     1      -9.567   5.092  68.160  1.00  0.00    -0.138 C  
ENDBRANCH  17  18
BRANCH  17  21
HETATM   21  C   UNL     1     -10.854   7.446  69.744  1.00  0.00    -0.234 C  
HETATM   22 CL   UNL     1      -9.484   9.205  71.368  1.00  0.00    -0.325 Cl 
HETATM   23  C   UNL     1     -10.219   7.595  71.133  1.00  0.00    -0.195 C  
ENDBRANCH  17  21
ENDBRANCH  10  17
TORSDOF 6
ENDMDL
MODEL       38
REMARK 921   NORMALIZED FREE ENERGY PREDICTED BY IDOCK:   -5.59 KCAL/MOL
REMARK 922        TOTAL FREE ENERGY PREDICTED BY IDOCK:   -8.32 KCAL/MOL
REMARK 923 INTER-LIGAND FREE ENERGY PREDICTED BY IDOCK:   -7.55 KCAL/MOL
REMARK 924 INTRA-LIGAND FREE ENERGY PREDICTED BY IDOCK:   -0.77 KCAL/MOL
REMARK 927      BINDING AFFINITY PREDICTED BY RF-SCORE:    0.00 PKD
ROOT
HETATM    1  C   UNL     1     -11.814  12.274  63.397  1.00  0.00    -0.473 C  
HETATM    2  N   UNL     1     -10.966  12.622  64.515  1.00  0.00    -0.313 NA 
HETATM    3  C   UNL     1     -10.211  11.785  65.311  1.00  0.00    -0.267 A  
HETATM    4  C   UNL     1     -10.800  13.912  64.974  1.00  0.00    -0.382 A  
HETATM    5  N   UNL     1      -9.560  12.479  66.224  1.00  0.00    -0.250 NA 
HETATM    6  C   UNL     1     -11.311  15.154  64.586  1.00  0.00    -0.362 A  
HETATM    7  C   UNL     1      -9.924  13.786  66.038  1.00  0.00    -0.306 A  
HETATM    8  C   UNL     1     -10.892  16.281  65.324  1.00  0.00    -0.310 A  
HETATM    9  C   UNL     1      -9.535  14.924  66.756  1.00  0.00    -0.269 A  
HETATM   10  C   UNL     1      -9.995  16.207  66.404  1.00  0.00    -0.299 A  
ENDROOT
BRANCH   3  11
HETATM   11  C   UNL     1     -10.124  10.292  65.220  1.00  0.00    -0.359 C  
BRANCH  11  12
HETATM   12  C   UNL     1      -9.561   9.724  66.529  1.00  0.00    -0.249 C  
BRANCH  12  13
HETATM   13  C   UNL     1     -10.653   9.345  67.522  1.00  0.00    -0.333 C  
HETATM   14  O   UNL     1      -9.966  10.841  69.268  1.00  0.00    -0.214 OA 
HETATM   15  O   UNL     1     -12.070  11.044  68.482  1.00  0.00    -0.573 OA 
HETATM   16  C   UNL     1     -10.980  10.492  68.449  1.00  0.00    -0.261 C  
ENDBRANCH  12  13
ENDBRANCH  11  12
ENDBRANCH   3  11
BRANCH  10  17
HETATM   17  N   UNL     1      -9.555  17.336  67.090  1.00  0.00    -0.250 NA 
BRANCH  17  18
HETATM   18  C   UNL     1     -10.467  18.254  67.795  1.00  0.00    -0.410 C  
HETATM   19 CL   UNL     1     -10.697  19.899  65.589  1.00  0.00    -0.505 Cl 
HETATM   20  C   UNL     1     -10.350  19.709  67.330  1.00  0.00    -0.451 C  
ENDBRANCH  17  18
BRANCH  17  21
HETATM   21  C   UNL     1      -8.137  17.747  67.001  1.00  0.00    -0.219 C  
HETATM   22 CL   UNL     1      -7.374  16.305  69.225  1.00  0.00    -0.228 Cl 
HETATM   23  C   UNL     1      -7.450  17.869  68.368  1.00  0.00    -0.272 C  
ENDBRANCH  17  21
ENDBRANCH  10  17
TORSDOF 6
ENDMDL
MODEL       39
REMARK 921   NORMALIZED FREE ENERGY PREDICTED BY IDOCK:   -5.57 KCAL/MOL
REMARK 922        TOTAL FREE ENERGY PREDICTED BY IDOCK:   -8.31 KCAL/MOL
REMARK 923 INTER-LIGAND FREE ENERGY PREDICTED BY IDOCK:   -7.28 KCAL/MOL
REMARK 924 INTRA-LIGAND FREE ENERGY PREDICTED BY IDOCK:   -1.02 KCAL/MOL
REMARK 927      BINDING AFFINITY PREDICTED BY RF-SCORE:    0.00 PKD
ROOT
HETATM    1  C   UNL     1     -10.136  18.923  68.688  1.00  0.00    -0.388 C  
HETATM    2  N   UNL     1      -9.692  18.010  67.660  1.00  0.00    -0.284 NA 
HETATM    3  C   UNL     1      -8.783  18.237  66.647  1.00  0.00    -0.277 A  
HETATM    4  C   UNL     1     -10.155  16.716  67.536  1.00  0.00    -0.273 A  
HETATM    5  N   UNL     1      -8.629  17.152  65.912  1.00  0.00    -0.529 NA 
HETATM    6  C   UNL     1     -11.078  15.943  68.246  1.00  0.00    -0.345 A  
HETATM    7  C   UNL     1      -9.478  16.215  66.438  1.00  0.00    -0.295 A  
HETATM    8  C   UNL     1     -11.288  14.622  67.800  1.00  0.00    -0.338 A  
HETATM    9  C   UNL     1      -9.717  14.901  66.015  1.00  0.00    -0.358 A  
HETATM   10  C   UNL     1     -10.616  14.062  66.699  1.00  0.00    -0.274 A  
ENDROOT
BRANCH   3  11
HETATM   11  C   UNL     1      -8.062  19.517  66.354  1.00  0.00    -0.331 C  
BRANCH  11  12
HETATM   12  C   UNL     1      -6.552  19.256  66.275  1.00  0.00    -0.214 C  
BRANCH  12  13
HETATM   13  C   UNL     1      -5.936  18.956  67.635  1.00  0.00    -0.201 C  
HETATM   14  O   UNL     1      -5.826  21.229  68.395  1.00  0.00    -0.318 OA 
HETATM   15  O   UNL     1      -6.986  19.759  69.652  1.00  0.00    -0.337 OA 
HETATM   16  C   UNL     1      -6.317  19.999  68.658  1.00  0.00    -0.297 C  
ENDBRANCH  12  13
ENDBRANCH  11  12
ENDBRANCH   3  11
BRANCH  10  17
HETATM   17  N   UNL     1     -10.801  12.740  66.304  1.00  0.00    -0.271 NA 
BRANCH  17  18
HETATM   18  C   UNL     1     -10.214  12.181  65.073  1.00  0.00    -0.283 C  
HETATM   19 CL   UNL     1     -12.077  13.447  63.476  1.00  0.00    -0.553 Cl 
HETATM   20  C   UNL     1     -11.240  11.946  63.958  1.00  0.00    -0.396 C  
ENDBRANCH  17  18
BRANCH  17  21
HETATM   21  C   UNL     1     -11.742  11.872  67.044  1.00  0.00    -0.227 C  
HETATM   22 CL   UNL     1      -9.927  11.258  69.028  1.00  0.00    -0.171 Cl 
HETATM   23  C   UNL     1     -11.058  10.702  67.763  1.00  0.00    -0.321 C  
ENDBRANCH  17  21
ENDBRANCH  10  17
TORSDOF 6
ENDMDL
MODEL       40
REMARK 921   NORMALIZED FREE ENERGY PREDICTED BY IDOCK:   -5.52 KCAL/MOL
REMARK 922        TOTAL FREE ENERGY PREDICTED BY IDOCK:   -8.24 KCAL/MOL
REMARK 923 INTER-LIGAND FREE ENERGY PREDICTED BY IDOCK:   -7.38 KCAL/MOL
REMARK 924 INTRA-LIGAND FREE ENERGY PREDICTED BY IDOCK:   -0.85 KCAL/MOL
REMARK 927      BINDING AFFINITY PREDICTED BY RF-SCORE:    0.00 PKD
ROOT
HETATM    1  C   UNL     1      -8.340  11.956  67.458  1.00  0.00    -0.158 C  
HETATM    2  N   UNL     1      -9.077  13.130  67.044  1.00  0.00    -0.225 NA 
HETATM    3  C   UNL     1     -10.303  13.193  66.415  1.00  0.00    -0.287 A  
HETATM    4  C   UNL     1      -8.619  14.419  67.220  1.00  0.00    -0.215 A  
HETATM    5  N   UNL     1     -10.653  14.449  66.211  1.00  0.00    -0.286 NA 
HETATM    6  C   UNL     1      -7.460  14.971  67.772  1.00  0.00    -0.175 A  
HETATM    7  C   UNL     1      -9.621  15.212  66.686  1.00  0.00    -0.253 A  
HETATM    8  C   UNL     1      -7.353  16.378  67.769  1.00  0.00    -0.153 A  
HETATM    9  C   UNL     1      -9.479  16.606  66.691  1.00  0.00    -0.271 A  
HETATM   10  C   UNL     1      -8.347  17.227  67.252  1.00  0.00    -0.201 A  
ENDROOT
BRANCH   3  11
HETATM   11  C   UNL     1     -11.151  12.039  65.976  1.00  0.00    -0.364 C  
BRANCH  11  12
HETATM   12  C   UNL     1     -10.594  11.451  64.673  1.00  0.00    -0.380 C  
BRANCH  12  13
HETATM   13  C   UNL     1     -10.813  12.366  63.474  1.00  0.00    -0.487 C  
HETATM   14  O   UNL     1     -13.083  11.717  63.046  1.00  0.00    -0.508 OA 
HETATM   15  O   UNL     1     -12.673  13.900  63.438  1.00  0.00    -0.806 OA 
HETATM   16  C   UNL     1     -12.266  12.753  63.332  1.00  0.00    -0.504 C  
ENDBRANCH  12  13
ENDBRANCH  11  12
ENDBRANCH   3  11
BRANCH  10  17
HETATM   17  N   UNL     1      -8.246  18.615  67.302  1.00  0.00    -0.250 NA 
BRANCH  17  18
HETATM   18  C   UNL     1      -9.194  19.462  68.047  1.00  0.00    -0.327 C  
HETATM   19 CL   UNL     1     -10.907  19.639  65.889  1.00  0.00    -0.503 Cl 
HETATM   20  C   UNL     1      -9.955  20.454  67.161  1.00  0.00    -0.428 C  
ENDBRANCH  17  18
BRANCH  17  21
HETATM   21  C   UNL     1      -7.250  19.313  66.462  1.00  0.00    -0.229 C  
HETATM   22 CL   UNL     1      -5.262  19.193  68.370  1.00  0.00    -0.187 Cl 
HETATM   23  C   UNL     1      -6.267  20.174  67.266  1.00  0.00    -0.186 C  
ENDBRANCH  17  21
ENDBRANCH  10  17
TORSDOF 6
ENDMDL
MODEL       41
REMARK 921   NORMALIZED FREE ENERGY PREDICTED BY IDOCK:   -5.50 KCAL/MOL
REMARK 922        TOTAL FREE ENERGY PREDICTED BY IDOCK:   -8.20 KCAL/MOL
REMARK 923 INTER-LIGAND FREE ENERGY PREDICTED BY IDOCK:   -7.58 KCAL/MOL
REMARK 924 INTRA-LIGAND FREE ENERGY PREDICTED BY IDOCK:   -0.63 KCAL/MOL
REMARK 927      BINDING AFFINITY PREDICTED BY RF-SCORE:    0.00 PKD
ROOT
HETATM    1  C   UNL     1     -11.654  12.417  65.789  1.00  0.00    -0.398 C  
HETATM    2  N   UNL     1     -11.323  13.160  66.984  1.00  0.00    -0.298 NA 
HETATM    3  C   UNL     1     -11.450  12.765  68.300  1.00  0.00    -0.314 A  
HETATM    4  C   UNL     1     -10.818  14.443  66.969  1.00  0.00    -0.297 A  
HETATM    5  N   UNL     1     -11.029  13.717  69.110  1.00  0.00    -0.237 NA 
HETATM    6  C   UNL     1     -10.498  15.349  65.954  1.00  0.00    -0.354 A  
HETATM    7  C   UNL     1     -10.652  14.760  68.307  1.00  0.00    -0.241 A  
HETATM    8  C   UNL     1      -9.989  16.604  66.349  1.00  0.00    -0.316 A  
HETATM    9  C   UNL     1     -10.154  16.019  68.666  1.00  0.00    -0.220 A  
HETATM   10  C   UNL     1      -9.790  16.969  67.692  1.00  0.00    -0.257 A  
ENDROOT
BRANCH   3  11
HETATM   11  C   UNL     1     -12.006  11.467  68.802  1.00  0.00    -0.335 C  
BRANCH  11  12
HETATM   12  C   UNL     1     -12.040  11.476  70.336  1.00  0.00    -0.471 C  
BRANCH  12  13
HETATM   13  C   UNL     1     -12.769  10.271  70.915  1.00  0.00    -0.462 C  
HETATM   14  O   UNL     1     -11.192   8.618  70.182  1.00  0.00    -0.237 OA 
HETATM   15  O   UNL     1     -11.621   8.748  72.392  1.00  0.00    -0.352 OA 
HETATM   16  C   UNL     1     -11.810   9.155  71.255  1.00  0.00    -0.327 C  
ENDBRANCH  12  13
ENDBRANCH  11  12
ENDBRANCH   3  11
BRANCH  10  17
HETATM   17  N   UNL     1      -9.242  18.194  68.061  1.00  0.00    -0.273 NA 
BRANCH  17  18
HETATM   18  C   UNL     1      -7.815  18.371  68.384  1.00  0.00    -0.306 C  
HETATM   19 CL   UNL     1      -7.154  18.792  65.736  1.00  0.00    -0.290 Cl 
HETATM   20  C   UNL     1      -6.874  17.912  67.264  1.00  0.00    -0.177 C  
ENDBRANCH  17  18
BRANCH  17  21
HETATM   21  C   UNL     1     -10.125  19.357  68.297  1.00  0.00    -0.433 C  
HETATM   22 CL   UNL     1     -10.556  19.827  65.614  1.00  0.00    -0.556 Cl 
HETATM   23  C   UNL     1     -10.024  20.432  67.208  1.00  0.00    -0.424 C  
ENDBRANCH  17  21
ENDBRANCH  10  17
TORSDOF 6
ENDMDL
MODEL       42
REMARK 921   NORMALIZED FREE ENERGY PREDICTED BY IDOCK:   -5.49 KCAL/MOL
REMARK 922        TOTAL FREE ENERGY PREDICTED BY IDOCK:   -8.19 KCAL/MOL
REMARK 923 INTER-LIGAND FREE ENERGY PREDICTED BY IDOCK:   -7.29 KCAL/MOL
REMARK 924 INTRA-LIGAND FREE ENERGY PREDICTED BY IDOCK:   -0.90 KCAL/MOL
REMARK 927      BINDING AFFINITY PREDICTED BY RF-SCORE:    0.00 PKD
ROOT
HETATM    1  C   UNL     1     -10.355  19.197  68.282  1.00  0.00    -0.361 C  
HETATM    2  N   UNL     1      -9.826  18.209  67.368  1.00  0.00    -0.302 NA 
HETATM    3  C   UNL     1      -8.832  18.362  66.423  1.00  0.00    -0.248 A  
HETATM    4  C   UNL     1     -10.281  16.909  67.303  1.00  0.00    -0.297 A  
HETATM    5  N   UNL     1      -8.619  17.225  65.789  1.00  0.00    -0.497 NA 
HETATM    6  C   UNL     1     -11.264  16.189  67.988  1.00  0.00    -0.291 A  
HETATM    7  C   UNL     1      -9.513  16.328  66.309  1.00  0.00    -0.316 A  
HETATM    8  C   UNL     1     -11.439  14.837  67.627  1.00  0.00    -0.363 A  
HETATM    9  C   UNL     1      -9.718  14.984  65.968  1.00  0.00    -0.359 A  
HETATM   10  C   UNL     1     -10.676  14.197  66.634  1.00  0.00    -0.289 A  
ENDROOT
BRANCH   3  11
HETATM   11  C   UNL     1      -8.085  19.619  66.097  1.00  0.00    -0.356 C  
BRANCH  11  12
HETATM   12  C   UNL     1      -6.591  19.308  65.939  1.00  0.00    -0.260 C  
BRANCH  12  13
HETATM   13  C   UNL     1      -5.919  18.960  67.261  1.00  0.00    -0.160 C  
HETATM   14  O   UNL     1      -5.864  21.194  68.136  1.00  0.00    -0.327 OA 
HETATM   15  O   UNL     1      -6.930  19.619  69.349  1.00  0.00    -0.348 OA 
HETATM   16  C   UNL     1      -6.302  19.935  68.349  1.00  0.00    -0.273 C  
ENDBRANCH  12  13
ENDBRANCH  11  12
ENDBRANCH   3  11
BRANCH  10  17
HETATM   17  N   UNL     1     -10.830  12.848  66.326  1.00  0.00    -0.272 NA 
BRANCH  17  18
HETATM   18  C   UNL     1     -11.528  11.897  67.210  1.00  0.00    -0.317 C  
HETATM   19 CL   UNL     1      -9.222  11.345  68.623  1.00  0.00    -0.174 Cl 
HETATM   20  C   UNL     1     -10.634  10.754  67.706  1.00  0.00    -0.228 C  
ENDBRANCH  17  18
BRANCH  17  21
HETATM   21  C   UNL     1     -10.147  12.278  65.145  1.00  0.00    -0.261 C  
HETATM   22 CL   UNL     1     -12.232  12.829  63.425  1.00  0.00    -0.623 Cl 
HETATM   23  C   UNL     1     -11.106  11.637  64.134  1.00  0.00    -0.364 C  
ENDBRANCH  17  21
ENDBRANCH  10  17
TORSDOF 6
ENDMDL
MODEL       43
REMARK 921   NORMALIZED FREE ENERGY PREDICTED BY IDOCK:   -5.49 KCAL/MOL
REMARK 922        TOTAL FREE ENERGY PREDICTED BY IDOCK:   -8.19 KCAL/MOL
REMARK 923 INTER-LIGAND FREE ENERGY PREDICTED BY IDOCK:   -7.40 KCAL/MOL
REMARK 924 INTRA-LIGAND FREE ENERGY PREDICTED BY IDOCK:   -0.79 KCAL/MOL
REMARK 927      BINDING AFFINITY PREDICTED BY RF-SCORE:    0.00 PKD
ROOT
HETATM    1  C   UNL     1      -7.248  11.064  67.113  1.00  0.00    -0.112 C  
HETATM    2  N   UNL     1      -8.631  10.877  67.491  1.00  0.00    -0.126 NA 
HETATM    3  C   UNL     1      -9.764  11.303  66.829  1.00  0.00    -0.193 A  
HETATM    4  C   UNL     1      -9.026  10.223  68.639  1.00  0.00    -0.144 A  
HETATM    5  N   UNL     1     -10.848  10.928  67.482  1.00  0.00    -0.252 NA 
HETATM    6  C   UNL     1      -8.341   9.603  69.688  1.00  0.00    -0.173 A  
HETATM    7  C   UNL     1     -10.409  10.278  68.604  1.00  0.00    -0.184 A  
HETATM    8  C   UNL     1      -9.120   9.027  70.713  1.00  0.00    -0.297 A  
HETATM    9  C   UNL     1     -11.153   9.704  69.643  1.00  0.00    -0.223 A  
HETATM   10  C   UNL     1     -10.526   9.045  70.718  1.00  0.00    -0.243 A  
ENDROOT
BRANCH   3  11
HETATM   11  C   UNL     1      -9.823  12.102  65.563  1.00  0.00    -0.240 C  
BRANCH  11  12
HETATM   12  C   UNL     1     -10.524  11.288  64.468  1.00  0.00    -0.396 C  
BRANCH  12  13
HETATM   13  C   UNL     1     -10.874  12.127  63.245  1.00  0.00    -0.381 C  
HETATM   14  O   UNL     1     -13.256  12.029  63.519  1.00  0.00    -0.724 OA 
HETATM   15  O   UNL     1     -12.291  14.067  63.465  1.00  0.00    -0.748 OA 
HETATM   16  C   UNL     1     -12.188  12.849  63.428  1.00  0.00    -0.490 C  
ENDBRANCH  12  13
ENDBRANCH  11  12
ENDBRANCH   3  11
BRANCH  10  17
HETATM   17  N   UNL     1     -11.279   8.428  71.713  1.00  0.00    -0.273 NA 
BRANCH  17  18
HETATM   18  C   UNL     1     -10.675   7.783  72.893  1.00  0.00    -0.385 C  
HETATM   19 CL   UNL     1     -10.166   5.455  71.497  1.00  0.00    -0.269 Cl 
HETATM   20  C   UNL     1     -10.871   6.263  72.925  1.00  0.00    -0.256 C  
ENDBRANCH  17  18
BRANCH  17  21
HETATM   21  C   UNL     1     -12.738   8.262  71.540  1.00  0.00    -0.305 C  
HETATM   22 CL   UNL     1     -13.304  10.908  72.075  1.00  0.00    -0.503 Cl 
HETATM   23  C   UNL     1     -13.570   9.181  72.444  1.00  0.00    -0.483 C  
ENDBRANCH  17  21
ENDBRANCH  10  17
TORSDOF 6
ENDMDL
MODEL       44
REMARK 921   NORMALIZED FREE ENERGY PREDICTED BY IDOCK:   -5.45 KCAL/MOL
REMARK 922        TOTAL FREE ENERGY PREDICTED BY IDOCK:   -8.14 KCAL/MOL
REMARK 923 INTER-LIGAND FREE ENERGY PREDICTED BY IDOCK:   -7.06 KCAL/MOL
REMARK 924 INTRA-LIGAND FREE ENERGY PREDICTED BY IDOCK:   -1.09 KCAL/MOL
REMARK 927      BINDING AFFINITY PREDICTED BY RF-SCORE:    0.00 PKD
ROOT
HETATM    1  C   UNL     1     -10.466  13.245  67.378  1.00  0.00    -0.243 C  
HETATM    2  N   UNL     1     -10.392  11.837  67.056  1.00  0.00    -0.210 NA 
HETATM    3  C   UNL     1     -10.289  11.247  65.813  1.00  0.00    -0.258 A  
HETATM    4  C   UNL     1     -10.432  10.835  68.003  1.00  0.00    -0.194 A  
HETATM    5  N   UNL     1     -10.234   9.934  65.929  1.00  0.00    -0.237 NA 
HETATM    6  C   UNL     1     -10.542  10.820  69.397  1.00  0.00    -0.254 A  
HETATM    7  C   UNL     1     -10.336   9.667  67.268  1.00  0.00    -0.249 A  
HETATM    8  C   UNL     1     -10.547   9.558  70.027  1.00  0.00    -0.280 A  
HETATM    9  C   UNL     1     -10.353   8.429  67.925  1.00  0.00    -0.279 A  
HETATM   10  C   UNL     1     -10.439   8.344  69.327  1.00  0.00    -0.215 A  
ENDROOT
BRANCH   3  11
HETATM   11  C   UNL     1     -10.266  11.940  64.485  1.00  0.00    -0.320 C  
BRANCH  11  12
HETATM   12  C   UNL     1     -11.650  11.850  63.829  1.00  0.00    -0.555 C  
BRANCH  12  13
HETATM   13  C   UNL     1     -12.137  13.191  63.295  1.00  0.00    -0.460 C  
HETATM   14  O   UNL     1     -13.219  13.913  65.311  1.00  0.00    -0.774 OA 
HETATM   15  O   UNL     1     -11.600  15.233  64.461  1.00  0.00    -0.395 OA 
HETATM   16  C   UNL     1     -12.269  14.212  64.400  1.00  0.00    -0.439 C  
ENDBRANCH  12  13
ENDBRANCH  11  12
ENDBRANCH   3  11
BRANCH  10  17
HETATM   17  N   UNL     1     -10.397   7.110  69.971  1.00  0.00    -0.203 NA 
BRANCH  17  18
HETATM   18  C   UNL     1      -9.190   6.265  70.008  1.00  0.00    -0.152 C  
HETATM   19 CL   UNL     1      -8.082   7.742  72.061  1.00  0.00    -0.114 Cl 
HETATM   20  C   UNL     1      -7.927   7.022  70.435  1.00  0.00    -0.113 C  
ENDBRANCH  17  18
BRANCH  17  21
HETATM   21  C   UNL     1     -11.636   6.522  70.522  1.00  0.00    -0.393 C  
HETATM   22 CL   UNL     1     -11.330   7.697  72.998  1.00  0.00    -0.399 Cl 
HETATM   23  C   UNL     1     -11.554   6.217  72.024  1.00  0.00    -0.322 C  
ENDBRANCH  17  21
ENDBRANCH  10  17
TORSDOF 6
ENDMDL
MODEL       45
REMARK 921   NORMALIZED FREE ENERGY PREDICTED BY IDOCK:   -5.44 KCAL/MOL
REMARK 922        TOTAL FREE ENERGY PREDICTED BY IDOCK:   -8.13 KCAL/MOL
REMARK 923 INTER-LIGAND FREE ENERGY PREDICTED BY IDOCK:   -7.17 KCAL/MOL
REMARK 924 INTRA-LIGAND FREE ENERGY PREDICTED BY IDOCK:   -0.97 KCAL/MOL
REMARK 927      BINDING AFFINITY PREDICTED BY RF-SCORE:    0.00 PKD
ROOT
HETATM    1  C   UNL     1     -12.232  14.586  68.635  1.00  0.00    -0.123 C  
HETATM    2  N   UNL     1     -11.894  13.324  68.015  1.00  0.00    -0.357 NA 
HETATM    3  C   UNL     1     -11.760  13.040  66.671  1.00  0.00    -0.381 A  
HETATM    4  C   UNL     1     -11.660  12.164  68.723  1.00  0.00    -0.327 A  
HETATM    5  N   UNL     1     -11.429  11.774  66.498  1.00  0.00    -0.456 NA 
HETATM    6  C   UNL     1     -11.667  11.838  70.082  1.00  0.00    -0.354 A  
HETATM    7  C   UNL     1     -11.380  11.221  67.750  1.00  0.00    -0.285 A  
HETATM    8  C   UNL     1     -11.369  10.503  70.425  1.00  0.00    -0.411 A  
HETATM    9  C   UNL     1     -11.097   9.900  68.123  1.00  0.00    -0.215 A  
HETATM   10  C   UNL     1     -11.065   9.511  69.476  1.00  0.00    -0.142 A  
ENDROOT
BRANCH   3  11
HETATM   11  C   UNL     1     -11.974  13.980  65.525  1.00  0.00    -0.393 C  
BRANCH  11  12
HETATM   12  C   UNL     1     -10.634  14.600  65.106  1.00  0.00    -0.441 C  
BRANCH  12  13
HETATM   13  C   UNL     1     -10.512  16.065  65.507  1.00  0.00    -0.426 C  
HETATM   14  O   UNL     1      -9.064  15.714  67.388  1.00  0.00    -0.189 OA 
HETATM   15  O   UNL     1      -8.340  17.084  65.749  1.00  0.00    -0.500 OA 
HETATM   16  C   UNL     1      -9.199  16.341  66.200  1.00  0.00    -0.341 C  
ENDBRANCH  12  13
ENDBRANCH  11  12
ENDBRANCH   3  11
BRANCH  10  17
HETATM   17  N   UNL     1     -10.725   8.210  69.836  1.00  0.00    -0.246 NA 
BRANCH  17  18
HETATM   18  C   UNL     1     -11.339   7.506  70.976  1.00  0.00    -0.273 C  
HETATM   19 CL   UNL     1      -9.424   8.442  72.730  1.00  0.00    -0.338 Cl 
HETATM   20  C   UNL     1     -10.327   7.066  72.039  1.00  0.00    -0.198 C  
ENDBRANCH  17  18
BRANCH  17  21
HETATM   21  C   UNL     1      -9.598   7.528  69.163  1.00  0.00    -0.157 C  
HETATM   22 CL   UNL     1     -11.159   6.525  67.124  1.00  0.00    -0.472 Cl 
HETATM   23  C   UNL     1     -10.003   6.231  68.453  1.00  0.00    -0.140 C  
ENDBRANCH  17  21
ENDBRANCH  10  17
TORSDOF 6
ENDMDL
MODEL       46
REMARK 921   NORMALIZED FREE ENERGY PREDICTED BY IDOCK:   -5.42 KCAL/MOL
REMARK 922        TOTAL FREE ENERGY PREDICTED BY IDOCK:   -8.10 KCAL/MOL
REMARK 923 INTER-LIGAND FREE ENERGY PREDICTED BY IDOCK:   -7.29 KCAL/MOL
REMARK 924 INTRA-LIGAND FREE ENERGY PREDICTED BY IDOCK:   -0.81 KCAL/MOL
REMARK 927      BINDING AFFINITY PREDICTED BY RF-SCORE:    0.00 PKD
ROOT
HETATM    1  C   UNL     1     -13.826  14.098  71.897  1.00  0.00    -0.451 C  
HETATM    2  N   UNL     1     -12.897  13.440  71.006  1.00  0.00    -0.288 NA 
HETATM    3  C   UNL     1     -12.163  13.990  69.976  1.00  0.00    -0.352 A  
HETATM    4  C   UNL     1     -12.615  12.091  71.059  1.00  0.00    -0.273 A  
HETATM    5  N   UNL     1     -11.415  13.069  69.398  1.00  0.00    -0.275 NA 
HETATM    6  C   UNL     1     -13.056  11.037  71.865  1.00  0.00    -0.525 A  
HETATM    7  C   UNL     1     -11.695  11.895  70.044  1.00  0.00    -0.286 A  
HETATM    8  C   UNL     1     -12.519   9.760  71.604  1.00  0.00    -0.500 A  
HETATM    9  C   UNL     1     -11.187  10.611  69.805  1.00  0.00    -0.363 A  
HETATM   10  C   UNL     1     -11.573   9.510  70.594  1.00  0.00    -0.283 A  
ENDROOT
BRANCH   3  11
HETATM   11  C   UNL     1     -12.187  15.415  69.513  1.00  0.00    -0.277 C  
BRANCH  11  12
HETATM   12  C   UNL     1     -10.946  16.151  70.035  1.00  0.00    -0.364 C  
BRANCH  12  13
HETATM   13  C   UNL     1      -9.857  16.290  68.979  1.00  0.00    -0.257 C  
HETATM   14  O   UNL     1     -10.840  18.142  67.812  1.00  0.00    -0.385 OA 
HETATM   15  O   UNL     1      -8.757  18.409  68.635  1.00  0.00    -0.318 OA 
HETATM   16  C   UNL     1      -9.748  17.711  68.479  1.00  0.00    -0.328 C  
ENDBRANCH  12  13
ENDBRANCH  11  12
ENDBRANCH   3  11
BRANCH  10  17
HETATM   17  N   UNL     1     -11.017   8.252  70.384  1.00  0.00    -0.241 NA 
BRANCH  17  18
HETATM   18  C   UNL     1      -9.677   8.053  69.804  1.00  0.00    -0.176 C  
HETATM   19 CL   UNL     1     -10.658   8.130  67.224  1.00  0.00    -0.374 Cl 
HETATM   20  C   UNL     1      -9.693   7.294  68.472  1.00  0.00    -0.149 C  
ENDBRANCH  17  18
BRANCH  17  21
HETATM   21  C   UNL     1     -11.835   7.038  70.597  1.00  0.00    -0.330 C  
HETATM   22 CL   UNL     1     -11.040   6.721  73.219  1.00  0.00    -0.230 Cl 
HETATM   23  C   UNL     1     -11.205   6.040  71.576  1.00  0.00    -0.264 C  
ENDBRANCH  17  21
ENDBRANCH  10  17
TORSDOF 6
ENDMDL
MODEL       47
REMARK 921   NORMALIZED FREE ENERGY PREDICTED BY IDOCK:   -5.42 KCAL/MOL
REMARK 922        TOTAL FREE ENERGY PREDICTED BY IDOCK:   -8.10 KCAL/MOL
REMARK 923 INTER-LIGAND FREE ENERGY PREDICTED BY IDOCK:   -7.92 KCAL/MOL
REMARK 924 INTRA-LIGAND FREE ENERGY PREDICTED BY IDOCK:   -0.18 KCAL/MOL
REMARK 927      BINDING AFFINITY PREDICTED BY RF-SCORE:    0.00 PKD
ROOT
HETATM    1  C   UNL     1     -12.076  10.038  71.374  1.00  0.00    -0.407 C  
HETATM    2  N   UNL     1     -12.167  11.273  70.627  1.00  0.00    -0.374 NA 
HETATM    3  C   UNL     1     -12.781  12.452  70.995  1.00  0.00    -0.223 A  
HETATM    4  C   UNL     1     -11.633  11.444  69.367  1.00  0.00    -0.323 A  
HETATM    5  N   UNL     1     -12.639  13.361  70.049  1.00  0.00    -0.112 NA 
HETATM    6  C   UNL     1     -10.925  10.615  68.492  1.00  0.00    -0.296 A  
HETATM    7  C   UNL     1     -11.949  12.750  69.037  1.00  0.00    -0.242 A  
HETATM    8  C   UNL     1     -10.537  11.169  67.254  1.00  0.00    -0.279 A  
HETATM    9  C   UNL     1     -11.558  13.267  67.794  1.00  0.00    -0.380 A  
HETATM   10  C   UNL     1     -10.822  12.493  66.876  1.00  0.00    -0.248 A  
ENDROOT
BRANCH   3  11
HETATM   11  C   UNL     1     -13.540  12.717  72.259  1.00  0.00    -0.563 C  
BRANCH  11  12
HETATM   12  C   UNL     1     -13.706  14.230  72.457  1.00  0.00    -0.608 C  
BRANCH  12  13
HETATM   13  C   UNL     1     -12.745  14.795  73.495  1.00  0.00    -0.566 C  
HETATM   14  O   UNL     1     -11.072  15.538  71.943  1.00  0.00    -0.336 OA 
HETATM   15  O   UNL     1     -11.974  17.075  73.326  1.00  0.00    -0.245 OA 
HETATM   16  C   UNL     1     -11.915  15.921  72.925  1.00  0.00    -0.504 C  
ENDBRANCH  12  13
ENDBRANCH  11  12
ENDBRANCH   3  11
BRANCH  10  17
HETATM   17  N   UNL     1     -10.390  13.037  65.670  1.00  0.00    -0.281 NA 
BRANCH  17  18
HETATM   18  C   UNL     1     -10.050  12.215  64.495  1.00  0.00    -0.259 C  
HETATM   19 CL   UNL     1     -12.493  12.705  63.306  1.00  0.00    -0.496 Cl 
HETATM   20  C   UNL     1     -11.264  11.533  63.855  1.00  0.00    -0.355 C  
ENDBRANCH  17  18
BRANCH  17  21
HETATM   21  C   UNL     1     -10.102  14.484  65.575  1.00  0.00    -0.366 C  
HETATM   22 CL   UNL     1      -7.925  14.366  67.264  1.00  0.00    -0.217 Cl 
HETATM   23  C   UNL     1      -9.513  15.077  66.861  1.00  0.00    -0.238 C  
ENDBRANCH  17  21
ENDBRANCH  10  17
TORSDOF 6
ENDMDL
MODEL       48
REMARK 921   NORMALIZED FREE ENERGY PREDICTED BY IDOCK:   -5.42 KCAL/MOL
REMARK 922        TOTAL FREE ENERGY PREDICTED BY IDOCK:   -8.09 KCAL/MOL
REMARK 923 INTER-LIGAND FREE ENERGY PREDICTED BY IDOCK:   -7.18 KCAL/MOL
REMARK 924 INTRA-LIGAND FREE ENERGY PREDICTED BY IDOCK:   -0.91 KCAL/MOL
REMARK 927      BINDING AFFINITY PREDICTED BY RF-SCORE:    0.00 PKD
ROOT
HETATM    1  C   UNL     1     -11.235  13.232  67.764  1.00  0.00    -0.280 C  
HETATM    2  N   UNL     1     -10.895  11.869  67.421  1.00  0.00    -0.231 NA 
HETATM    3  C   UNL     1     -10.512  11.365  66.195  1.00  0.00    -0.255 A  
HETATM    4  C   UNL     1     -10.923  10.826  68.322  1.00  0.00    -0.255 A  
HETATM    5  N   UNL     1     -10.272  10.071  66.282  1.00  0.00    -0.235 NA 
HETATM    6  C   UNL     1     -11.243  10.723  69.679  1.00  0.00    -0.355 A  
HETATM    7  C   UNL     1     -10.536   9.724  67.580  1.00  0.00    -0.251 A  
HETATM    8  C   UNL     1     -11.148   9.444  70.267  1.00  0.00    -0.299 A  
HETATM    9  C   UNL     1     -10.461   8.465  68.192  1.00  0.00    -0.228 A  
HETATM   10  C   UNL     1     -10.747   8.297  69.561  1.00  0.00    -0.174 A  
ENDROOT
BRANCH   3  11
HETATM   11  C   UNL     1     -10.394  12.121  64.907  1.00  0.00    -0.321 C  
BRANCH  11  12
HETATM   12  C   UNL     1     -11.638  11.874  64.044  1.00  0.00    -0.476 C  
BRANCH  12  13
HETATM   13  C   UNL     1     -12.137  13.137  63.354  1.00  0.00    -0.558 C  
HETATM   14  O   UNL     1     -13.379  13.997  65.219  1.00  0.00    -0.741 OA 
HETATM   15  O   UNL     1     -11.756  15.300  64.352  1.00  0.00    -0.393 OA 
HETATM   16  C   UNL     1     -12.381  14.250  64.346  1.00  0.00    -0.391 C  
ENDBRANCH  12  13
ENDBRANCH  11  12
ENDBRANCH   3  11
BRANCH  10  17
HETATM   17  N   UNL     1     -10.613   7.052  70.169  1.00  0.00    -0.221 NA 
BRANCH  17  18
HETATM   18  C   UNL     1     -11.698   6.410  70.932  1.00  0.00    -0.303 C  
HETATM   19 CL   UNL     1     -10.910   7.618  73.286  1.00  0.00    -0.440 Cl 
HETATM   20  C   UNL     1     -11.335   6.131  72.395  1.00  0.00    -0.296 C  
ENDBRANCH  17  18
BRANCH  17  21
HETATM   21  C   UNL     1      -9.293   6.385  70.201  1.00  0.00    -0.157 C  
HETATM   22 CL   UNL     1      -9.732   4.966  67.878  1.00  0.00    -0.191 Cl 
HETATM   23  C   UNL     1      -9.310   4.968  69.613  1.00  0.00    -0.127 C  
ENDBRANCH  17  21
ENDBRANCH  10  17
TORSDOF 6
ENDMDL
MODEL       49
REMARK 921   NORMALIZED FREE ENERGY PREDICTED BY IDOCK:   -5.39 KCAL/MOL
REMARK 922        TOTAL FREE ENERGY PREDICTED BY IDOCK:   -8.06 KCAL/MOL
REMARK 923 INTER-LIGAND FREE ENERGY PREDICTED BY IDOCK:   -7.34 KCAL/MOL
REMARK 924 INTRA-LIGAND FREE ENERGY PREDICTED BY IDOCK:   -0.73 KCAL/MOL
REMARK 927      BINDING AFFINITY PREDICTED BY RF-SCORE:    0.00 PKD
ROOT
HETATM    1  C   UNL     1      -7.344  11.600  67.436  1.00  0.00    -0.128 C  
HETATM    2  N   UNL     1      -8.710  11.241  67.747  1.00  0.00    -0.131 NA 
HETATM    3  C   UNL     1      -9.860  11.571  67.060  1.00  0.00    -0.192 A  
HETATM    4  C   UNL     1      -9.070  10.488  68.845  1.00  0.00    -0.177 A  
HETATM    5  N   UNL     1     -10.917  11.045  67.649  1.00  0.00    -0.255 NA 
HETATM    6  C   UNL     1      -8.357   9.894  69.891  1.00  0.00    -0.200 A  
HETATM    7  C   UNL     1     -10.447  10.390  68.755  1.00  0.00    -0.199 A  
HETATM    8  C   UNL     1      -9.102   9.183  70.854  1.00  0.00    -0.316 A  
HETATM    9  C   UNL     1     -11.159   9.684  69.734  1.00  0.00    -0.247 A  
HETATM   10  C   UNL     1     -10.500   9.044  70.801  1.00  0.00    -0.243 A  
ENDROOT
BRANCH   3  11
HETATM   11  C   UNL     1      -9.963  12.424  65.832  1.00  0.00    -0.271 C  
BRANCH  11  12
HETATM   12  C   UNL     1     -10.429  11.570  64.645  1.00  0.00    -0.356 C  
BRANCH  12  13
HETATM   13  C   UNL     1     -10.978  12.409  63.498  1.00  0.00    -0.506 C  
HETATM   14  O   UNL     1     -13.296  12.176  64.072  1.00  0.00    -0.706 OA 
HETATM   15  O   UNL     1     -12.453  14.264  63.943  1.00  0.00    -0.773 OA 
HETATM   16  C   UNL     1     -12.293  13.055  63.864  1.00  0.00    -0.375 C  
ENDBRANCH  12  13
ENDBRANCH  11  12
ENDBRANCH   3  11
BRANCH  10  17
HETATM   17  N   UNL     1     -11.214   8.297  71.735  1.00  0.00    -0.266 NA 
BRANCH  17  18
HETATM   18  C   UNL     1     -12.648   7.990  71.590  1.00  0.00    -0.322 C  
HETATM   19 CL   UNL     1     -13.372  10.611  72.067  1.00  0.00    -0.505 Cl 
HETATM   20  C   UNL     1     -13.553   8.878  72.451  1.00  0.00    -0.447 C  
ENDBRANCH  17  18
BRANCH  17  21
HETATM   21  C   UNL     1     -10.577   7.906  73.011  1.00  0.00    -0.339 C  
HETATM   22 CL   UNL     1      -9.318   5.699  71.937  1.00  0.00    -0.157 Cl 
HETATM   23  C   UNL     1     -10.409   6.390  73.172  1.00  0.00    -0.226 C  
ENDBRANCH  17  21
ENDBRANCH  10  17
TORSDOF 6
ENDMDL
MODEL       50
REMARK 921   NORMALIZED FREE ENERGY PREDICTED BY IDOCK:   -5.37 KCAL/MOL
REMARK 922        TOTAL FREE ENERGY PREDICTED BY IDOCK:   -8.03 KCAL/MOL
REMARK 923 INTER-LIGAND FREE ENERGY PREDICTED BY IDOCK:   -7.06 KCAL/MOL
REMARK 924 INTRA-LIGAND FREE ENERGY PREDICTED BY IDOCK:   -0.97 KCAL/MOL
REMARK 927      BINDING AFFINITY PREDICTED BY RF-SCORE:    0.00 PKD
ROOT
HETATM    1  C   UNL     1      -8.548   9.255  70.224  1.00  0.00    -0.210 C  
HETATM    2  N   UNL     1      -9.847   9.834  69.965  1.00  0.00    -0.241 NA 
HETATM    3  C   UNL     1     -10.996   9.733  70.723  1.00  0.00    -0.336 A  
HETATM    4  C   UNL     1     -10.134  10.600  68.854  1.00  0.00    -0.202 A  
HETATM    5  N   UNL     1     -11.979  10.413  70.164  1.00  0.00    -0.280 NA 
HETATM    6  C   UNL     1      -9.391  11.024  67.749  1.00  0.00    -0.162 A  
HETATM    7  C   UNL     1     -11.468  10.938  69.008  1.00  0.00    -0.302 A  
HETATM    8  C   UNL     1     -10.057  11.820  66.794  1.00  0.00    -0.235 A  
HETATM    9  C   UNL     1     -12.102  11.723  68.036  1.00  0.00    -0.003 A  
HETATM   10  C   UNL     1     -11.405  12.201  66.910  1.00  0.00    -0.343 A  
ENDROOT
BRANCH   3  11
HETATM   11  C   UNL     1     -11.174   8.954  71.990  1.00  0.00    -0.422 C  
BRANCH  11  12
HETATM   12  C   UNL     1     -12.400   8.040  71.871  1.00  0.00    -0.360 C  
BRANCH  12  13
HETATM   13  C   UNL     1     -12.028   6.566  71.776  1.00  0.00    -0.394 C  
HETATM   14  O   UNL     1     -11.601   6.541  69.415  1.00  0.00    -0.339 OA 
HETATM   15  O   UNL     1      -9.931   5.901  70.789  1.00  0.00    -0.178 OA 
HETATM   16  C   UNL     1     -11.073   6.308  70.635  1.00  0.00    -0.327 C  
ENDBRANCH  12  13
ENDBRANCH  11  12
ENDBRANCH   3  11
BRANCH  10  17
HETATM   17  N   UNL     1     -12.032  13.028  65.981  1.00  0.00    -0.421 NA 
BRANCH  17  18
HETATM   18  C   UNL     1     -12.276  14.462  66.219  1.00  0.00    -0.345 C  
HETATM   19 CL   UNL     1      -9.687  15.132  65.530  1.00  0.00    -0.352 Cl 
HETATM   20  C   UNL     1     -11.034  15.222  66.698  1.00  0.00    -0.297 C  
ENDBRANCH  17  18
BRANCH  17  21
HETATM   21  C   UNL     1     -12.626  12.447  64.758  1.00  0.00    -0.335 C  
HETATM   22 CL   UNL     1     -10.221  12.311  63.415  1.00  0.00    -0.419 Cl 
HETATM   23  C   UNL     1     -11.914  12.877  63.469  1.00  0.00    -0.556 C  
ENDBRANCH  17  21
ENDBRANCH  10  17
TORSDOF 6
ENDMDL
MODEL       51
REMARK 921   NORMALIZED FREE ENERGY PREDICTED BY IDOCK:   -5.32 KCAL/MOL
REMARK 922        TOTAL FREE ENERGY PREDICTED BY IDOCK:   -7.96 KCAL/MOL
REMARK 923 INTER-LIGAND FREE ENERGY PREDICTED BY IDOCK:   -7.10 KCAL/MOL
REMARK 924 INTRA-LIGAND FREE ENERGY PREDICTED BY IDOCK:   -0.86 KCAL/MOL
REMARK 927      BINDING AFFINITY PREDICTED BY RF-SCORE:    0.00 PKD
ROOT
HETATM    1  C   UNL     1     -12.512  14.503  70.497  1.00  0.00    -0.344 C  
HETATM    2  N   UNL     1     -11.530  14.381  69.443  1.00  0.00    -0.273 NA 
HETATM    3  C   UNL     1     -10.702  15.358  68.928  1.00  0.00    -0.244 A  
HETATM    4  C   UNL     1     -11.284  13.209  68.760  1.00  0.00    -0.281 A  
HETATM    5  N   UNL     1      -9.932  14.857  67.980  1.00  0.00    -0.218 NA 
HETATM    6  C   UNL     1     -11.813  11.917  68.828  1.00  0.00    -0.371 A  
HETATM    7  C   UNL     1     -10.290  13.542  67.857  1.00  0.00    -0.249 A  
HETATM    8  C   UNL     1     -11.286  10.959  67.937  1.00  0.00    -0.380 A  
HETATM    9  C   UNL     1      -9.795  12.569  66.979  1.00  0.00    -0.217 A  
HETATM   10  C   UNL     1     -10.268  11.243  67.010  1.00  0.00    -0.215 A  
ENDROOT
BRANCH   3  11
HETATM   11  C   UNL     1     -10.656  16.802  69.325  1.00  0.00    -0.336 C  
BRANCH  11  12
HETATM   12  C   UNL     1      -9.823  17.593  68.308  1.00  0.00    -0.324 C  
BRANCH  12  13
HETATM   13  C   UNL     1     -10.646  18.629  67.552  1.00  0.00    -0.472 C  
HETATM   14  O   UNL     1      -8.957  19.204  65.948  1.00  0.00    -0.441 OA 
HETATM   15  O   UNL     1     -10.933  18.449  65.164  1.00  0.00    -0.604 OA 
HETATM   16  C   UNL     1     -10.212  18.735  66.110  1.00  0.00    -0.421 C  
ENDBRANCH  12  13
ENDBRANCH  11  12
ENDBRANCH   3  11
BRANCH  10  17
HETATM   17  N   UNL     1      -9.726  10.272  66.172  1.00  0.00    -0.199 NA 
BRANCH  17  18
HETATM   18  C   UNL     1      -9.904   8.827  66.398  1.00  0.00    -0.282 C  
HETATM   19 CL   UNL     1      -8.205   8.844  68.574  1.00  0.00    -0.115 Cl 
HETATM   20  C   UNL     1      -8.669   8.145  66.998  1.00  0.00    -0.131 C  
ENDBRANCH  17  18
BRANCH  17  21
HETATM   21  C   UNL     1      -8.802  10.666  65.086  1.00  0.00    -0.193 C  
HETATM   22 CL   UNL     1     -10.801  11.689  63.485  1.00  0.00    -0.483 Cl 
HETATM   23  C   UNL     1      -9.425  10.569  63.688  1.00  0.00    -0.304 C  
ENDBRANCH  17  21
ENDBRANCH  10  17
TORSDOF 6
ENDMDL
MODEL       52
REMARK 921   NORMALIZED FREE ENERGY PREDICTED BY IDOCK:   -5.31 KCAL/MOL
REMARK 922        TOTAL FREE ENERGY PREDICTED BY IDOCK:   -7.95 KCAL/MOL
REMARK 923 INTER-LIGAND FREE ENERGY PREDICTED BY IDOCK:   -7.11 KCAL/MOL
REMARK 924 INTRA-LIGAND FREE ENERGY PREDICTED BY IDOCK:   -0.84 KCAL/MOL
REMARK 927      BINDING AFFINITY PREDICTED BY RF-SCORE:    0.00 PKD
ROOT
HETATM    1  C   UNL     1      -8.916  13.637  67.671  1.00  0.00    -0.202 C  
HETATM    2  N   UNL     1      -9.954  12.663  67.929  1.00  0.00    -0.221 NA 
HETATM    3  C   UNL     1     -11.309  12.774  67.695  1.00  0.00    -0.310 A  
HETATM    4  C   UNL     1      -9.716  11.426  68.490  1.00  0.00    -0.197 A  
HETATM    5  N   UNL     1     -11.931  11.667  68.052  1.00  0.00    -0.609 NA 
HETATM    6  C   UNL     1      -8.569  10.769  68.943  1.00  0.00    -0.155 A  
HETATM    7  C   UNL     1     -10.967  10.836  68.556  1.00  0.00    -0.243 A  
HETATM    8  C   UNL     1      -8.736   9.471  69.468  1.00  0.00    -0.178 A  
HETATM    9  C   UNL     1     -11.099   9.548  69.092  1.00  0.00    -0.082 A  
HETATM   10  C   UNL     1      -9.981   8.823  69.545  1.00  0.00    -0.195 A  
ENDROOT
BRANCH   3  11
HETATM   11  C   UNL     1     -12.034  13.964  67.145  1.00  0.00    -0.455 C  
BRANCH  11  12
HETATM   12  C   UNL     1     -12.221  13.802  65.631  1.00  0.00    -0.484 C  
BRANCH  12  13
HETATM   13  C   UNL     1     -11.058  14.376  64.830  1.00  0.00    -0.404 C  
HETATM   14  O   UNL     1     -12.329  16.034  63.650  1.00  0.00    -0.705 OA 
HETATM   15  O   UNL     1     -10.585  16.740  64.894  1.00  0.00    -0.702 OA 
HETATM   16  C   UNL     1     -11.288  15.828  64.483  1.00  0.00    -0.316 C  
ENDBRANCH  12  13
ENDBRANCH  11  12
ENDBRANCH   3  11
BRANCH  10  17
HETATM   17  N   UNL     1     -10.120   7.522  70.022  1.00  0.00    -0.196 NA 
BRANCH  17  18
HETATM   18  C   UNL     1      -9.045   6.517  69.935  1.00  0.00    -0.143 C  
HETATM   19 CL   UNL     1      -9.603   5.985  67.284  1.00  0.00    -0.117 Cl 
HETATM   20  C   UNL     1      -9.345   5.386  68.945  1.00  0.00    -0.127 C  
ENDBRANCH  17  18
BRANCH  17  21
HETATM   21  C   UNL     1     -11.435   7.049  70.504  1.00  0.00    -0.319 C  
HETATM   22 CL   UNL     1     -10.889   7.603  73.149  1.00  0.00    -0.453 Cl 
HETATM   23  C   UNL     1     -11.385   6.423  71.904  1.00  0.00    -0.293 C  
ENDBRANCH  17  21
ENDBRANCH  10  17
TORSDOF 6
ENDMDL
MODEL       53
REMARK 921   NORMALIZED FREE ENERGY PREDICTED BY IDOCK:   -5.30 KCAL/MOL
REMARK 922        TOTAL FREE ENERGY PREDICTED BY IDOCK:   -7.93 KCAL/MOL
REMARK 923 INTER-LIGAND FREE ENERGY PREDICTED BY IDOCK:   -7.04 KCAL/MOL
REMARK 924 INTRA-LIGAND FREE ENERGY PREDICTED BY IDOCK:   -0.89 KCAL/MOL
REMARK 927      BINDING AFFINITY PREDICTED BY RF-SCORE:    0.00 PKD
ROOT
HETATM    1  C   UNL     1     -12.694  10.865  71.934  1.00  0.00    -0.234 C  
HETATM    2  N   UNL     1     -12.074  10.691  70.639  1.00  0.00    -0.332 NA 
HETATM    3  C   UNL     1     -11.472   9.562  70.123  1.00  0.00    -0.162 A  
HETATM    4  C   UNL     1     -11.984  11.693  69.696  1.00  0.00    -0.324 A  
HETATM    5  N   UNL     1     -11.033   9.791  68.900  1.00  0.00    -0.188 NA 
HETATM    6  C   UNL     1     -12.391  13.029  69.656  1.00  0.00    -0.104 A  
HETATM    7  C   UNL     1     -11.327  11.100  68.631  1.00  0.00    -0.277 A  
HETATM    8  C   UNL     1     -12.111  13.752  68.478  1.00  0.00    -0.327 A  
HETATM    9  C   UNL     1     -11.055  11.850  67.479  1.00  0.00    -0.332 A  
HETATM   10  C   UNL     1     -11.459  13.194  67.365  1.00  0.00    -0.332 A  
ENDROOT
BRANCH   3  11
HETATM   11  C   UNL     1     -11.286   8.244  70.812  1.00  0.00    -0.284 C  
BRANCH  11  12
HETATM   12  C   UNL     1     -10.359   7.350  69.980  1.00  0.00    -0.224 C  
BRANCH  12  13
HETATM   13  C   UNL     1     -11.093   6.181  69.335  1.00  0.00    -0.479 C  
HETATM   14  O   UNL     1     -10.931   6.970  67.074  1.00  0.00    -0.375 OA 
HETATM   15  O   UNL     1     -10.066   4.940  67.540  1.00  0.00    -0.171 OA 
HETATM   16  C   UNL     1     -10.634   5.956  67.914  1.00  0.00    -0.251 C  
ENDBRANCH  12  13
ENDBRANCH  11  12
ENDBRANCH   3  11
BRANCH  10  17
HETATM   17  N   UNL     1     -11.234  13.909  66.192  1.00  0.00    -0.299 NA 
BRANCH  17  18
HETATM   18  C   UNL     1      -9.970  14.613  65.911  1.00  0.00    -0.328 C  
HETATM   19 CL   UNL     1     -10.722  16.801  67.418  1.00  0.00    -0.288 Cl 
HETATM   20  C   UNL     1     -10.114  16.138  65.876  1.00  0.00    -0.354 C  
ENDBRANCH  17  18
BRANCH  17  21
HETATM   21  C   UNL     1     -12.340  14.121  65.234  1.00  0.00    -0.460 C  
HETATM   22 CL   UNL     1     -11.753  11.870  63.753  1.00  0.00    -0.539 Cl 
HETATM   23  C   UNL     1     -12.020  13.635  63.814  1.00  0.00    -0.377 C  
ENDBRANCH  17  21
ENDBRANCH  10  17
TORSDOF 6
ENDMDL
MODEL       54
REMARK 921   NORMALIZED FREE ENERGY PREDICTED BY IDOCK:   -5.24 KCAL/MOL
REMARK 922        TOTAL FREE ENERGY PREDICTED BY IDOCK:   -7.85 KCAL/MOL
REMARK 923 INTER-LIGAND FREE ENERGY PREDICTED BY IDOCK:   -7.04 KCAL/MOL
REMARK 924 INTRA-LIGAND FREE ENERGY PREDICTED BY IDOCK:   -0.82 KCAL/MOL
REMARK 927      BINDING AFFINITY PREDICTED BY RF-SCORE:    0.00 PKD
ROOT
HETATM    1  C   UNL     1     -13.536  14.365  71.279  1.00  0.00    -0.335 C  
HETATM    2  N   UNL     1     -12.533  13.720  70.461  1.00  0.00    -0.347 NA 
HETATM    3  C   UNL     1     -11.746  14.277  69.474  1.00  0.00    -0.316 A  
HETATM    4  C   UNL     1     -12.220  12.380  70.551  1.00  0.00    -0.295 A  
HETATM    5  N   UNL     1     -10.938  13.369  68.960  1.00  0.00    -0.249 NA 
HETATM    6  C   UNL     1     -12.687  11.325  71.341  1.00  0.00    -0.501 A  
HETATM    7  C   UNL     1     -11.230  12.195  69.602  1.00  0.00    -0.067 A  
HETATM    8  C   UNL     1     -12.101  10.059  71.135  1.00  0.00    -0.475 A  
HETATM    9  C   UNL     1     -10.675  10.922  69.415  1.00  0.00    -0.265 A  
HETATM   10  C   UNL     1     -11.084   9.822  70.193  1.00  0.00    -0.285 A  
ENDROOT
BRANCH   3  11
HETATM   11  C   UNL     1     -11.776  15.694  68.990  1.00  0.00    -0.408 C  
BRANCH  11  12
HETATM   12  C   UNL     1     -10.691  15.902  67.926  1.00  0.00    -0.312 C  
BRANCH  12  13
HETATM   13  C   UNL     1     -10.832  17.231  67.193  1.00  0.00    -0.085 C  
HETATM   14  O   UNL     1      -9.039  16.879  65.638  1.00  0.00    -0.499 OA 
HETATM   15  O   UNL     1     -11.093  17.277  64.796  1.00  0.00    -0.954 OA 
HETATM   16  C   UNL     1     -10.360  17.126  65.762  1.00  0.00    -0.240 C  
ENDBRANCH  12  13
ENDBRANCH  11  12
ENDBRANCH   3  11
BRANCH  10  17
HETATM   17  N   UNL     1     -10.483   8.576  70.037  1.00  0.00    -0.219 NA 
BRANCH  17  18
HETATM   18  C   UNL     1      -9.095   8.298  70.444  1.00  0.00    -0.147 C  
HETATM   19 CL   UNL     1      -9.826   7.913  73.079  1.00  0.00    -0.337 Cl 
HETATM   20  C   UNL     1      -8.781   8.727  71.882  1.00  0.00    -0.129 C  
ENDBRANCH  17  18
BRANCH  17  21
HETATM   21  C   UNL     1     -11.186   7.505  69.299  1.00  0.00     0.163 C  
HETATM   22 CL   UNL     1     -12.660   6.692  71.483  1.00  0.00    -0.352 Cl 
HETATM   23  C   UNL     1     -11.526   6.285  70.165  1.00  0.00    -0.382 C  
ENDBRANCH  17  21
ENDBRANCH  10  17
TORSDOF 6
ENDMDL
MODEL       55
REMARK 921   NORMALIZED FREE ENERGY PREDICTED BY IDOCK:   -5.23 KCAL/MOL
REMARK 922        TOTAL FREE ENERGY PREDICTED BY IDOCK:   -7.85 KCAL/MOL
REMARK 923 INTER-LIGAND FREE ENERGY PREDICTED BY IDOCK:   -7.07 KCAL/MOL
REMARK 924 INTRA-LIGAND FREE ENERGY PREDICTED BY IDOCK:   -0.78 KCAL/MOL
REMARK 927      BINDING AFFINITY PREDICTED BY RF-SCORE:    0.00 PKD
ROOT
HETATM    1  C   UNL     1     -11.924  14.303  66.480  1.00  0.00    -0.427 C  
HETATM    2  N   UNL     1     -11.672  13.292  67.483  1.00  0.00    -0.348 NA 
HETATM    3  C   UNL     1     -11.803  13.394  68.853  1.00  0.00    -0.334 A  
HETATM    4  C   UNL     1     -11.228  12.020  67.189  1.00  0.00    -0.316 A  
HETATM    5  N   UNL     1     -11.492  12.251  69.433  1.00  0.00    -0.282 NA 
HETATM    6  C   UNL     1     -10.908  11.353  66.004  1.00  0.00    -0.306 A  
HETATM    7  C   UNL     1     -11.122  11.402  68.423  1.00  0.00    -0.242 A  
HETATM    8  C   UNL     1     -10.477  10.014  66.115  1.00  0.00    -0.156 A  
HETATM    9  C   UNL     1     -10.681  10.075  68.500  1.00  0.00    -0.264 A  
HETATM   10  C   UNL     1     -10.365   9.338  67.343  1.00  0.00    -0.263 A  
ENDROOT
BRANCH   3  11
HETATM   11  C   UNL     1     -12.207  14.609  69.631  1.00  0.00    -0.325 C  
BRANCH  11  12
HETATM   12  C   UNL     1     -13.064  14.192  70.834  1.00  0.00    -0.338 C  
BRANCH  12  13
HETATM   13  C   UNL     1     -13.599  15.385  71.616  1.00  0.00    -0.603 C  
HETATM   14  O   UNL     1     -12.917  14.619  73.785  1.00  0.00    -0.482 OA 
HETATM   15  O   UNL     1     -12.148  16.622  73.092  1.00  0.00    -0.479 OA 
HETATM   16  C   UNL     1     -12.809  15.616  72.882  1.00  0.00    -0.471 C  
ENDBRANCH  12  13
ENDBRANCH  11  12
ENDBRANCH   3  11
BRANCH  10  17
HETATM   17  N   UNL     1      -9.983   8.002  67.429  1.00  0.00    -0.187 NA 
BRANCH  17  18
HETATM   18  C   UNL     1      -8.588   7.554  67.274  1.00  0.00    -0.118 C  
HETATM   19 CL   UNL     1      -7.954   8.262  69.866  1.00  0.00    -0.105 Cl 
HETATM   20  C   UNL     1      -7.591   8.353  68.121  1.00  0.00    -0.098 C  
ENDBRANCH  17  18
BRANCH  17  21
HETATM   21  C   UNL     1     -11.013   6.946  67.529  1.00  0.00    -0.270 C  
HETATM   22 CL   UNL     1     -11.179   7.090  70.278  1.00  0.00    -0.321 Cl 
HETATM   23  C   UNL     1     -10.909   6.109  68.811  1.00  0.00    -0.336 C  
ENDBRANCH  17  21
ENDBRANCH  10  17
TORSDOF 6
ENDMDL
MODEL       56
REMARK 921   NORMALIZED FREE ENERGY PREDICTED BY IDOCK:   -5.22 KCAL/MOL
REMARK 922        TOTAL FREE ENERGY PREDICTED BY IDOCK:   -7.83 KCAL/MOL
REMARK 923 INTER-LIGAND FREE ENERGY PREDICTED BY IDOCK:   -7.19 KCAL/MOL
REMARK 924 INTRA-LIGAND FREE ENERGY PREDICTED BY IDOCK:   -0.64 KCAL/MOL
REMARK 927      BINDING AFFINITY PREDICTED BY RF-SCORE:    0.00 PKD
ROOT
HETATM    1  C   UNL     1     -13.955  13.235  72.346  1.00  0.00    -0.456 C  
HETATM    2  N   UNL     1     -12.995  12.775  71.367  1.00  0.00    -0.329 NA 
HETATM    3  C   UNL     1     -12.338  13.511  70.402  1.00  0.00    -0.327 A  
HETATM    4  C   UNL     1     -12.594  11.461  71.250  1.00  0.00    -0.374 A  
HETATM    5  N   UNL     1     -11.527  12.738  69.705  1.00  0.00    -0.228 NA 
HETATM    6  C   UNL     1     -12.921  10.282  71.925  1.00  0.00    -0.554 A  
HETATM    7  C   UNL     1     -11.687  11.473  70.205  1.00  0.00    -0.309 A  
HETATM    8  C   UNL     1     -12.281   9.099  71.502  1.00  0.00    -0.422 A  
HETATM    9  C   UNL     1     -11.075  10.279  69.802  1.00  0.00    -0.340 A  
HETATM   10  C   UNL     1     -11.343   9.060  70.455  1.00  0.00    -0.243 A  
ENDROOT
BRANCH   3  11
HETATM   11  C   UNL     1     -12.498  14.973  70.119  1.00  0.00    -0.356 C  
BRANCH  11  12
HETATM   12  C   UNL     1     -11.232  15.512  69.441  1.00  0.00    -0.302 C  
BRANCH  12  13
HETATM   13  C   UNL     1     -11.486  15.991  68.017  1.00  0.00    -0.199 C  
HETATM   14  O   UNL     1     -10.110  14.355  66.927  1.00  0.00    -0.252 OA 
HETATM   15  O   UNL     1     -12.285  14.454  66.339  1.00  0.00    -0.417 OA 
HETATM   16  C   UNL     1     -11.357  14.863  67.022  1.00  0.00    -0.342 C  
ENDBRANCH  12  13
ENDBRANCH  11  12
ENDBRANCH   3  11
BRANCH  10  17
HETATM   17  N   UNL     1     -10.685   7.892  70.083  1.00  0.00    -0.242 NA 
BRANCH  17  18
HETATM   18  C   UNL     1     -11.383   6.612  69.864  1.00  0.00    -0.364 C  
HETATM   19 CL   UNL     1     -10.979   5.818  72.478  1.00  0.00    -0.290 Cl 
HETATM   20  C   UNL     1     -10.847   5.468  70.732  1.00  0.00    -0.179 C  
ENDBRANCH  17  18
BRANCH  17  21
HETATM   21  C   UNL     1      -9.207   7.858  70.042  1.00  0.00    -0.153 C  
HETATM   22 CL   UNL     1      -8.923   8.350  72.741  1.00  0.00    -0.317 Cl 
HETATM   23  C   UNL     1      -8.546   8.802  71.055  1.00  0.00    -0.192 C  
ENDBRANCH  17  21
ENDBRANCH  10  17
TORSDOF 6
ENDMDL
MODEL       57
REMARK 921   NORMALIZED FREE ENERGY PREDICTED BY IDOCK:   -5.20 KCAL/MOL
REMARK 922        TOTAL FREE ENERGY PREDICTED BY IDOCK:   -7.80 KCAL/MOL
REMARK 923 INTER-LIGAND FREE ENERGY PREDICTED BY IDOCK:   -7.11 KCAL/MOL
REMARK 924 INTRA-LIGAND FREE ENERGY PREDICTED BY IDOCK:   -0.70 KCAL/MOL
REMARK 927      BINDING AFFINITY PREDICTED BY RF-SCORE:    0.00 PKD
ROOT
HETATM    1  C   UNL     1     -11.788  12.530  63.489  1.00  0.00    -0.534 C  
HETATM    2  N   UNL     1     -10.907  12.724  64.619  1.00  0.00    -0.316 NA 
HETATM    3  C   UNL     1     -10.217  11.771  65.340  1.00  0.00    -0.261 A  
HETATM    4  C   UNL     1     -10.634  13.958  65.170  1.00  0.00    -0.379 A  
HETATM    5  N   UNL     1      -9.505  12.340  66.294  1.00  0.00    -0.237 NA 
HETATM    6  C   UNL     1     -11.046  15.262  64.884  1.00  0.00    -0.435 A  
HETATM    7  C   UNL     1      -9.764  13.682  66.211  1.00  0.00    -0.283 A  
HETATM    8  C   UNL     1     -10.532  16.293  65.698  1.00  0.00    -0.386 A  
HETATM    9  C   UNL     1      -9.278  14.728  67.007  1.00  0.00    -0.248 A  
HETATM   10  C   UNL     1      -9.636  16.066  66.758  1.00  0.00    -0.232 A  
ENDROOT
BRANCH   3  11
HETATM   11  C   UNL     1     -10.251  10.287  65.136  1.00  0.00    -0.295 C  
BRANCH  11  12
HETATM   12  C   UNL     1     -10.060   9.574  66.481  1.00  0.00    -0.326 C  
BRANCH  12  13
HETATM   13  C   UNL     1      -9.690   8.105  66.321  1.00  0.00    -0.223 C  
HETATM   14  O   UNL     1     -10.010   7.490  68.618  1.00  0.00    -0.162 OA 
HETATM   15  O   UNL     1     -11.206   6.381  67.061  1.00  0.00    -0.373 OA 
HETATM   16  C   UNL     1     -10.389   7.244  67.346  1.00  0.00    -0.260 C  
ENDBRANCH  12  13
ENDBRANCH  11  12
ENDBRANCH   3  11
BRANCH  10  17
HETATM   17  N   UNL     1      -9.101  17.101  67.519  1.00  0.00    -0.224 NA 
BRANCH  17  18
HETATM   18  C   UNL     1      -7.686  17.507  67.442  1.00  0.00    -0.198 C  
HETATM   19 CL   UNL     1      -6.960  15.764  69.456  1.00  0.00    -0.196 Cl 
HETATM   20  C   UNL     1      -6.950  17.418  68.783  1.00  0.00    -0.236 C  
ENDBRANCH  17  18
BRANCH  17  21
HETATM   21  C   UNL     1      -9.919  17.743  68.571  1.00  0.00    -0.370 C  
HETATM   22 CL   UNL     1     -11.024  19.600  66.857  1.00  0.00    -0.499 Cl 
HETATM   23  C   UNL     1     -10.119  19.249  68.356  1.00  0.00    -0.431 C  
ENDBRANCH  17  21
ENDBRANCH  10  17
TORSDOF 6
ENDMDL
MODEL       58
REMARK 921   NORMALIZED FREE ENERGY PREDICTED BY IDOCK:   -5.20 KCAL/MOL
REMARK 922        TOTAL FREE ENERGY PREDICTED BY IDOCK:   -7.80 KCAL/MOL
REMARK 923 INTER-LIGAND FREE ENERGY PREDICTED BY IDOCK:   -6.79 KCAL/MOL
REMARK 924 INTRA-LIGAND FREE ENERGY PREDICTED BY IDOCK:   -1.01 KCAL/MOL
REMARK 927      BINDING AFFINITY PREDICTED BY RF-SCORE:    0.00 PKD
ROOT
HETATM    1  C   UNL     1     -10.190   7.213  68.808  1.00  0.00    -0.179 C  
HETATM    2  N   UNL     1     -10.768   8.501  69.117  1.00  0.00    -0.165 NA 
HETATM    3  C   UNL     1     -11.438   8.887  70.260  1.00  0.00    -0.105 A  
HETATM    4  C   UNL     1     -10.739   9.577  68.254  1.00  0.00    -0.194 A  
HETATM    5  N   UNL     1     -11.807  10.151  70.174  1.00  0.00    -0.246 NA 
HETATM    6  C   UNL     1     -10.224   9.779  66.971  1.00  0.00    -0.292 A  
HETATM    7  C   UNL     1     -11.397  10.583  68.941  1.00  0.00    -0.251 A  
HETATM    8  C   UNL     1     -10.396  11.058  66.402  1.00  0.00    -0.302 A  
HETATM    9  C   UNL     1     -11.561  11.840  68.343  1.00  0.00    -0.380 A  
HETATM   10  C   UNL     1     -11.046  12.116  67.062  1.00  0.00    -0.294 A  
ENDROOT
BRANCH   3  11
HETATM   11  C   UNL     1     -11.758   8.034  71.449  1.00  0.00    -0.320 C  
BRANCH  11  12
HETATM   12  C   UNL     1     -10.875   8.444  72.634  1.00  0.00    -0.308 C  
BRANCH  12  13
HETATM   13  C   UNL     1      -9.590   7.631  72.719  1.00  0.00    -0.253 C  
HETATM   14  O   UNL     1      -8.212   9.165  71.493  1.00  0.00    -0.334 OA 
HETATM   15  O   UNL     1      -7.573   8.628  73.588  1.00  0.00    -0.377 OA 
HETATM   16  C   UNL     1      -8.369   8.518  72.667  1.00  0.00    -0.081 C  
ENDBRANCH  12  13
ENDBRANCH  11  12
ENDBRANCH   3  11
BRANCH  10  17
HETATM   17  N   UNL     1     -11.164  13.386  66.505  1.00  0.00    -0.301 NA 
BRANCH  17  18
HETATM   18  C   UNL     1     -10.182  14.460  66.738  1.00  0.00    -0.270 C  
HETATM   19 CL   UNL     1     -11.614  15.458  68.877  1.00  0.00    -0.347 Cl 
HETATM   20  C   UNL     1     -10.800  15.739  67.313  1.00  0.00    -0.298 C  
ENDBRANCH  17  18
BRANCH  17  21
HETATM   21  C   UNL     1     -12.390  13.756  65.765  1.00  0.00    -0.486 C  
HETATM   22 CL   UNL     1     -11.557  12.597  63.406  1.00  0.00    -0.563 Cl 
HETATM   23  C   UNL     1     -12.145  14.040  64.278  1.00  0.00    -0.445 C  
ENDBRANCH  17  21
ENDBRANCH  10  17
TORSDOF 6
ENDMDL
MODEL       59
REMARK 921   NORMALIZED FREE ENERGY PREDICTED BY IDOCK:   -5.19 KCAL/MOL
REMARK 922        TOTAL FREE ENERGY PREDICTED BY IDOCK:   -7.78 KCAL/MOL
REMARK 923 INTER-LIGAND FREE ENERGY PREDICTED BY IDOCK:   -6.88 KCAL/MOL
REMARK 924 INTRA-LIGAND FREE ENERGY PREDICTED BY IDOCK:   -0.90 KCAL/MOL
REMARK 927      BINDING AFFINITY PREDICTED BY RF-SCORE:    0.00 PKD
ROOT
HETATM    1  C   UNL     1      -9.357   6.591  66.318  1.00  0.00    -0.109 C  
HETATM    2  N   UNL     1      -9.982   7.643  67.088  1.00  0.00    -0.205 NA 
HETATM    3  C   UNL     1     -10.554   7.563  68.341  1.00  0.00    -0.134 A  
HETATM    4  C   UNL     1     -10.111   8.942  66.641  1.00  0.00    -0.287 A  
HETATM    5  N   UNL     1     -11.010   8.743  68.717  1.00  0.00     0.033 NA 
HETATM    6  C   UNL     1      -9.745   9.605  65.467  1.00  0.00    -0.372 A  
HETATM    7  C   UNL     1     -10.758   9.595  67.676  1.00  0.00    -0.262 A  
HETATM    8  C   UNL     1     -10.058  10.978  65.380  1.00  0.00    -0.326 A  
HETATM    9  C   UNL     1     -11.062  10.958  67.554  1.00  0.00    -0.375 A  
HETATM   10  C   UNL     1     -10.701  11.691  66.407  1.00  0.00    -0.272 A  
ENDROOT
BRANCH   3  11
HETATM   11  C   UNL     1     -10.694   6.338  69.192  1.00  0.00    -0.362 C  
BRANCH  11  12
HETATM   12  C   UNL     1     -10.372   6.680  70.652  1.00  0.00    -0.233 C  
BRANCH  12  13
HETATM   13  C   UNL     1     -11.475   6.253  71.613  1.00  0.00    -0.351 C  
HETATM   14  O   UNL     1     -11.935   8.439  72.490  1.00  0.00    -0.393 OA 
HETATM   15  O   UNL     1     -13.639   7.315  71.530  1.00  0.00    -0.388 OA 
HETATM   16  C   UNL     1     -12.461   7.371  71.854  1.00  0.00    -0.302 C  
ENDBRANCH  12  13
ENDBRANCH  11  12
ENDBRANCH   3  11
BRANCH  10  17
HETATM   17  N   UNL     1     -10.958  13.056  66.323  1.00  0.00    -0.281 NA 
BRANCH  17  18
HETATM   18  C   UNL     1      -9.984  14.083  66.736  1.00  0.00    -0.268 C  
HETATM   19 CL   UNL     1     -11.137  14.333  69.232  1.00  0.00    -0.289 Cl 
HETATM   20  C   UNL     1     -10.554  15.101  67.730  1.00  0.00    -0.264 C  
ENDBRANCH  17  18
BRANCH  17  21
HETATM   21  C   UNL     1     -12.308  13.532  65.952  1.00  0.00    -0.456 C  
HETATM   22 CL   UNL     1     -11.929  13.119  63.252  1.00  0.00    -0.570 Cl 
HETATM   23  C   UNL     1     -12.357  14.227  64.585  1.00  0.00    -0.415 C  
ENDBRANCH  17  21
ENDBRANCH  10  17
TORSDOF 6
ENDMDL
MODEL       60
REMARK 921   NORMALIZED FREE ENERGY PREDICTED BY IDOCK:   -5.19 KCAL/MOL
REMARK 922        TOTAL FREE ENERGY PREDICTED BY IDOCK:   -7.78 KCAL/MOL
REMARK 923 INTER-LIGAND FREE ENERGY PREDICTED BY IDOCK:   -6.86 KCAL/MOL
REMARK 924 INTRA-LIGAND FREE ENERGY PREDICTED BY IDOCK:   -0.92 KCAL/MOL
REMARK 927      BINDING AFFINITY PREDICTED BY RF-SCORE:    0.00 PKD
ROOT
HETATM    1  C   UNL     1      -9.049  13.917  67.696  1.00  0.00    -0.197 C  
HETATM    2  N   UNL     1     -10.070  12.893  67.684  1.00  0.00    -0.217 NA 
HETATM    3  C   UNL     1     -11.315  12.933  67.091  1.00  0.00    -0.306 A  
HETATM    4  C   UNL     1      -9.936  11.674  68.314  1.00  0.00    -0.201 A  
HETATM    5  N   UNL     1     -11.958  11.798  67.289  1.00  0.00    -0.607 NA 
HETATM    6  C   UNL     1      -8.924  11.080  69.074  1.00  0.00    -0.071 A  
HETATM    7  C   UNL     1     -11.128  11.021  68.052  1.00  0.00    -0.286 A  
HETATM    8  C   UNL     1      -9.166   9.778  69.561  1.00  0.00    -0.226 A  
HETATM    9  C   UNL     1     -11.340   9.733  68.559  1.00  0.00     0.025 A  
HETATM   10  C   UNL     1     -10.354   9.068  69.313  1.00  0.00    -0.219 A  
ENDROOT
BRANCH   3  11
HETATM   11  C   UNL     1     -11.920  14.080  66.340  1.00  0.00    -0.462 C  
BRANCH  11  12
HETATM   12  C   UNL     1     -11.229  14.231  64.978  1.00  0.00    -0.364 C  
BRANCH  12  13
HETATM   13  C   UNL     1     -12.148  13.891  63.812  1.00  0.00    -0.330 C  
HETATM   14  O   UNL     1     -11.260  11.702  63.392  1.00  0.00    -0.396 OA 
HETATM   15  O   UNL     1     -13.463  11.870  63.846  1.00  0.00    -0.559 OA 
HETATM   16  C   UNL     1     -12.372  12.402  63.699  1.00  0.00    -0.548 C  
ENDBRANCH  12  13
ENDBRANCH  11  12
ENDBRANCH   3  11
BRANCH  10  17
HETATM   17  N   UNL     1     -10.555   7.766  69.761  1.00  0.00    -0.240 NA 
BRANCH  17  18
HETATM   18  C   UNL     1     -11.556   7.414  70.783  1.00  0.00    -0.290 C  
HETATM   19 CL   UNL     1      -9.943   8.316  72.835  1.00  0.00    -0.341 Cl 
HETATM   20  C   UNL     1     -10.942   7.015  72.129  1.00  0.00    -0.234 C  
ENDBRANCH  17  18
BRANCH  17  21
HETATM   21  C   UNL     1      -9.641   6.687  69.327  1.00  0.00    -0.143 C  
HETATM   22 CL   UNL     1     -10.984   6.228  66.963  1.00  0.00    -0.449 Cl 
HETATM   23  C   UNL     1     -10.333   5.595  68.500  1.00  0.00    -0.199 C  
ENDBRANCH  17  21
ENDBRANCH  10  17
TORSDOF 6
ENDMDL
MODEL       61
REMARK 921   NORMALIZED FREE ENERGY PREDICTED BY IDOCK:   -5.17 KCAL/MOL
REMARK 922        TOTAL FREE ENERGY PREDICTED BY IDOCK:   -7.76 KCAL/MOL
REMARK 923 INTER-LIGAND FREE ENERGY PREDICTED BY IDOCK:   -6.83 KCAL/MOL
REMARK 924 INTRA-LIGAND FREE ENERGY PREDICTED BY IDOCK:   -0.93 KCAL/MOL
REMARK 927      BINDING AFFINITY PREDICTED BY RF-SCORE:    0.00 PKD
ROOT
HETATM    1  C   UNL     1     -12.519   8.918  72.152  1.00  0.00    -0.389 C  
HETATM    2  N   UNL     1     -11.825   9.186  70.912  1.00  0.00    -0.286 NA 
HETATM    3  C   UNL     1     -11.132   8.302  70.111  1.00  0.00    -0.189 A  
HETATM    4  C   UNL     1     -11.747  10.436  70.335  1.00  0.00    -0.331 A  
HETATM    5  N   UNL     1     -10.647   8.921  69.052  1.00  0.00    -0.214 NA 
HETATM    6  C   UNL     1     -12.232  11.700  70.687  1.00  0.00    -0.461 A  
HETATM    7  C   UNL     1     -11.004  10.236  69.185  1.00  0.00    -0.238 A  
HETATM    8  C   UNL     1     -11.936  12.767  69.815  1.00  0.00    -0.362 A  
HETATM    9  C   UNL     1     -10.720  11.320  68.344  1.00  0.00    -0.238 A  
HETATM   10  C   UNL     1     -11.197  12.614  68.629  1.00  0.00    -0.282 A  
ENDROOT
BRANCH   3  11
HETATM   11  C   UNL     1     -10.902   6.843  70.366  1.00  0.00    -0.297 C  
BRANCH  11  12
HETATM   12  C   UNL     1      -9.603   6.654  71.160  1.00  0.00    -0.177 C  
BRANCH  12  13
HETATM   13  C   UNL     1      -9.649   5.443  72.083  1.00  0.00    -0.181 C  
HETATM   14  O   UNL     1     -10.512   6.595  74.003  1.00  0.00    -0.346 OA 
HETATM   15  O   UNL     1     -11.698   4.848  73.209  1.00  0.00    -0.312 OA 
HETATM   16  C   UNL     1     -10.727   5.587  73.131  1.00  0.00    -0.268 C  
ENDBRANCH  12  13
ENDBRANCH  11  12
ENDBRANCH   3  11
BRANCH  10  17
HETATM   17  N   UNL     1     -10.957  13.671  67.755  1.00  0.00    -0.254 NA 
BRANCH  17  18
HETATM   18  C   UNL     1     -12.035  14.451  67.122  1.00  0.00    -0.389 C  
HETATM   19 CL   UNL     1     -12.487  12.498  65.224  1.00  0.00    -0.488 Cl 
HETATM   20  C   UNL     1     -12.161  14.209  65.614  1.00  0.00    -0.435 C  
ENDBRANCH  17  18
BRANCH  17  21
HETATM   21  C   UNL     1      -9.578  13.955  67.301  1.00  0.00    -0.243 C  
HETATM   22 CL   UNL     1      -9.016  15.638  69.411  1.00  0.00    -0.265 Cl 
HETATM   23  C   UNL     1      -9.099  15.370  67.648  1.00  0.00    -0.182 C  
ENDBRANCH  17  21
ENDBRANCH  10  17
TORSDOF 6
ENDMDL
MODEL       62
REMARK 921   NORMALIZED FREE ENERGY PREDICTED BY IDOCK:   -5.15 KCAL/MOL
REMARK 922        TOTAL FREE ENERGY PREDICTED BY IDOCK:   -7.73 KCAL/MOL
REMARK 923 INTER-LIGAND FREE ENERGY PREDICTED BY IDOCK:   -6.77 KCAL/MOL
REMARK 924 INTRA-LIGAND FREE ENERGY PREDICTED BY IDOCK:   -0.96 KCAL/MOL
REMARK 927      BINDING AFFINITY PREDICTED BY RF-SCORE:    0.00 PKD
ROOT
HETATM    1  C   UNL     1      -9.697   7.254  68.931  1.00  0.00    -0.148 C  
HETATM    2  N   UNL     1     -10.504   8.423  69.202  1.00  0.00    -0.220 NA 
HETATM    3  C   UNL     1     -11.356   8.648  70.263  1.00  0.00    -0.136 A  
HETATM    4  C   UNL     1     -10.544   9.530  68.380  1.00  0.00    -0.219 A  
HETATM    5  N   UNL     1     -11.907   9.843  70.168  1.00  0.00    -0.176 NA 
HETATM    6  C   UNL     1      -9.920   9.868  67.176  1.00  0.00    -0.252 A  
HETATM    7  C   UNL     1     -11.429  10.389  69.008  1.00  0.00    -0.193 A  
HETATM    8  C   UNL     1     -10.224  11.131  66.627  1.00  0.00    -0.274 A  
HETATM    9  C   UNL     1     -11.717  11.633  68.431  1.00  0.00    -0.374 A  
HETATM   10  C   UNL     1     -11.105  12.045  67.231  1.00  0.00    -0.285 A  
ENDROOT
BRANCH   3  11
HETATM   11  C   UNL     1     -11.675   7.700  71.380  1.00  0.00    -0.310 C  
BRANCH  11  12
HETATM   12  C   UNL     1     -11.051   8.209  72.686  1.00  0.00    -0.450 C  
BRANCH  12  13
HETATM   13  C   UNL     1      -9.796   7.439  73.077  1.00  0.00    -0.279 C  
HETATM   14  O   UNL     1      -8.235   8.862  71.939  1.00  0.00    -0.345 OA 
HETATM   15  O   UNL     1      -7.962   8.571  74.158  1.00  0.00    -0.362 OA 
HETATM   16  C   UNL     1      -8.588   8.343  73.134  1.00  0.00    -0.138 C  
ENDBRANCH  12  13
ENDBRANCH  11  12
ENDBRANCH   3  11
BRANCH  10  17
HETATM   17  N   UNL     1     -11.356  13.307  66.699  1.00  0.00    -0.310 NA 
BRANCH  17  18
HETATM   18  C   UNL     1     -12.448  13.573  65.745  1.00  0.00    -0.462 C  
HETATM   19 CL   UNL     1     -10.969  12.625  63.615  1.00  0.00    -0.478 Cl 
HETATM   20  C   UNL     1     -11.956  13.925  64.337  1.00  0.00    -0.450 C  
ENDBRANCH  17  18
BRANCH  17  21
HETATM   21  C   UNL     1     -10.417  14.418  66.961  1.00  0.00    -0.268 C  
HETATM   22 CL   UNL     1     -11.774  15.304  69.192  1.00  0.00    -0.338 Cl 
HETATM   23  C   UNL     1     -11.086  15.651  67.582  1.00  0.00    -0.305 C  
ENDBRANCH  17  21
ENDBRANCH  10  17
TORSDOF 6
ENDMDL
MODEL       63
REMARK 921   NORMALIZED FREE ENERGY PREDICTED BY IDOCK:   -5.15 KCAL/MOL
REMARK 922        TOTAL FREE ENERGY PREDICTED BY IDOCK:   -7.73 KCAL/MOL
REMARK 923 INTER-LIGAND FREE ENERGY PREDICTED BY IDOCK:   -7.52 KCAL/MOL
REMARK 924 INTRA-LIGAND FREE ENERGY PREDICTED BY IDOCK:   -0.21 KCAL/MOL
REMARK 927      BINDING AFFINITY PREDICTED BY RF-SCORE:    0.00 PKD
ROOT
HETATM    1  C   UNL     1     -13.911  13.833  72.220  1.00  0.00    -0.580 C  
HETATM    2  N   UNL     1     -12.995  13.311  71.230  1.00  0.00    -0.306 NA 
HETATM    3  C   UNL     1     -12.663  11.995  70.981  1.00  0.00    -0.241 A  
HETATM    4  C   UNL     1     -12.277  14.105  70.361  1.00  0.00    -0.356 A  
HETATM    5  N   UNL     1     -11.799  11.917  69.987  1.00  0.00    -0.337 NA 
HETATM    6  C   UNL     1     -12.187  15.485  70.155  1.00  0.00    -0.404 A  
HETATM    7  C   UNL     1     -11.542  13.207  69.607  1.00  0.00    -0.253 A  
HETATM    8  C   UNL     1     -11.316  15.928  69.138  1.00  0.00    -0.366 A  
HETATM    9  C   UNL     1     -10.678  13.681  68.611  1.00  0.00    -0.272 A  
HETATM   10  C   UNL     1     -10.557  15.056  68.337  1.00  0.00    -0.239 A  
ENDROOT
BRANCH   3  11
HETATM   11  C   UNL     1     -13.156  10.786  71.716  1.00  0.00    -0.573 C  
BRANCH  11  12
HETATM   12  C   UNL     1     -12.426   9.536  71.208  1.00  0.00    -0.432 C  
BRANCH  12  13
HETATM   13  C   UNL     1     -13.076   8.242  71.681  1.00  0.00    -0.354 C  
HETATM   14  O   UNL     1     -11.856   6.775  70.227  1.00  0.00    -0.364 OA 
HETATM   15  O   UNL     1     -11.715   6.405  72.447  1.00  0.00    -0.287 OA 
HETATM   16  C   UNL     1     -12.148   7.063  71.512  1.00  0.00    -0.353 C  
ENDBRANCH  12  13
ENDBRANCH  11  12
ENDBRANCH   3  11
BRANCH  10  17
HETATM   17  N   UNL     1      -9.739  15.510  67.306  1.00  0.00    -0.218 NA 
BRANCH  17  18
HETATM   18  C   UNL     1     -10.176  16.510  66.315  1.00  0.00    -0.332 C  
HETATM   19 CL   UNL     1      -9.006  18.578  67.720  1.00  0.00    -0.283 Cl 
HETATM   20  C   UNL     1     -10.446  17.892  66.920  1.00  0.00    -0.329 C  
ENDBRANCH  17  18
BRANCH  17  21
HETATM   21  C   UNL     1      -8.425  14.874  67.072  1.00  0.00    -0.231 C  
HETATM   22 CL   UNL     1      -7.188  16.206  69.146  1.00  0.00    -0.202 Cl 
HETATM   23  C   UNL     1      -7.236  15.782  67.412  1.00  0.00    -0.202 C  
ENDBRANCH  17  21
ENDBRANCH  10  17
TORSDOF 6
ENDMDL
MODEL       64
REMARK 921   NORMALIZED FREE ENERGY PREDICTED BY IDOCK:   -5.14 KCAL/MOL
REMARK 922        TOTAL FREE ENERGY PREDICTED BY IDOCK:   -7.72 KCAL/MOL
REMARK 923 INTER-LIGAND FREE ENERGY PREDICTED BY IDOCK:   -6.85 KCAL/MOL
REMARK 924 INTRA-LIGAND FREE ENERGY PREDICTED BY IDOCK:   -0.87 KCAL/MOL
REMARK 927      BINDING AFFINITY PREDICTED BY RF-SCORE:    0.00 PKD
ROOT
HETATM    1  C   UNL     1     -12.958  10.617  71.950  1.00  0.00    -0.437 C  
HETATM    2  N   UNL     1     -11.869  10.408  71.023  1.00  0.00    -0.362 NA 
HETATM    3  C   UNL     1     -10.942   9.386  71.006  1.00  0.00    -0.338 A  
HETATM    4  C   UNL     1     -11.584  11.260  69.976  1.00  0.00    -0.321 A  
HETATM    5  N   UNL     1     -10.109   9.534  69.993  1.00  0.00    -0.224 NA 
HETATM    6  C   UNL     1     -12.153  12.448  69.508  1.00  0.00    -0.250 A  
HETATM    7  C   UNL     1     -10.483  10.689  69.361  1.00  0.00    -0.225 A  
HETATM    8  C   UNL     1     -11.561  13.042  68.374  1.00  0.00    -0.370 A  
HETATM    9  C   UNL     1      -9.912  11.310  68.242  1.00  0.00    -0.201 A  
HETATM   10  C   UNL     1     -10.451  12.496  67.707  1.00  0.00    -0.220 A  
ENDROOT
BRANCH   3  11
HETATM   11  C   UNL     1     -10.827   8.258  71.986  1.00  0.00    -0.370 C  
BRANCH  11  12
HETATM   12  C   UNL     1     -11.711   7.087  71.535  1.00  0.00    -0.337 C  
BRANCH  12  13
HETATM   13  C   UNL     1     -10.904   5.843  71.184  1.00  0.00    -0.334 C  
HETATM   14  O   UNL     1     -11.087   6.061  68.801  1.00  0.00    -0.336 OA 
HETATM   15  O   UNL     1      -9.016   5.997  69.691  1.00  0.00    -0.130 OA 
HETATM   16  C   UNL     1     -10.229   5.982  69.840  1.00  0.00    -0.205 C  
ENDBRANCH  12  13
ENDBRANCH  11  12
ENDBRANCH   3  11
BRANCH  10  17
HETATM   17  N   UNL     1      -9.910  13.070  66.560  1.00  0.00    -0.258 NA 
BRANCH  17  18
HETATM   18  C   UNL     1     -10.290  12.655  65.198  1.00  0.00    -0.292 C  
HETATM   19 CL   UNL     1     -12.739  13.917  65.376  1.00  0.00    -0.545 Cl 
HETATM   20  C   UNL     1     -11.798  12.442  65.022  1.00  0.00    -0.388 C  
ENDBRANCH  17  18
BRANCH  17  21
HETATM   21  C   UNL     1      -8.795  14.035  66.673  1.00  0.00    -0.092 C  
HETATM   22 CL   UNL     1     -10.451  16.221  66.963  1.00  0.00    -0.310 Cl 
HETATM   23  C   UNL     1      -9.118  15.416  66.088  1.00  0.00    -0.304 C  
ENDBRANCH  17  21
ENDBRANCH  10  17
TORSDOF 6
ENDMDL
MODEL       65
REMARK 921   NORMALIZED FREE ENERGY PREDICTED BY IDOCK:   -5.13 KCAL/MOL
REMARK 922        TOTAL FREE ENERGY PREDICTED BY IDOCK:   -7.71 KCAL/MOL
REMARK 923 INTER-LIGAND FREE ENERGY PREDICTED BY IDOCK:   -6.68 KCAL/MOL
REMARK 924 INTRA-LIGAND FREE ENERGY PREDICTED BY IDOCK:   -1.03 KCAL/MOL
REMARK 927      BINDING AFFINITY PREDICTED BY RF-SCORE:    0.00 PKD
ROOT
HETATM    1  C   UNL     1     -12.138  12.509  65.531  1.00  0.00    -0.419 C  
HETATM    2  N   UNL     1     -11.565  13.152  66.693  1.00  0.00    -0.338 NA 
HETATM    3  C   UNL     1     -11.464  12.663  67.979  1.00  0.00    -0.318 A  
HETATM    4  C   UNL     1     -11.024  14.421  66.673  1.00  0.00    -0.318 A  
HETATM    5  N   UNL     1     -10.866  13.542  68.761  1.00  0.00    -0.253 NA 
HETATM    6  C   UNL     1     -10.862  15.392  65.681  1.00  0.00    -0.363 A  
HETATM    7  C   UNL     1     -10.605  14.632  67.975  1.00  0.00    -0.240 A  
HETATM    8  C   UNL     1     -10.243  16.601  66.061  1.00  0.00    -0.366 A  
HETATM    9  C   UNL     1     -10.002  15.849  68.322  1.00  0.00    -0.222 A  
HETATM   10  C   UNL     1      -9.788  16.860  67.366  1.00  0.00    -0.261 A  
ENDROOT
BRANCH   3  11
HETATM   11  C   UNL     1     -11.966  11.346  68.485  1.00  0.00    -0.295 C  
BRANCH  11  12
HETATM   12  C   UNL     1     -10.793  10.372  68.649  1.00  0.00    -0.270 C  
BRANCH  12  13
HETATM   13  C   UNL     1     -10.489   9.595  67.374  1.00  0.00    -0.319 C  
HETATM   14  O   UNL     1      -8.669  10.975  66.639  1.00  0.00    -0.150 OA 
HETATM   15  O   UNL     1      -8.261   8.779  66.947  1.00  0.00    -0.107 OA 
HETATM   16  C   UNL     1      -9.037   9.723  66.981  1.00  0.00    -0.138 C  
ENDBRANCH  12  13
ENDBRANCH  11  12
ENDBRANCH   3  11
BRANCH  10  17
HETATM   17  N   UNL     1      -9.136  18.041  67.710  1.00  0.00    -0.259 NA 
BRANCH  17  18
HETATM   18  C   UNL     1      -9.833  19.204  68.289  1.00  0.00    -0.390 C  
HETATM   19 CL   UNL     1     -10.655  20.088  65.806  1.00  0.00    -0.526 Cl 
HETATM   20  C   UNL     1      -9.854  20.426  67.365  1.00  0.00    -0.446 C  
ENDBRANCH  17  18
BRANCH  17  21
HETATM   21  C   UNL     1      -7.713  18.229  67.356  1.00  0.00    -0.218 C  
HETATM   22 CL   UNL     1      -6.778  16.810  69.528  1.00  0.00    -0.225 Cl 
HETATM   23  C   UNL     1      -6.786  18.320  68.575  1.00  0.00    -0.238 C  
ENDBRANCH  17  21
ENDBRANCH  10  17
TORSDOF 6
ENDMDL
MODEL       66
REMARK 921   NORMALIZED FREE ENERGY PREDICTED BY IDOCK:   -5.11 KCAL/MOL
REMARK 922        TOTAL FREE ENERGY PREDICTED BY IDOCK:   -7.68 KCAL/MOL
REMARK 923 INTER-LIGAND FREE ENERGY PREDICTED BY IDOCK:   -6.73 KCAL/MOL
REMARK 924 INTRA-LIGAND FREE ENERGY PREDICTED BY IDOCK:   -0.94 KCAL/MOL
REMARK 927      BINDING AFFINITY PREDICTED BY RF-SCORE:    0.00 PKD
ROOT
HETATM    1  C   UNL     1     -11.830  12.398  65.179  1.00  0.00    -0.388 C  
HETATM    2  N   UNL     1     -11.300  12.935  66.412  1.00  0.00    -0.304 NA 
HETATM    3  C   UNL     1     -11.153  12.300  67.629  1.00  0.00    -0.268 A  
HETATM    4  C   UNL     1     -10.856  14.233  66.551  1.00  0.00    -0.304 A  
HETATM    5  N   UNL     1     -10.618  13.119  68.515  1.00  0.00    -0.256 NA 
HETATM    6  C   UNL     1     -10.773  15.328  65.686  1.00  0.00    -0.376 A  
HETATM    7  C   UNL     1     -10.445  14.314  67.870  1.00  0.00    -0.240 A  
HETATM    8  C   UNL     1     -10.245  16.525  66.214  1.00  0.00    -0.343 A  
HETATM    9  C   UNL     1      -9.933  15.521  68.365  1.00  0.00    -0.214 A  
HETATM   10  C   UNL     1      -9.802  16.655  67.542  1.00  0.00    -0.253 A  
ENDROOT
BRANCH   3  11
HETATM   11  C   UNL     1     -11.552  10.896  67.967  1.00  0.00    -0.295 C  
BRANCH  11  12
HETATM   12  C   UNL     1     -10.338   9.967  67.838  1.00  0.00    -0.249 C  
BRANCH  12  13
HETATM   13  C   UNL     1     -10.497   8.943  66.721  1.00  0.00    -0.269 C  
HETATM   14  O   UNL     1      -9.136  10.085  65.107  1.00  0.00    -0.172 OA 
HETATM   15  O   UNL     1      -8.553   7.979  65.667  1.00  0.00    -0.146 OA 
HETATM   16  C   UNL     1      -9.299   8.938  65.800  1.00  0.00    -0.219 C  
ENDBRANCH  12  13
ENDBRANCH  11  12
ENDBRANCH   3  11
BRANCH  10  17
HETATM   17  N   UNL     1      -9.239  17.830  68.031  1.00  0.00    -0.266 NA 
BRANCH  17  18
HETATM   18  C   UNL     1      -7.808  17.957  68.363  1.00  0.00    -0.286 C  
HETATM   19 CL   UNL     1      -7.143  18.575  65.755  1.00  0.00    -0.286 Cl 
HETATM   20  C   UNL     1      -6.876  17.573  67.208  1.00  0.00    -0.166 C  
ENDBRANCH  17  18
BRANCH  17  21
HETATM   21  C   UNL     1     -10.107  18.973  68.388  1.00  0.00    -0.403 C  
HETATM   22 CL   UNL     1     -10.466  19.775  65.774  1.00  0.00    -0.600 Cl 
HETATM   23  C   UNL     1      -9.962  20.171  67.441  1.00  0.00    -0.430 C  
ENDBRANCH  17  21
ENDBRANCH  10  17
TORSDOF 6
ENDMDL
MODEL       67
REMARK 921   NORMALIZED FREE ENERGY PREDICTED BY IDOCK:   -5.11 KCAL/MOL
REMARK 922        TOTAL FREE ENERGY PREDICTED BY IDOCK:   -7.67 KCAL/MOL
REMARK 923 INTER-LIGAND FREE ENERGY PREDICTED BY IDOCK:   -6.77 KCAL/MOL
REMARK 924 INTRA-LIGAND FREE ENERGY PREDICTED BY IDOCK:   -0.91 KCAL/MOL
REMARK 927      BINDING AFFINITY PREDICTED BY RF-SCORE:    0.00 PKD
ROOT
HETATM    1  C   UNL     1      -9.835  16.309  68.850  1.00  0.00    -0.246 C  
HETATM    2  N   UNL     1     -10.501  15.033  68.987  1.00  0.00    -0.237 NA 
HETATM    3  C   UNL     1     -11.670  14.746  69.662  1.00  0.00    -0.314 A  
HETATM    4  C   UNL     1     -10.023  13.860  68.442  1.00  0.00    -0.233 A  
HETATM    5  N   UNL     1     -11.966  13.465  69.548  1.00  0.00    -0.323 NA 
HETATM    6  C   UNL     1      -8.897  13.531  67.682  1.00  0.00    -0.202 A  
HETATM    7  C   UNL     1     -10.954  12.906  68.814  1.00  0.00    -0.254 A  
HETATM    8  C   UNL     1      -8.750  12.181  67.302  1.00  0.00    -0.182 A  
HETATM    9  C   UNL     1     -10.773  11.571  68.428  1.00  0.00    -0.241 A  
HETATM   10  C   UNL     1      -9.673  11.177  67.643  1.00  0.00    -0.170 A  
ENDROOT
BRANCH   3  11
HETATM   11  C   UNL     1     -12.513  15.700  70.452  1.00  0.00    -0.409 C  
BRANCH  11  12
HETATM   12  C   UNL     1     -13.521  14.918  71.304  1.00  0.00    -0.500 C  
BRANCH  12  13
HETATM   13  C   UNL     1     -13.951  15.679  72.552  1.00  0.00    -0.615 C  
HETATM   14  O   UNL     1     -12.477  14.559  74.078  1.00  0.00    -0.403 OA 
HETATM   15  O   UNL     1     -12.312  16.802  73.918  1.00  0.00    -0.444 OA 
HETATM   16  C   UNL     1     -12.835  15.755  73.565  1.00  0.00    -0.584 C  
ENDBRANCH  12  13
ENDBRANCH  11  12
ENDBRANCH   3  11
BRANCH  10  17
HETATM   17  N   UNL     1      -9.536   9.858  67.218  1.00  0.00    -0.156 NA 
BRANCH  17  18
HETATM   18  C   UNL     1      -8.434   9.405  66.351  1.00  0.00    -0.126 C  
HETATM   19 CL   UNL     1      -9.564  10.568  64.116  1.00  0.00    -0.337 Cl 
HETATM   20  C   UNL     1      -8.867   9.127  64.907  1.00  0.00    -0.173 C  
ENDBRANCH  17  18
BRANCH  17  21
HETATM   21  C   UNL     1     -10.604   8.876  67.503  1.00  0.00    -0.237 C  
HETATM   22 CL   UNL     1      -9.804   8.463  70.109  1.00  0.00    -0.179 Cl 
HETATM   23  C   UNL     1     -10.185   7.789  68.500  1.00  0.00    -0.204 C  
ENDBRANCH  17  21
ENDBRANCH  10  17
TORSDOF 6
ENDMDL
MODEL       68
REMARK 921   NORMALIZED FREE ENERGY PREDICTED BY IDOCK:   -5.07 KCAL/MOL
REMARK 922        TOTAL FREE ENERGY PREDICTED BY IDOCK:   -7.63 KCAL/MOL
REMARK 923 INTER-LIGAND FREE ENERGY PREDICTED BY IDOCK:   -7.27 KCAL/MOL
REMARK 924 INTRA-LIGAND FREE ENERGY PREDICTED BY IDOCK:   -0.35 KCAL/MOL
REMARK 927      BINDING AFFINITY PREDICTED BY RF-SCORE:    0.00 PKD
ROOT
HETATM    1  C   UNL     1      -8.863  12.589  67.622  1.00  0.00    -0.179 C  
HETATM    2  N   UNL     1      -9.565  13.653  66.939  1.00  0.00    -0.254 NA 
HETATM    3  C   UNL     1     -10.767  13.591  66.266  1.00  0.00    -0.288 A  
HETATM    4  C   UNL     1      -9.092  14.946  66.852  1.00  0.00    -0.250 A  
HETATM    5  N   UNL     1     -11.089  14.777  65.785  1.00  0.00    -0.331 NA 
HETATM    6  C   UNL     1      -7.944  15.593  67.316  1.00  0.00    -0.227 A  
HETATM    7  C   UNL     1     -10.061  15.615  66.125  1.00  0.00    -0.313 A  
HETATM    8  C   UNL     1      -7.814  16.965  67.018  1.00  0.00    -0.232 A  
HETATM    9  C   UNL     1      -9.897  16.976  65.837  1.00  0.00    -0.202 A  
HETATM   10  C   UNL     1      -8.775  17.693  66.294  1.00  0.00    -0.179 A  
ENDROOT
BRANCH   3  11
HETATM   11  C   UNL     1     -11.619  12.377  66.052  1.00  0.00    -0.455 C  
BRANCH  11  12
HETATM   12  C   UNL     1     -11.704  12.060  64.553  1.00  0.00    -0.380 C  
BRANCH  12  13
HETATM   13  C   UNL     1     -10.334  11.971  63.892  1.00  0.00    -0.433 C  
HETATM   14  O   UNL     1      -9.508  10.149  65.218  1.00  0.00    -0.206 OA 
HETATM   15  O   UNL     1      -9.557   9.878  62.980  1.00  0.00    -0.204 OA 
HETATM   16  C   UNL     1      -9.775  10.569  63.964  1.00  0.00    -0.323 C  
ENDBRANCH  12  13
ENDBRANCH  11  12
ENDBRANCH   3  11
BRANCH  10  17
HETATM   17  N   UNL     1      -8.653  19.058  66.051  1.00  0.00    -0.465 NA 
BRANCH  17  18
HETATM   18  C   UNL     1      -7.362  19.710  65.765  1.00  0.00    -0.304 C  
HETATM   19 CL   UNL     1      -6.756  19.939  68.449  1.00  0.00    -0.322 Cl 
HETATM   20  C   UNL     1      -6.928  20.706  66.846  1.00  0.00    -0.298 C  
ENDBRANCH  17  18
BRANCH  17  21
HETATM   21  C   UNL     1      -9.822  19.947  66.227  1.00  0.00    -0.461 C  
HETATM   22 CL   UNL     1     -10.021  19.478  68.937  1.00  0.00    -0.530 Cl 
HETATM   23  C   UNL     1     -10.787  19.478  67.323  1.00  0.00    -0.437 C  
ENDBRANCH  17  21
ENDBRANCH  10  17
TORSDOF 6
ENDMDL
MODEL       69
REMARK 921   NORMALIZED FREE ENERGY PREDICTED BY IDOCK:   -5.07 KCAL/MOL
REMARK 922        TOTAL FREE ENERGY PREDICTED BY IDOCK:   -7.62 KCAL/MOL
REMARK 923 INTER-LIGAND FREE ENERGY PREDICTED BY IDOCK:   -6.96 KCAL/MOL
REMARK 924 INTRA-LIGAND FREE ENERGY PREDICTED BY IDOCK:   -0.66 KCAL/MOL
REMARK 927      BINDING AFFINITY PREDICTED BY RF-SCORE:    0.00 PKD
ROOT
HETATM    1  C   UNL     1      -6.716  16.836  68.095  1.00  0.00    -0.148 C  
HETATM    2  N   UNL     1      -8.128  16.552  67.966  1.00  0.00    -0.164 NA 
HETATM    3  C   UNL     1      -9.195  17.393  68.205  1.00  0.00    -0.271 A  
HETATM    4  C   UNL     1      -8.627  15.327  67.577  1.00  0.00    -0.177 A  
HETATM    5  N   UNL     1     -10.334  16.773  67.963  1.00  0.00    -0.302 NA 
HETATM    6  C   UNL     1      -8.042  14.107  67.225  1.00  0.00    -0.188 A  
HETATM    7  C   UNL     1     -10.001  15.498  67.591  1.00  0.00    -0.233 A  
HETATM    8  C   UNL     1      -8.913  13.054  66.876  1.00  0.00    -0.210 A  
HETATM    9  C   UNL     1     -10.838  14.429  67.248  1.00  0.00    -0.290 A  
HETATM   10  C   UNL     1     -10.313  13.180  66.862  1.00  0.00    -0.247 A  
ENDROOT
BRANCH   3  11
HETATM   11  C   UNL     1      -9.136  18.806  68.698  1.00  0.00    -0.366 C  
BRANCH  11  12
HETATM   12  C   UNL     1     -10.077  19.686  67.866  1.00  0.00    -0.543 C  
BRANCH  12  13
HETATM   13  C   UNL     1      -9.518  20.003  66.484  1.00  0.00    -0.518 C  
HETATM   14  O   UNL     1      -7.640  21.292  67.238  1.00  0.00    -0.408 OA 
HETATM   15  O   UNL     1      -7.223  19.486  65.953  1.00  0.00    -0.270 OA 
HETATM   16  C   UNL     1      -8.023  20.210  66.527  1.00  0.00    -0.278 C  
ENDBRANCH  12  13
ENDBRANCH  11  12
ENDBRANCH   3  11
BRANCH  10  17
HETATM   17  N   UNL     1     -11.154  12.144  66.468  1.00  0.00    -0.291 NA 
BRANCH  17  18
HETATM   18  C   UNL     1     -11.004  10.760  66.951  1.00  0.00    -0.190 C  
HETATM   19 CL   UNL     1     -11.963  11.412  69.457  1.00  0.00    -0.394 Cl 
HETATM   20  C   UNL     1     -10.692  10.666  68.449  1.00  0.00    -0.222 C  
ENDBRANCH  17  18
BRANCH  17  21
HETATM   21  C   UNL     1     -12.158  12.371  65.406  1.00  0.00    -0.365 C  
HETATM   22 CL   UNL     1     -10.463  11.614  63.366  1.00  0.00    -0.460 Cl 
HETATM   23  C   UNL     1     -11.548  12.841  64.079  1.00  0.00    -0.424 C  
ENDBRANCH  17  21
ENDBRANCH  10  17
TORSDOF 6
ENDMDL
MODEL       70
REMARK 921   NORMALIZED FREE ENERGY PREDICTED BY IDOCK:   -5.06 KCAL/MOL
REMARK 922        TOTAL FREE ENERGY PREDICTED BY IDOCK:   -7.61 KCAL/MOL
REMARK 923 INTER-LIGAND FREE ENERGY PREDICTED BY IDOCK:   -6.81 KCAL/MOL
REMARK 924 INTRA-LIGAND FREE ENERGY PREDICTED BY IDOCK:   -0.80 KCAL/MOL
REMARK 927      BINDING AFFINITY PREDICTED BY RF-SCORE:    0.00 PKD
ROOT
HETATM    1  C   UNL     1     -12.448  10.294  71.739  1.00  0.00    -0.335 C  
HETATM    2  N   UNL     1     -11.855  10.247  70.421  1.00  0.00    -0.289 NA 
HETATM    3  C   UNL     1     -11.240   9.182  69.797  1.00  0.00    -0.056 A  
HETATM    4  C   UNL     1     -11.808  11.329  69.566  1.00  0.00    -0.357 A  
HETATM    5  N   UNL     1     -10.834   9.526  68.589  1.00  0.00    -0.181 NA 
HETATM    6  C   UNL     1     -12.247  12.653  69.652  1.00  0.00    -0.177 A  
HETATM    7  C   UNL     1     -11.164  10.846  68.441  1.00  0.00    -0.285 A  
HETATM    8  C   UNL     1     -12.010  13.482  68.535  1.00  0.00    -0.379 A  
HETATM    9  C   UNL     1     -10.935  11.698  67.352  1.00  0.00    -0.313 A  
HETATM   10  C   UNL     1     -11.371  13.037  67.364  1.00  0.00    -0.305 A  
ENDROOT
BRANCH   3  11
HETATM   11  C   UNL     1     -11.008   7.815  70.365  1.00  0.00    -0.255 C  
BRANCH  11  12
HETATM   12  C   UNL     1      -9.555   7.690  70.841  1.00  0.00    -0.167 C  
BRANCH  12  13
HETATM   13  C   UNL     1      -9.256   8.563  72.053  1.00  0.00    -0.326 C  
HETATM   14  O   UNL     1     -10.745   7.447  73.569  1.00  0.00    -0.385 OA 
HETATM   15  O   UNL     1      -8.564   7.559  74.134  1.00  0.00    -0.194 OA 
HETATM   16  C   UNL     1      -9.463   7.806  73.344  1.00  0.00    -0.287 C  
ENDBRANCH  12  13
ENDBRANCH  11  12
ENDBRANCH   3  11
BRANCH  10  17
HETATM   17  N   UNL     1     -11.190  13.857  66.254  1.00  0.00    -0.305 NA 
BRANCH  17  18
HETATM   18  C   UNL     1     -12.288  14.235  65.347  1.00  0.00    -0.415 C  
HETATM   19 CL   UNL     1     -11.920  11.989  63.783  1.00  0.00    -0.569 Cl 
HETATM   20  C   UNL     1     -12.079  13.763  63.903  1.00  0.00    -0.376 C  
ENDBRANCH  17  18
BRANCH  17  21
HETATM   21  C   UNL     1      -9.826  14.260  65.849  1.00  0.00    -0.298 C  
HETATM   22 CL   UNL     1      -9.542  16.084  67.899  1.00  0.00    -0.218 Cl 
HETATM   23  C   UNL     1      -9.509  15.731  66.148  1.00  0.00    -0.340 C  
ENDBRANCH  17  21
ENDBRANCH  10  17
TORSDOF 6
ENDMDL
MODEL       71
REMARK 921   NORMALIZED FREE ENERGY PREDICTED BY IDOCK:   -5.06 KCAL/MOL
REMARK 922        TOTAL FREE ENERGY PREDICTED BY IDOCK:   -7.61 KCAL/MOL
REMARK 923 INTER-LIGAND FREE ENERGY PREDICTED BY IDOCK:   -6.76 KCAL/MOL
REMARK 924 INTRA-LIGAND FREE ENERGY PREDICTED BY IDOCK:   -0.84 KCAL/MOL
REMARK 927      BINDING AFFINITY PREDICTED BY RF-SCORE:    0.00 PKD
ROOT
HETATM    1  C   UNL     1      -8.963  14.110  67.757  1.00  0.00    -0.187 C  
HETATM    2  N   UNL     1      -9.903  13.012  67.731  1.00  0.00    -0.218 NA 
HETATM    3  C   UNL     1     -11.189  12.997  67.231  1.00  0.00    -0.289 A  
HETATM    4  C   UNL     1      -9.631  11.761  68.246  1.00  0.00    -0.199 A  
HETATM    5  N   UNL     1     -11.728  11.802  67.378  1.00  0.00    -0.588 NA 
HETATM    6  C   UNL     1      -8.523  11.193  68.882  1.00  0.00    -0.095 A  
HETATM    7  C   UNL     1     -10.787  11.038  68.014  1.00  0.00    -0.229 A  
HETATM    8  C   UNL     1      -8.630   9.843  69.275  1.00  0.00    -0.169 A  
HETATM    9  C   UNL     1     -10.864   9.700  68.425  1.00  0.00    -0.212 A  
HETATM   10  C   UNL     1      -9.777   9.061  69.051  1.00  0.00    -0.167 A  
ENDROOT
BRANCH   3  11
HETATM   11  C   UNL     1     -11.932  14.147  66.622  1.00  0.00    -0.470 C  
BRANCH  11  12
HETATM   12  C   UNL     1     -11.283  14.536  65.287  1.00  0.00    -0.352 C  
BRANCH  12  13
HETATM   13  C   UNL     1     -12.191  14.272  64.093  1.00  0.00    -0.410 C  
HETATM   14  O   UNL     1     -11.004  12.359  63.262  1.00  0.00    -0.438 OA 
HETATM   15  O   UNL     1     -13.184  12.097  63.775  1.00  0.00    -0.763 OA 
HETATM   16  C   UNL     1     -12.194  12.811  63.712  1.00  0.00    -0.489 C  
ENDBRANCH  12  13
ENDBRANCH  11  12
ENDBRANCH   3  11
BRANCH  10  17
HETATM   17  N   UNL     1      -9.846   7.716  69.401  1.00  0.00    -0.169 NA 
BRANCH  17  18
HETATM   18  C   UNL     1      -8.743   6.767  69.164  1.00  0.00    -0.131 C  
HETATM   19 CL   UNL     1      -9.339   6.574  66.475  1.00  0.00    -0.182 Cl 
HETATM   20  C   UNL     1      -9.028   5.768  68.037  1.00  0.00    -0.111 C  
ENDBRANCH  17  18
BRANCH  17  21
HETATM   21  C   UNL     1     -11.117   7.146  69.896  1.00  0.00    -0.235 C  
HETATM   22 CL   UNL     1     -10.981   8.439  72.328  1.00  0.00    -0.411 Cl 
HETATM   23  C   UNL     1     -11.135   6.914  71.413  1.00  0.00    -0.250 C  
ENDBRANCH  17  21
ENDBRANCH  10  17
TORSDOF 6
ENDMDL
MODEL       72
REMARK 921   NORMALIZED FREE ENERGY PREDICTED BY IDOCK:   -5.05 KCAL/MOL
REMARK 922        TOTAL FREE ENERGY PREDICTED BY IDOCK:   -7.60 KCAL/MOL
REMARK 923 INTER-LIGAND FREE ENERGY PREDICTED BY IDOCK:   -7.05 KCAL/MOL
REMARK 924 INTRA-LIGAND FREE ENERGY PREDICTED BY IDOCK:   -0.55 KCAL/MOL
REMARK 927      BINDING AFFINITY PREDICTED BY RF-SCORE:    0.00 PKD
ROOT
HETATM    1  C   UNL     1      -9.998   9.977  65.142  1.00  0.00    -0.280 C  
HETATM    2  N   UNL     1     -10.107  10.325  66.541  1.00  0.00    -0.222 NA 
HETATM    3  C   UNL     1     -10.003  11.571  67.124  1.00  0.00    -0.199 A  
HETATM    4  C   UNL     1     -10.328   9.402  67.542  1.00  0.00    -0.255 A  
HETATM    5  N   UNL     1     -10.173  11.486  68.430  1.00  0.00    -0.199 NA 
HETATM    6  C   UNL     1     -10.498   8.015  67.563  1.00  0.00    -0.331 A  
HETATM    7  C   UNL     1     -10.359  10.157  68.702  1.00  0.00    -0.188 A  
HETATM    8  C   UNL     1     -10.710   7.412  68.821  1.00  0.00    -0.145 A  
HETATM    9  C   UNL     1     -10.561   9.526  69.936  1.00  0.00    -0.269 A  
HETATM   10  C   UNL     1     -10.762   8.135  70.025  1.00  0.00    -0.243 A  
ENDROOT
BRANCH   3  11
HETATM   11  C   UNL     1      -9.711  12.868  66.433  1.00  0.00    -0.263 C  
BRANCH  11  12
HETATM   12  C   UNL     1     -10.987  13.717  66.362  1.00  0.00    -0.297 C  
BRANCH  12  13
HETATM   13  C   UNL     1     -12.192  12.926  65.870  1.00  0.00    -0.469 C  
HETATM   14  O   UNL     1     -12.713  14.350  64.010  1.00  0.00    -0.739 OA 
HETATM   15  O   UNL     1     -12.302  12.174  63.581  1.00  0.00    -0.517 OA 
HETATM   16  C   UNL     1     -12.393  13.092  64.382  1.00  0.00    -0.360 C  
ENDBRANCH  12  13
ENDBRANCH  11  12
ENDBRANCH   3  11
BRANCH  10  17
HETATM   17  N   UNL     1     -11.020   7.528  71.251  1.00  0.00    -0.240 NA 
BRANCH  17  18
HETATM   18  C   UNL     1     -11.547   8.263  72.415  1.00  0.00    -0.396 C  
HETATM   19 CL   UNL     1     -14.163   7.761  71.687  1.00  0.00    -0.537 Cl 
HETATM   20  C   UNL     1     -12.900   8.934  72.152  1.00  0.00    -0.409 C  
ENDBRANCH  17  18
BRANCH  17  21
HETATM   21  C   UNL     1     -10.618   6.124  71.479  1.00  0.00    -0.239 C  
HETATM   22 CL   UNL     1      -8.283   6.794  72.784  1.00  0.00    -0.110 Cl 
HETATM   23  C   UNL     1      -9.099   5.912  71.463  1.00  0.00    -0.143 C  
ENDBRANCH  17  21
ENDBRANCH  10  17
TORSDOF 6
ENDMDL
MODEL       73
REMARK 921   NORMALIZED FREE ENERGY PREDICTED BY IDOCK:   -5.04 KCAL/MOL
REMARK 922        TOTAL FREE ENERGY PREDICTED BY IDOCK:   -7.59 KCAL/MOL
REMARK 923 INTER-LIGAND FREE ENERGY PREDICTED BY IDOCK:   -6.71 KCAL/MOL
REMARK 924 INTRA-LIGAND FREE ENERGY PREDICTED BY IDOCK:   -0.88 KCAL/MOL
REMARK 927      BINDING AFFINITY PREDICTED BY RF-SCORE:    0.00 PKD
ROOT
HETATM    1  C   UNL     1      -9.134   6.433  66.504  1.00  0.00    -0.151 C  
HETATM    2  N   UNL     1      -9.767   7.463  67.296  1.00  0.00    -0.147 NA 
HETATM    3  C   UNL     1     -10.262   7.372  68.581  1.00  0.00    -0.191 A  
HETATM    4  C   UNL     1      -9.987   8.747  66.843  1.00  0.00    -0.257 A  
HETATM    5  N   UNL     1     -10.755   8.533  68.969  1.00  0.00    -0.151 NA 
HETATM    6  C   UNL     1      -9.722   9.412  65.642  1.00  0.00    -0.336 A  
HETATM    7  C   UNL     1     -10.606   9.382  67.905  1.00  0.00    -0.237 A  
HETATM    8  C   UNL     1     -10.108  10.766  65.558  1.00  0.00    -0.335 A  
HETATM    9  C   UNL     1     -10.986  10.726  67.786  1.00  0.00    -0.354 A  
HETATM   10  C   UNL     1     -10.728  11.459  66.612  1.00  0.00    -0.269 A  
ENDROOT
BRANCH   3  11
HETATM   11  C   UNL     1     -10.291   6.153  69.452  1.00  0.00    -0.283 C  
BRANCH  11  12
HETATM   12  C   UNL     1     -10.155   6.564  70.923  1.00  0.00    -0.210 C  
BRANCH  12  13
HETATM   13  C   UNL     1     -11.372   6.177  71.756  1.00  0.00    -0.346 C  
HETATM   14  O   UNL     1     -11.945   8.401  72.452  1.00  0.00    -0.372 OA 
HETATM   15  O   UNL     1     -13.509   7.214  71.342  1.00  0.00    -0.380 OA 
HETATM   16  C   UNL     1     -12.383   7.297  71.810  1.00  0.00    -0.341 C  
ENDBRANCH  12  13
ENDBRANCH  11  12
ENDBRANCH   3  11
BRANCH  10  17
HETATM   17  N   UNL     1     -11.058  12.809  66.528  1.00  0.00    -0.277 NA 
BRANCH  17  18
HETATM   18  C   UNL     1     -12.381  13.286  66.086  1.00  0.00    -0.358 C  
HETATM   19 CL   UNL     1     -11.761  12.889  63.425  1.00  0.00    -0.573 Cl 
HETATM   20  C   UNL     1     -12.358  13.970  64.715  1.00  0.00    -0.413 C  
ENDBRANCH  17  18
BRANCH  17  21
HETATM   21  C   UNL     1     -10.017  13.838  66.737  1.00  0.00    -0.270 C  
HETATM   22 CL   UNL     1     -10.694  14.274  69.374  1.00  0.00    -0.201 Cl 
HETATM   23  C   UNL     1     -10.426  14.929  67.734  1.00  0.00    -0.255 C  
ENDBRANCH  17  21
ENDBRANCH  10  17
TORSDOF 6
ENDMDL
MODEL       74
REMARK 921   NORMALIZED FREE ENERGY PREDICTED BY IDOCK:   -5.04 KCAL/MOL
REMARK 922        TOTAL FREE ENERGY PREDICTED BY IDOCK:   -7.59 KCAL/MOL
REMARK 923 INTER-LIGAND FREE ENERGY PREDICTED BY IDOCK:   -6.81 KCAL/MOL
REMARK 924 INTRA-LIGAND FREE ENERGY PREDICTED BY IDOCK:   -0.78 KCAL/MOL
REMARK 927      BINDING AFFINITY PREDICTED BY RF-SCORE:    0.00 PKD
ROOT
HETATM    1  C   UNL     1     -13.510   9.485  72.388  1.00  0.00    -0.393 C  
HETATM    2  N   UNL     1     -12.801  10.405  71.526  1.00  0.00    -0.426 NA 
HETATM    3  C   UNL     1     -12.935  11.775  71.442  1.00  0.00    -0.306 A  
HETATM    4  C   UNL     1     -11.851  10.011  70.607  1.00  0.00    -0.325 A  
HETATM    5  N   UNL     1     -12.104  12.266  70.543  1.00  0.00    -0.349 NA 
HETATM    6  C   UNL     1     -11.315   8.776  70.234  1.00  0.00    -0.162 A  
HETATM    7  C   UNL     1     -11.442  11.192  70.012  1.00  0.00    -0.292 A  
HETATM    8  C   UNL     1     -10.330   8.781  69.224  1.00  0.00    -0.221 A  
HETATM    9  C   UNL     1     -10.469  11.161  69.005  1.00  0.00    -0.233 A  
HETATM   10  C   UNL     1      -9.872   9.953  68.597  1.00  0.00    -0.158 A  
ENDROOT
BRANCH   3  11
HETATM   11  C   UNL     1     -13.889  12.637  72.213  1.00  0.00    -0.310 C  
BRANCH  11  12
HETATM   12  C   UNL     1     -13.449  14.104  72.126  1.00  0.00    -0.545 C  
BRANCH  12  13
HETATM   13  C   UNL     1     -12.499  14.501  73.248  1.00  0.00    -0.368 C  
HETATM   14  O   UNL     1     -11.904  16.648  72.358  1.00  0.00    -0.491 OA 
HETATM   15  O   UNL     1     -12.806  16.584  74.424  1.00  0.00    -0.691 OA 
HETATM   16  C   UNL     1     -12.436  16.000  73.416  1.00  0.00    -0.558 C  
ENDBRANCH  12  13
ENDBRANCH  11  12
ENDBRANCH   3  11
BRANCH  10  17
HETATM   17  N   UNL     1      -8.865   9.943  67.637  1.00  0.00    -0.125 NA 
BRANCH  17  18
HETATM   18  C   UNL     1      -8.500  11.131  66.844  1.00  0.00    -0.147 C  
HETATM   19 CL   UNL     1     -10.459  10.619  64.967  1.00  0.00    -0.336 Cl 
HETATM   20  C   UNL     1      -8.748  10.963  65.341  1.00  0.00    -0.155 C  
ENDBRANCH  17  18
BRANCH  17  21
HETATM   21  C   UNL     1      -8.215   8.669  67.262  1.00  0.00    -0.105 C  
HETATM   22 CL   UNL     1      -6.291   8.841  69.230  1.00  0.00    -0.041 Cl 
HETATM   23  C   UNL     1      -6.699   8.662  67.501  1.00  0.00    -0.066 C  
ENDBRANCH  17  21
ENDBRANCH  10  17
TORSDOF 6
ENDMDL
MODEL       75
REMARK 921   NORMALIZED FREE ENERGY PREDICTED BY IDOCK:   -5.03 KCAL/MOL
REMARK 922        TOTAL FREE ENERGY PREDICTED BY IDOCK:   -7.57 KCAL/MOL
REMARK 923 INTER-LIGAND FREE ENERGY PREDICTED BY IDOCK:   -6.73 KCAL/MOL
REMARK 924 INTRA-LIGAND FREE ENERGY PREDICTED BY IDOCK:   -0.84 KCAL/MOL
REMARK 927      BINDING AFFINITY PREDICTED BY RF-SCORE:    0.00 PKD
ROOT
HETATM    1  C   UNL     1     -11.958  12.947  69.313  1.00  0.00    -0.260 C  
HETATM    2  N   UNL     1     -12.283  11.946  70.304  1.00  0.00    -0.299 NA 
HETATM    3  C   UNL     1     -13.153  12.049  71.371  1.00  0.00    -0.197 A  
HETATM    4  C   UNL     1     -11.725  10.685  70.328  1.00  0.00    -0.344 A  
HETATM    5  N   UNL     1     -13.192  10.915  72.046  1.00  0.00    -0.458 NA 
HETATM    6  C   UNL     1     -10.788  10.023  69.529  1.00  0.00    -0.283 A  
HETATM    7  C   UNL     1     -12.308  10.074  71.424  1.00  0.00    -0.415 A  
HETATM    8  C   UNL     1     -10.463   8.697  69.884  1.00  0.00    -0.221 A  
HETATM    9  C   UNL     1     -11.956   8.759  71.755  1.00  0.00    -0.418 A  
HETATM   10  C   UNL     1     -11.036   8.028  70.979  1.00  0.00    -0.253 A  
ENDROOT
BRANCH   3  11
HETATM   11  C   UNL     1     -13.946  13.254  71.775  1.00  0.00    -0.042 C  
BRANCH  11  12
HETATM   12  C   UNL     1     -13.194  14.028  72.865  1.00  0.00    -0.502 C  
BRANCH  12  13
HETATM   13  C   UNL     1     -13.049  15.510  72.541  1.00  0.00    -0.537 C  
HETATM   14  O   UNL     1     -10.894  15.353  71.498  1.00  0.00    -0.243 OA 
HETATM   15  O   UNL     1     -12.585  16.222  70.284  1.00  0.00    -0.023 OA 
HETATM   16  C   UNL     1     -12.179  15.728  71.326  1.00  0.00    -0.438 C  
ENDBRANCH  12  13
ENDBRANCH  11  12
ENDBRANCH   3  11
BRANCH  10  17
HETATM   17  N   UNL     1     -10.740   6.702  71.285  1.00  0.00    -0.226 NA 
BRANCH  17  18
HETATM   18  C   UNL     1      -9.584   5.986  70.715  1.00  0.00    -0.169 C  
HETATM   19 CL   UNL     1     -10.810   5.735  68.254  1.00  0.00    -0.292 Cl 
HETATM   20  C   UNL     1      -9.967   4.973  69.631  1.00  0.00    -0.241 C  
ENDBRANCH  17  18
BRANCH  17  21
HETATM   21  C   UNL     1     -11.685   5.902  72.092  1.00  0.00    -0.227 C  
HETATM   22 CL   UNL     1     -10.288   6.256  74.443  1.00  0.00    -0.324 Cl 
HETATM   23  C   UNL     1     -11.016   5.147  73.248  1.00  0.00    -0.314 C  
ENDBRANCH  17  21
ENDBRANCH  10  17
TORSDOF 6
ENDMDL
MODEL       76
REMARK 921   NORMALIZED FREE ENERGY PREDICTED BY IDOCK:   -5.01 KCAL/MOL
REMARK 922        TOTAL FREE ENERGY PREDICTED BY IDOCK:   -7.54 KCAL/MOL
REMARK 923 INTER-LIGAND FREE ENERGY PREDICTED BY IDOCK:   -6.74 KCAL/MOL
REMARK 924 INTRA-LIGAND FREE ENERGY PREDICTED BY IDOCK:   -0.79 KCAL/MOL
REMARK 927      BINDING AFFINITY PREDICTED BY RF-SCORE:    0.00 PKD
ROOT
HETATM    1  C   UNL     1     -11.839  12.265  63.740  1.00  0.00    -0.498 C  
HETATM    2  N   UNL     1     -10.875  12.560  64.777  1.00  0.00    -0.286 NA 
HETATM    3  C   UNL     1     -10.123  11.676  65.523  1.00  0.00    -0.246 A  
HETATM    4  C   UNL     1     -10.571  13.839  65.194  1.00  0.00    -0.374 A  
HETATM    5  N   UNL     1      -9.345  12.329  66.365  1.00  0.00    -0.226 NA 
HETATM    6  C   UNL     1     -11.015  15.112  64.825  1.00  0.00    -0.394 A  
HETATM    7  C   UNL     1      -9.621  13.658  66.184  1.00  0.00    -0.209 A  
HETATM    8  C   UNL     1     -10.448  16.212  65.502  1.00  0.00    -0.407 A  
HETATM    9  C   UNL     1      -9.085  14.772  66.844  1.00  0.00    -0.268 A  
HETATM   10  C   UNL     1      -9.472  16.082  66.506  1.00  0.00    -0.271 A  
ENDROOT
BRANCH   3  11
HETATM   11  C   UNL     1     -10.160  10.180  65.455  1.00  0.00    -0.338 C  
BRANCH  11  12
HETATM   12  C   UNL     1     -10.620   9.611  66.804  1.00  0.00    -0.209 C  
BRANCH  12  13
HETATM   13  C   UNL     1      -9.677   8.542  67.343  1.00  0.00    -0.222 C  
HETATM   14  O   UNL     1     -11.180   6.690  67.072  1.00  0.00    -0.404 OA 
HETATM   15  O   UNL     1      -9.183   6.581  66.029  1.00  0.00    -0.136 OA 
HETATM   16  C   UNL     1      -9.971   7.189  66.737  1.00  0.00    -0.208 C  
ENDBRANCH  12  13
ENDBRANCH  11  12
ENDBRANCH   3  11
BRANCH  10  17
HETATM   17  N   UNL     1      -8.889  17.182  67.129  1.00  0.00    -0.215 NA 
BRANCH  17  18
HETATM   18  C   UNL     1      -9.394  17.749  68.392  1.00  0.00    -0.294 C  
HETATM   19 CL   UNL     1     -11.010  19.553  67.067  1.00  0.00    -0.537 Cl 
HETATM   20  C   UNL     1      -9.753  19.236  68.294  1.00  0.00    -0.385 C  
ENDBRANCH  17  18
BRANCH  17  21
HETATM   21  C   UNL     1      -7.811  17.931  66.448  1.00  0.00    -0.272 C  
HETATM   22 CL   UNL     1      -5.809  16.264  67.353  1.00  0.00    -0.183 Cl 
HETATM   23  C   UNL     1      -6.479  17.913  67.209  1.00  0.00    -0.164 C  
ENDBRANCH  17  21
ENDBRANCH  10  17
TORSDOF 6
ENDMDL
MODEL       77
REMARK 921   NORMALIZED FREE ENERGY PREDICTED BY IDOCK:   -4.99 KCAL/MOL
REMARK 922        TOTAL FREE ENERGY PREDICTED BY IDOCK:   -7.52 KCAL/MOL
REMARK 923 INTER-LIGAND FREE ENERGY PREDICTED BY IDOCK:   -7.64 KCAL/MOL
REMARK 924 INTRA-LIGAND FREE ENERGY PREDICTED BY IDOCK:    0.12 KCAL/MOL
REMARK 927      BINDING AFFINITY PREDICTED BY RF-SCORE:    0.00 PKD
ROOT
HETATM    1  C   UNL     1     -13.712  13.696  72.484  1.00  0.00    -0.558 C  
HETATM    2  N   UNL     1     -12.901  13.275  71.362  1.00  0.00    -0.356 NA 
HETATM    3  C   UNL     1     -12.589  11.991  70.965  1.00  0.00    -0.273 A  
HETATM    4  C   UNL     1     -12.284  14.153  70.496  1.00  0.00    -0.361 A  
HETATM    5  N   UNL     1     -11.833  12.013  69.884  1.00  0.00    -0.337 NA 
HETATM    6  C   UNL     1     -12.225  15.546  70.404  1.00  0.00    -0.443 A  
HETATM    7  C   UNL     1     -11.626  13.335  69.593  1.00  0.00    -0.261 A  
HETATM    8  C   UNL     1     -11.468  16.089  69.344  1.00  0.00    -0.336 A  
HETATM    9  C   UNL     1     -10.874  13.907  68.558  1.00  0.00    -0.274 A  
HETATM   10  C   UNL     1     -10.792  15.303  68.395  1.00  0.00    -0.257 A  
ENDROOT
BRANCH   3  11
HETATM   11  C   UNL     1     -12.994  10.716  71.639  1.00  0.00    -0.582 C  
BRANCH  11  12
HETATM   12  C   UNL     1     -12.189   9.545  71.061  1.00  0.00    -0.385 C  
BRANCH  12  13
HETATM   13  C   UNL     1     -11.527   8.697  72.140  1.00  0.00    -0.443 C  
HETATM   14  O   UNL     1      -9.836   7.735  70.735  1.00  0.00    -0.180 OA 
HETATM   15  O   UNL     1      -9.158   8.885  72.553  1.00  0.00    -0.349 OA 
HETATM   16  C   UNL     1     -10.063   8.469  71.844  1.00  0.00    -0.297 C  
ENDBRANCH  12  13
ENDBRANCH  11  12
ENDBRANCH   3  11
BRANCH  10  17
HETATM   17  N   UNL     1     -10.090  15.856  67.328  1.00  0.00    -0.255 NA 
BRANCH  17  18
HETATM   18  C   UNL     1      -8.845  15.273  66.797  1.00  0.00    -0.271 C  
HETATM   19 CL   UNL     1      -7.541  15.578  69.212  1.00  0.00    -0.205 Cl 
HETATM   20  C   UNL     1      -7.578  15.841  67.447  1.00  0.00    -0.191 C  
ENDBRANCH  17  18
BRANCH  17  21
HETATM   21  C   UNL     1     -10.497  17.166  66.777  1.00  0.00    -0.263 C  
HETATM   22 CL   UNL     1      -8.788  18.603  68.396  1.00  0.00    -0.355 Cl 
HETATM   23  C   UNL     1     -10.447  18.305  67.804  1.00  0.00    -0.410 C  
ENDBRANCH  17  21
ENDBRANCH  10  17
TORSDOF 6
ENDMDL
MODEL       78
REMARK 921   NORMALIZED FREE ENERGY PREDICTED BY IDOCK:   -4.99 KCAL/MOL
REMARK 922        TOTAL FREE ENERGY PREDICTED BY IDOCK:   -7.51 KCAL/MOL
REMARK 923 INTER-LIGAND FREE ENERGY PREDICTED BY IDOCK:   -6.45 KCAL/MOL
REMARK 924 INTRA-LIGAND FREE ENERGY PREDICTED BY IDOCK:   -1.06 KCAL/MOL
REMARK 927      BINDING AFFINITY PREDICTED BY RF-SCORE:    0.00 PKD
ROOT
HETATM    1  C   UNL     1      -5.653  16.928  68.417  1.00  0.00    -0.130 C  
HETATM    2  N   UNL     1      -7.089  16.864  68.260  1.00  0.00    -0.173 NA 
HETATM    3  C   UNL     1      -8.012  17.880  68.405  1.00  0.00    -0.298 A  
HETATM    4  C   UNL     1      -7.771  15.709  67.940  1.00  0.00    -0.131 A  
HETATM    5  N   UNL     1      -9.231  17.433  68.168  1.00  0.00    -0.263 NA 
HETATM    6  C   UNL     1      -7.383  14.389  67.693  1.00  0.00    -0.197 A  
HETATM    7  C   UNL     1      -9.099  16.098  67.896  1.00  0.00    -0.192 A  
HETATM    8  C   UNL     1      -8.404  13.465  67.388  1.00  0.00    -0.193 A  
HETATM    9  C   UNL     1     -10.090  15.153  67.600  1.00  0.00    -0.231 A  
HETATM   10  C   UNL     1      -9.765  13.812  67.318  1.00  0.00    -0.242 A  
ENDROOT
BRANCH   3  11
HETATM   11  C   UNL     1      -7.737  19.298  68.801  1.00  0.00    -0.397 C  
BRANCH  11  12
HETATM   12  C   UNL     1      -7.885  20.216  67.581  1.00  0.00    -0.335 C  
BRANCH  12  13
HETATM   13  C   UNL     1      -6.587  20.368  66.799  1.00  0.00    -0.278 C  
HETATM   14  O   UNL     1      -6.983  18.574  65.256  1.00  0.00    -0.527 OA 
HETATM   15  O   UNL     1      -6.633  20.631  64.402  1.00  0.00    -0.309 OA 
HETATM   16  C   UNL     1      -6.741  19.896  65.373  1.00  0.00    -0.295 C  
ENDBRANCH  12  13
ENDBRANCH  11  12
ENDBRANCH   3  11
BRANCH  10  17
HETATM   17  N   UNL     1     -10.753  12.896  66.968  1.00  0.00    -0.255 NA 
BRANCH  17  18
HETATM   18  C   UNL     1     -10.830  12.267  65.637  1.00  0.00    -0.285 C  
HETATM   19 CL   UNL     1     -12.394  14.312  64.638  1.00  0.00    -0.451 Cl 
HETATM   20  C   UNL     1     -12.139  12.564  64.896  1.00  0.00    -0.440 C  
ENDBRANCH  17  18
BRANCH  17  21
HETATM   21  C   UNL     1     -11.877  12.634  67.893  1.00  0.00    -0.332 C  
HETATM   22 CL   UNL     1     -10.419  10.932  69.500  1.00  0.00    -0.214 Cl 
HETATM   23  C   UNL     1     -11.862  11.220  68.488  1.00  0.00    -0.285 C  
ENDBRANCH  17  21
ENDBRANCH  10  17
TORSDOF 6
ENDMDL
MODEL       79
REMARK 921   NORMALIZED FREE ENERGY PREDICTED BY IDOCK:   -4.98 KCAL/MOL
REMARK 922        TOTAL FREE ENERGY PREDICTED BY IDOCK:   -7.50 KCAL/MOL
REMARK 923 INTER-LIGAND FREE ENERGY PREDICTED BY IDOCK:   -6.94 KCAL/MOL
REMARK 924 INTRA-LIGAND FREE ENERGY PREDICTED BY IDOCK:   -0.57 KCAL/MOL
REMARK 927      BINDING AFFINITY PREDICTED BY RF-SCORE:    0.00 PKD
ROOT
HETATM    1  C   UNL     1      -8.336  11.286  67.389  1.00  0.00    -0.137 C  
HETATM    2  N   UNL     1      -8.660  12.674  67.143  1.00  0.00    -0.196 NA 
HETATM    3  C   UNL     1      -9.825  13.202  66.626  1.00  0.00    -0.261 A  
HETATM    4  C   UNL     1      -7.793  13.716  67.395  1.00  0.00    -0.149 A  
HETATM    5  N   UNL     1      -9.748  14.518  66.564  1.00  0.00    -0.273 NA 
HETATM    6  C   UNL     1      -6.491  13.797  67.896  1.00  0.00    -0.165 A  
HETATM    7  C   UNL     1      -8.499  14.846  67.019  1.00  0.00    -0.231 A  
HETATM    8  C   UNL     1      -5.924  15.083  68.011  1.00  0.00    -0.157 A  
HETATM    9  C   UNL     1      -7.903  16.108  67.136  1.00  0.00    -0.234 A  
HETATM   10  C   UNL     1      -6.604  16.261  67.655  1.00  0.00    -0.148 A  
ENDROOT
BRANCH   3  11
HETATM   11  C   UNL     1     -11.029  12.442  66.156  1.00  0.00    -0.321 C  
BRANCH  11  12
HETATM   12  C   UNL     1     -10.671  11.622  64.911  1.00  0.00    -0.352 C  
BRANCH  12  13
HETATM   13  C   UNL     1     -10.843  12.410  63.618  1.00  0.00    -0.509 C  
HETATM   14  O   UNL     1     -13.202  12.039  63.382  1.00  0.00    -0.687 OA 
HETATM   15  O   UNL     1     -12.481  14.174  63.476  1.00  0.00    -0.817 OA 
HETATM   16  C   UNL     1     -12.238  12.976  63.496  1.00  0.00    -0.501 C  
ENDBRANCH  12  13
ENDBRANCH  11  12
ENDBRANCH   3  11
BRANCH  10  17
HETATM   17  N   UNL     1      -6.046  17.526  67.820  1.00  0.00    -0.150 NA 
BRANCH  17  18
HETATM   18  C   UNL     1      -5.143  18.141  66.830  1.00  0.00    -0.122 C  
HETATM   19 CL   UNL     1      -7.214  19.513  65.627  1.00  0.00    -0.312 Cl 
HETATM   20  C   UNL     1      -5.813  18.417  65.480  1.00  0.00    -0.224 C  
ENDBRANCH  17  18
BRANCH  17  21
HETATM   21  C   UNL     1      -6.223  18.250  69.097  1.00  0.00    -0.244 C  
HETATM   22 CL   UNL     1      -8.854  18.902  68.593  1.00  0.00    -0.382 Cl 
HETATM   23  C   UNL     1      -7.198  19.430  69.002  1.00  0.00    -0.362 C  
ENDBRANCH  17  21
ENDBRANCH  10  17
TORSDOF 6
ENDMDL
MODEL       80
REMARK 921   NORMALIZED FREE ENERGY PREDICTED BY IDOCK:   -4.95 KCAL/MOL
REMARK 922        TOTAL FREE ENERGY PREDICTED BY IDOCK:   -7.46 KCAL/MOL
REMARK 923 INTER-LIGAND FREE ENERGY PREDICTED BY IDOCK:   -6.76 KCAL/MOL
REMARK 924 INTRA-LIGAND FREE ENERGY PREDICTED BY IDOCK:   -0.70 KCAL/MOL
REMARK 927      BINDING AFFINITY PREDICTED BY RF-SCORE:    0.00 PKD
ROOT
HETATM    1  C   UNL     1      -8.888  12.164  66.970  1.00  0.00    -0.203 C  
HETATM    2  N   UNL     1      -9.908  11.982  67.978  1.00  0.00    -0.193 NA 
HETATM    3  C   UNL     1     -11.048  12.731  68.188  1.00  0.00    -0.256 A  
HETATM    4  C   UNL     1      -9.870  10.985  68.931  1.00  0.00    -0.177 A  
HETATM    5  N   UNL     1     -11.740  12.244  69.200  1.00  0.00    -0.309 NA 
HETATM    6  C   UNL     1      -8.972   9.955  69.223  1.00  0.00    -0.184 A  
HETATM    7  C   UNL     1     -11.021  11.181  69.676  1.00  0.00    -0.192 A  
HETATM    8  C   UNL     1      -9.290   9.113  70.309  1.00  0.00    -0.253 A  
HETATM    9  C   UNL     1     -11.302  10.333  70.755  1.00  0.00    -0.421 A  
HETATM   10  C   UNL     1     -10.451   9.262  71.088  1.00  0.00    -0.331 A  
ENDROOT
BRANCH   3  11
HETATM   11  C   UNL     1     -11.479  13.949  67.429  1.00  0.00    -0.374 C  
BRANCH  11  12
HETATM   12  C   UNL     1     -12.648  13.595  66.501  1.00  0.00    -0.225 C  
BRANCH  12  13
HETATM   13  C   UNL     1     -12.307  13.779  65.028  1.00  0.00    -0.456 C  
HETATM   14  O   UNL     1     -11.379  11.593  64.686  1.00  0.00    -0.291 OA 
HETATM   15  O   UNL     1     -13.116  12.208  63.386  1.00  0.00    -0.752 OA 
HETATM   16  C   UNL     1     -12.330  12.463  64.286  1.00  0.00    -0.455 C  
ENDBRANCH  12  13
ENDBRANCH  11  12
ENDBRANCH   3  11
BRANCH  10  17
HETATM   17  N   UNL     1     -10.772   8.392  72.126  1.00  0.00    -0.312 NA 
BRANCH  17  18
HETATM   18  C   UNL     1      -9.829   8.045  73.204  1.00  0.00    -0.262 C  
HETATM   19 CL   UNL     1      -8.773   5.945  71.755  1.00  0.00    -0.138 Cl 
HETATM   20  C   UNL     1      -9.499   6.549  73.269  1.00  0.00    -0.143 C  
ENDBRANCH  17  18
BRANCH  17  21
HETATM   21  C   UNL     1     -12.051   7.650  72.098  1.00  0.00    -0.286 C  
HETATM   22 CL   UNL     1     -11.370   6.168  69.874  1.00  0.00    -0.491 Cl 
HETATM   23  C   UNL     1     -12.511   7.278  70.682  1.00  0.00    -0.055 C  
ENDBRANCH  17  21
ENDBRANCH  10  17
TORSDOF 6
ENDMDL
MODEL       81
REMARK 921   NORMALIZED FREE ENERGY PREDICTED BY IDOCK:   -4.94 KCAL/MOL
REMARK 922        TOTAL FREE ENERGY PREDICTED BY IDOCK:   -7.45 KCAL/MOL
REMARK 923 INTER-LIGAND FREE ENERGY PREDICTED BY IDOCK:   -6.67 KCAL/MOL
REMARK 924 INTRA-LIGAND FREE ENERGY PREDICTED BY IDOCK:   -0.77 KCAL/MOL
REMARK 927      BINDING AFFINITY PREDICTED BY RF-SCORE:    0.00 PKD
ROOT
HETATM    1  C   UNL     1     -10.808  11.536  65.692  1.00  0.00    -0.252 C  
HETATM    2  N   UNL     1     -11.250  11.845  67.034  1.00  0.00    -0.304 NA 
HETATM    3  C   UNL     1     -11.765  13.032  67.513  1.00  0.00    -0.370 A  
HETATM    4  C   UNL     1     -11.199  10.947  68.079  1.00  0.00    -0.314 A  
HETATM    5  N   UNL     1     -12.066  12.920  68.793  1.00  0.00    -0.226 NA 
HETATM    6  C   UNL     1     -10.768   9.623  68.202  1.00  0.00    -0.266 A  
HETATM    7  C   UNL     1     -11.709  11.650  69.157  1.00  0.00    -0.326 A  
HETATM    8  C   UNL     1     -10.880   9.026  69.475  1.00  0.00    -0.177 A  
HETATM    9  C   UNL     1     -11.798  11.030  70.411  1.00  0.00    -0.460 A  
HETATM   10  C   UNL     1     -11.402   9.692  70.598  1.00  0.00    -0.312 A  
ENDROOT
BRANCH   3  11
HETATM   11  C   UNL     1     -11.955  14.306  66.750  1.00  0.00    -0.462 C  
BRANCH  11  12
HETATM   12  C   UNL     1     -10.627  15.072  66.680  1.00  0.00    -0.301 C  
BRANCH  12  13
HETATM   13  C   UNL     1      -9.862  15.042  67.997  1.00  0.00    -0.218 C  
HETATM   14  O   UNL     1      -8.212  13.437  67.319  1.00  0.00    -0.175 OA 
HETATM   15  O   UNL     1      -7.485  15.450  68.032  1.00  0.00    -0.116 OA 
HETATM   16  C   UNL     1      -8.409  14.689  67.784  1.00  0.00    -0.162 C  
ENDBRANCH  12  13
ENDBRANCH  11  12
ENDBRANCH   3  11
BRANCH  10  17
HETATM   17  N   UNL     1     -11.550   9.071  71.835  1.00  0.00    -0.365 NA 
BRANCH  17  18
HETATM   18  C   UNL     1     -12.776   9.177  72.646  1.00  0.00    -0.184 C  
HETATM   19 CL   UNL     1     -13.954   7.044  71.347  1.00  0.00    -0.387 Cl 
HETATM   20  C   UNL     1     -14.042   8.739  71.900  1.00  0.00    -0.420 C  
ENDBRANCH  17  18
BRANCH  17  21
HETATM   21  C   UNL     1     -10.395   8.392  72.463  1.00  0.00    -0.301 C  
HETATM   22 CL   UNL     1     -10.916   5.964  71.264  1.00  0.00    -0.333 Cl 
HETATM   23  C   UNL     1     -10.644   6.907  72.756  1.00  0.00    -0.240 C  
ENDBRANCH  17  21
ENDBRANCH  10  17
TORSDOF 6
ENDMDL
MODEL       82
REMARK 921   NORMALIZED FREE ENERGY PREDICTED BY IDOCK:   -4.94 KCAL/MOL
REMARK 922        TOTAL FREE ENERGY PREDICTED BY IDOCK:   -7.44 KCAL/MOL
REMARK 923 INTER-LIGAND FREE ENERGY PREDICTED BY IDOCK:   -7.13 KCAL/MOL
REMARK 924 INTRA-LIGAND FREE ENERGY PREDICTED BY IDOCK:   -0.31 KCAL/MOL
REMARK 927      BINDING AFFINITY PREDICTED BY RF-SCORE:    0.00 PKD
ROOT
HETATM    1  C   UNL     1      -7.337  17.280  68.924  1.00  0.00    -0.243 C  
HETATM    2  N   UNL     1      -8.644  16.934  68.413  1.00  0.00    -0.231 NA 
HETATM    3  C   UNL     1      -9.754  17.744  68.281  1.00  0.00    -0.320 A  
HETATM    4  C   UNL     1      -8.983  15.671  67.976  1.00  0.00    -0.178 A  
HETATM    5  N   UNL     1     -10.760  17.067  67.761  1.00  0.00    -0.342 NA 
HETATM    6  C   UNL     1      -8.295  14.457  67.886  1.00  0.00    -0.162 A  
HETATM    7  C   UNL     1     -10.305  15.788  67.583  1.00  0.00    -0.281 A  
HETATM    8  C   UNL     1      -9.003  13.353  67.369  1.00  0.00    -0.215 A  
HETATM    9  C   UNL     1     -10.983  14.669  67.083  1.00  0.00    -0.316 A  
HETATM   10  C   UNL     1     -10.342  13.423  66.945  1.00  0.00    -0.257 A  
ENDROOT
BRANCH   3  11
HETATM   11  C   UNL     1      -9.871  19.184  68.678  1.00  0.00    -0.485 C  
BRANCH  11  12
HETATM   12  C   UNL     1      -8.989  20.047  67.768  1.00  0.00    -0.396 C  
BRANCH  12  13
HETATM   13  C   UNL     1      -8.969  19.553  66.327  1.00  0.00    -0.400 C  
HETATM   14  O   UNL     1      -6.810  20.436  65.764  1.00  0.00    -0.256 OA 
HETATM   15  O   UNL     1      -7.129  18.216  65.523  1.00  0.00    -0.522 OA 
HETATM   16  C   UNL     1      -7.558  19.315  65.843  1.00  0.00    -0.245 C  
ENDBRANCH  12  13
ENDBRANCH  11  12
ENDBRANCH   3  11
BRANCH  10  17
HETATM   17  N   UNL     1     -11.010  12.334  66.392  1.00  0.00    -0.274 NA 
BRANCH  17  18
HETATM   18  C   UNL     1     -12.072  12.473  65.379  1.00  0.00    -0.435 C  
HETATM   19 CL   UNL     1     -10.340  11.858  63.318  1.00  0.00    -0.454 Cl 
HETATM   20  C   UNL     1     -11.558  12.959  64.019  1.00  0.00    -0.426 C  
ENDBRANCH  17  18
BRANCH  17  21
HETATM   21  C   UNL     1     -10.778  10.976  66.929  1.00  0.00    -0.274 C  
HETATM   22 CL   UNL     1      -8.518  10.545  65.410  1.00  0.00    -0.168 Cl 
HETATM   23  C   UNL     1     -10.147  10.016  65.912  1.00  0.00    -0.249 C  
ENDBRANCH  17  21
ENDBRANCH  10  17
TORSDOF 6
ENDMDL
MODEL       83
REMARK 921   NORMALIZED FREE ENERGY PREDICTED BY IDOCK:   -4.92 KCAL/MOL
REMARK 922        TOTAL FREE ENERGY PREDICTED BY IDOCK:   -7.42 KCAL/MOL
REMARK 923 INTER-LIGAND FREE ENERGY PREDICTED BY IDOCK:   -6.71 KCAL/MOL
REMARK 924 INTRA-LIGAND FREE ENERGY PREDICTED BY IDOCK:   -0.70 KCAL/MOL
REMARK 927      BINDING AFFINITY PREDICTED BY RF-SCORE:    0.00 PKD
ROOT
HETATM    1  C   UNL     1     -12.715  12.004  70.865  1.00  0.00    -0.199 C  
HETATM    2  N   UNL     1     -11.835  11.140  70.110  1.00  0.00    -0.336 NA 
HETATM    3  C   UNL     1     -11.310  11.342  68.850  1.00  0.00    -0.275 A  
HETATM    4  C   UNL     1     -11.386   9.919  70.569  1.00  0.00    -0.327 A  
HETATM    5  N   UNL     1     -10.537  10.330  68.504  1.00  0.00    -0.200 NA 
HETATM    6  C   UNL     1     -11.590   9.188  71.743  1.00  0.00    -0.457 A  
HETATM    7  C   UNL     1     -10.587   9.442  69.545  1.00  0.00    -0.222 A  
HETATM    8  C   UNL     1     -10.940   7.941  71.846  1.00  0.00    -0.308 A  
HETATM    9  C   UNL     1      -9.963   8.194  69.674  1.00  0.00    -0.193 A  
HETATM   10  C   UNL     1     -10.108   7.418  70.840  1.00  0.00    -0.188 A  
ENDROOT
BRANCH   3  11
HETATM   11  C   UNL     1     -11.566  12.507  67.944  1.00  0.00    -0.403 C  
BRANCH  11  12
HETATM   12  C   UNL     1     -11.370  12.081  66.483  1.00  0.00    -0.413 C  
BRANCH  12  13
HETATM   13  C   UNL     1     -12.068  13.012  65.500  1.00  0.00    -0.501 C  
HETATM   14  O   UNL     1     -11.049  12.129  63.515  1.00  0.00    -0.415 OA 
HETATM   15  O   UNL     1     -13.301  12.110  63.634  1.00  0.00    -0.678 OA 
HETATM   16  C   UNL     1     -12.220  12.370  64.142  1.00  0.00    -0.468 C  
ENDBRANCH  12  13
ENDBRANCH  11  12
ENDBRANCH   3  11
BRANCH  10  17
HETATM   17  N   UNL     1      -9.435   6.207  70.979  1.00  0.00    -0.170 NA 
BRANCH  17  18
HETATM   18  C   UNL     1      -7.989   6.119  71.250  1.00  0.00    -0.113 C  
HETATM   19 CL   UNL     1      -7.384   5.939  68.562  1.00  0.00    -0.083 Cl 
HETATM   20  C   UNL     1      -7.224   5.286  70.215  1.00  0.00    -0.062 C  
ENDBRANCH  17  18
BRANCH  17  21
HETATM   21  C   UNL     1     -10.138   4.936  70.701  1.00  0.00    -0.236 C  
HETATM   22 CL   UNL     1     -11.067   4.654  73.283  1.00  0.00    -0.374 Cl 
HETATM   23  C   UNL     1     -10.164   3.977  71.899  1.00  0.00    -0.089 C  
ENDBRANCH  17  21
ENDBRANCH  10  17
TORSDOF 6
ENDMDL
MODEL       84
REMARK 921   NORMALIZED FREE ENERGY PREDICTED BY IDOCK:   -4.90 KCAL/MOL
REMARK 922        TOTAL FREE ENERGY PREDICTED BY IDOCK:   -7.40 KCAL/MOL
REMARK 923 INTER-LIGAND FREE ENERGY PREDICTED BY IDOCK:   -6.44 KCAL/MOL
REMARK 924 INTRA-LIGAND FREE ENERGY PREDICTED BY IDOCK:   -0.96 KCAL/MOL
REMARK 927      BINDING AFFINITY PREDICTED BY RF-SCORE:    0.00 PKD
ROOT
HETATM    1  C   UNL     1     -13.321   9.568  72.354  1.00  0.00    -0.384 C  
HETATM    2  N   UNL     1     -12.050   9.544  71.664  1.00  0.00    -0.378 NA 
HETATM    3  C   UNL     1     -10.965   8.724  71.897  1.00  0.00    -0.365 A  
HETATM    4  C   UNL     1     -11.727  10.397  70.630  1.00  0.00    -0.351 A  
HETATM    5  N   UNL     1      -9.991   8.996  71.051  1.00  0.00    -0.253 NA 
HETATM    6  C   UNL     1     -12.403  11.432  69.977  1.00  0.00    -0.311 A  
HETATM    7  C   UNL     1     -10.440  10.032  70.276  1.00  0.00    -0.272 A  
HETATM    8  C   UNL     1     -11.719  12.090  68.934  1.00  0.00    -0.383 A  
HETATM    9  C   UNL     1      -9.785  10.712  69.241  1.00  0.00    -0.181 A  
HETATM   10  C   UNL     1     -10.417  11.749  68.528  1.00  0.00    -0.215 A  
ENDROOT
BRANCH   3  11
HETATM   11  C   UNL     1     -10.839   7.677  72.961  1.00  0.00    -0.457 C  
BRANCH  11  12
HETATM   12  C   UNL     1      -9.895   6.565  72.486  1.00  0.00    -0.176 C  
BRANCH  12  13
HETATM   13  C   UNL     1     -10.640   5.323  72.013  1.00  0.00    -0.279 C  
HETATM   14  O   UNL     1     -11.117   6.116  69.799  1.00  0.00    -0.351 OA 
HETATM   15  O   UNL     1      -9.960   4.190  69.995  1.00  0.00    -0.213 OA 
HETATM   16  C   UNL     1     -10.521   5.142  70.518  1.00  0.00    -0.208 C  
ENDBRANCH  12  13
ENDBRANCH  11  12
ENDBRANCH   3  11
BRANCH  10  17
HETATM   17  N   UNL     1      -9.776  12.377  67.464  1.00  0.00    -0.189 NA 
BRANCH  17  18
HETATM   18  C   UNL     1      -8.489  13.082  67.605  1.00  0.00    -0.187 C  
HETATM   19 CL   UNL     1      -9.708  15.329  68.649  1.00  0.00    -0.205 Cl 
HETATM   20  C   UNL     1      -8.606  14.602  67.448  1.00  0.00    -0.199 C  
ENDBRANCH  17  18
BRANCH  17  21
HETATM   21  C   UNL     1     -10.457  12.492  66.157  1.00  0.00    -0.249 C  
HETATM   22 CL   UNL     1     -10.016   9.858  65.470  1.00  0.00    -0.382 Cl 
HETATM   23  C   UNL     1      -9.854  11.591  65.071  1.00  0.00    -0.257 C  
ENDBRANCH  17  21
ENDBRANCH  10  17
TORSDOF 6
ENDMDL
MODEL       85
REMARK 921   NORMALIZED FREE ENERGY PREDICTED BY IDOCK:   -4.90 KCAL/MOL
REMARK 922        TOTAL FREE ENERGY PREDICTED BY IDOCK:   -7.39 KCAL/MOL
REMARK 923 INTER-LIGAND FREE ENERGY PREDICTED BY IDOCK:   -6.53 KCAL/MOL
REMARK 924 INTRA-LIGAND FREE ENERGY PREDICTED BY IDOCK:   -0.86 KCAL/MOL
REMARK 927      BINDING AFFINITY PREDICTED BY RF-SCORE:    0.00 PKD
ROOT
HETATM    1  C   UNL     1     -14.337   8.688  72.322  1.00  0.00    -0.396 C  
HETATM    2  N   UNL     1     -13.130   9.140  71.668  1.00  0.00    -0.349 NA 
HETATM    3  C   UNL     1     -12.683  10.434  71.494  1.00  0.00    -0.459 A  
HETATM    4  C   UNL     1     -12.215   8.290  71.082  1.00  0.00    -0.233 A  
HETATM    5  N   UNL     1     -11.527  10.442  70.858  1.00  0.00    -0.340 NA 
HETATM    6  C   UNL     1     -12.138   6.903  70.930  1.00  0.00    -0.424 A  
HETATM    7  C   UNL     1     -11.236   9.132  70.585  1.00  0.00    -0.270 A  
HETATM    8  C   UNL     1     -11.012   6.392  70.251  1.00  0.00    -0.378 A  
HETATM    9  C   UNL     1     -10.135   8.593  69.906  1.00  0.00    -0.197 A  
HETATM   10  C   UNL     1      -9.985   7.203  69.738  1.00  0.00    -0.178 A  
ENDROOT
BRANCH   3  11
HETATM   11  C   UNL     1     -13.377  11.692  71.920  1.00  0.00    -0.403 C  
BRANCH  11  12
HETATM   12  C   UNL     1     -12.563  12.911  71.468  1.00  0.00    -0.269 C  
BRANCH  12  13
HETATM   13  C   UNL     1     -13.316  14.223  71.655  1.00  0.00    -0.442 C  
HETATM   14  O   UNL     1     -12.516  14.684  73.870  1.00  0.00    -0.452 OA 
HETATM   15  O   UNL     1     -12.129  16.229  72.274  1.00  0.00    -0.504 OA 
HETATM   16  C   UNL     1     -12.590  15.146  72.605  1.00  0.00    -0.375 C  
ENDBRANCH  12  13
ENDBRANCH  11  12
ENDBRANCH   3  11
BRANCH  10  17
HETATM   17  N   UNL     1      -8.857   6.678  69.114  1.00  0.00    -0.129 NA 
BRANCH  17  18
HETATM   18  C   UNL     1      -7.496   6.825  69.659  1.00  0.00    -0.096 C  
HETATM   19 CL   UNL     1      -7.957   4.939  71.622  1.00  0.00    -0.108 Cl 
HETATM   20  C   UNL     1      -7.412   6.578  71.169  1.00  0.00    -0.085 C  
ENDBRANCH  17  18
BRANCH  17  21
HETATM   21  C   UNL     1      -8.973   6.072  67.770  1.00  0.00    -0.111 C  
HETATM   22 CL   UNL     1      -9.370   3.520  68.736  1.00  0.00    -0.227 Cl 
HETATM   23  C   UNL     1      -8.439   4.636  67.698  1.00  0.00    -0.103 C  
ENDBRANCH  17  21
ENDBRANCH  10  17
TORSDOF 6
ENDMDL
MODEL       86
REMARK 921   NORMALIZED FREE ENERGY PREDICTED BY IDOCK:   -4.90 KCAL/MOL
REMARK 922        TOTAL FREE ENERGY PREDICTED BY IDOCK:   -7.39 KCAL/MOL
REMARK 923 INTER-LIGAND FREE ENERGY PREDICTED BY IDOCK:   -6.53 KCAL/MOL
REMARK 924 INTRA-LIGAND FREE ENERGY PREDICTED BY IDOCK:   -0.85 KCAL/MOL
REMARK 927      BINDING AFFINITY PREDICTED BY RF-SCORE:    0.00 PKD
ROOT
HETATM    1  C   UNL     1     -14.337   8.688  72.322  1.00  0.00    -0.396 C  
HETATM    2  N   UNL     1     -13.130   9.140  71.668  1.00  0.00    -0.349 NA 
HETATM    3  C   UNL     1     -12.683  10.434  71.494  1.00  0.00    -0.459 A  
HETATM    4  C   UNL     1     -12.215   8.290  71.082  1.00  0.00    -0.233 A  
HETATM    5  N   UNL     1     -11.527  10.442  70.858  1.00  0.00    -0.340 NA 
HETATM    6  C   UNL     1     -12.138   6.903  70.930  1.00  0.00    -0.424 A  
HETATM    7  C   UNL     1     -11.236   9.132  70.585  1.00  0.00    -0.270 A  
HETATM    8  C   UNL     1     -11.012   6.392  70.251  1.00  0.00    -0.378 A  
HETATM    9  C   UNL     1     -10.135   8.593  69.906  1.00  0.00    -0.197 A  
HETATM   10  C   UNL     1      -9.985   7.203  69.738  1.00  0.00    -0.178 A  
ENDROOT
BRANCH   3  11
HETATM   11  C   UNL     1     -13.377  11.692  71.920  1.00  0.00    -0.403 C  
BRANCH  11  12
HETATM   12  C   UNL     1     -12.563  12.911  71.468  1.00  0.00    -0.269 C  
BRANCH  12  13
HETATM   13  C   UNL     1     -13.316  14.223  71.655  1.00  0.00    -0.442 C  
HETATM   14  O   UNL     1     -12.516  14.684  73.870  1.00  0.00    -0.452 OA 
HETATM   15  O   UNL     1     -12.129  16.229  72.274  1.00  0.00    -0.504 OA 
HETATM   16  C   UNL     1     -12.590  15.146  72.605  1.00  0.00    -0.375 C  
ENDBRANCH  12  13
ENDBRANCH  11  12
ENDBRANCH   3  11
BRANCH  10  17
HETATM   17  N   UNL     1      -8.857   6.678  69.114  1.00  0.00    -0.129 NA 
BRANCH  17  18
HETATM   18  C   UNL     1      -8.924   5.872  67.881  1.00  0.00    -0.111 C  
HETATM   19 CL   UNL     1      -9.423   8.095  66.322  1.00  0.00    -0.271 Cl 
HETATM   20  C   UNL     1      -9.879   6.445  66.828  1.00  0.00    -0.162 C  
ENDBRANCH  17  18
BRANCH  17  21
HETATM   21  C   UNL     1      -7.535   6.784  69.767  1.00  0.00    -0.091 C  
HETATM   22 CL   UNL     1      -6.878   9.145  68.503  1.00  0.00    -0.062 Cl 
HETATM   23  C   UNL     1      -6.469   7.450  68.886  1.00  0.00    -0.040 C  
ENDBRANCH  17  21
ENDBRANCH  10  17
TORSDOF 6
ENDMDL
MODEL       87
REMARK 921   NORMALIZED FREE ENERGY PREDICTED BY IDOCK:   -4.89 KCAL/MOL
REMARK 922        TOTAL FREE ENERGY PREDICTED BY IDOCK:   -7.38 KCAL/MOL
REMARK 923 INTER-LIGAND FREE ENERGY PREDICTED BY IDOCK:   -6.44 KCAL/MOL
REMARK 924 INTRA-LIGAND FREE ENERGY PREDICTED BY IDOCK:   -0.94 KCAL/MOL
REMARK 927      BINDING AFFINITY PREDICTED BY RF-SCORE:    0.00 PKD
ROOT
HETATM    1  C   UNL     1     -12.385   8.411  72.115  1.00  0.00    -0.370 C  
HETATM    2  N   UNL     1     -11.731   8.789  70.882  1.00  0.00    -0.279 NA 
HETATM    3  C   UNL     1     -11.021   7.990  70.010  1.00  0.00    -0.202 A  
HETATM    4  C   UNL     1     -11.716  10.078  70.391  1.00  0.00    -0.286 A  
HETATM    5  N   UNL     1     -10.585   8.699  68.986  1.00  0.00    -0.198 NA 
HETATM    6  C   UNL     1     -12.241  11.294  70.837  1.00  0.00    -0.460 A  
HETATM    7  C   UNL     1     -10.991   9.986  69.215  1.00  0.00    -0.228 A  
HETATM    8  C   UNL     1     -12.008  12.429  70.033  1.00  0.00    -0.372 A  
HETATM    9  C   UNL     1     -10.769  11.135  68.444  1.00  0.00    -0.234 A  
HETATM   10  C   UNL     1     -11.290  12.386  68.825  1.00  0.00    -0.293 A  
ENDROOT
BRANCH   3  11
HETATM   11  C   UNL     1     -10.729   6.529  70.161  1.00  0.00    -0.305 C  
BRANCH  11  12
HETATM   12  C   UNL     1      -9.421   6.339  70.940  1.00  0.00    -0.185 C  
BRANCH  12  13
HETATM   13  C   UNL     1      -9.501   5.207  71.957  1.00  0.00    -0.182 C  
HETATM   14  O   UNL     1      -9.727   6.598  73.899  1.00  0.00    -0.192 OA 
HETATM   15  O   UNL     1     -11.351   5.085  73.499  1.00  0.00    -0.319 OA 
HETATM   16  C   UNL     1     -10.297   5.612  73.174  1.00  0.00    -0.203 C  
ENDBRANCH  12  13
ENDBRANCH  11  12
ENDBRANCH   3  11
BRANCH  10  17
HETATM   17  N   UNL     1     -11.111  13.508  68.021  1.00  0.00    -0.250 NA 
BRANCH  17  18
HETATM   18  C   UNL     1      -9.903  14.350  68.074  1.00  0.00    -0.221 C  
HETATM   19 CL   UNL     1     -11.015  16.021  69.971  1.00  0.00    -0.340 Cl 
HETATM   20  C   UNL     1     -10.195  15.820  68.397  1.00  0.00    -0.223 C  
ENDBRANCH  17  18
BRANCH  17  21
HETATM   21  C   UNL     1     -12.222  13.993  67.173  1.00  0.00    -0.321 C  
HETATM   22 CL   UNL     1     -11.784  12.131  65.187  1.00  0.00    -0.391 Cl 
HETATM   23  C   UNL     1     -11.955  13.841  65.670  1.00  0.00    -0.388 C  
ENDBRANCH  17  21
ENDBRANCH  10  17
TORSDOF 6
ENDMDL
MODEL       88
REMARK 921   NORMALIZED FREE ENERGY PREDICTED BY IDOCK:   -4.89 KCAL/MOL
REMARK 922        TOTAL FREE ENERGY PREDICTED BY IDOCK:   -7.38 KCAL/MOL
REMARK 923 INTER-LIGAND FREE ENERGY PREDICTED BY IDOCK:   -6.86 KCAL/MOL
REMARK 924 INTRA-LIGAND FREE ENERGY PREDICTED BY IDOCK:   -0.52 KCAL/MOL
REMARK 927      BINDING AFFINITY PREDICTED BY RF-SCORE:    0.00 PKD
ROOT
HETATM    1  C   UNL     1      -6.141  17.036  68.021  1.00  0.00    -0.133 C  
HETATM    2  N   UNL     1      -7.587  17.049  67.984  1.00  0.00    -0.177 NA 
HETATM    3  C   UNL     1      -8.443  18.077  68.322  1.00  0.00    -0.287 A  
HETATM    4  C   UNL     1      -8.349  15.966  67.598  1.00  0.00    -0.152 A  
HETATM    5  N   UNL     1      -9.698  17.710  68.143  1.00  0.00    -0.296 NA 
HETATM    6  C   UNL     1      -8.049  14.669  67.172  1.00  0.00    -0.213 A  
HETATM    7  C   UNL     1      -9.655  16.411  67.713  1.00  0.00    -0.231 A  
HETATM    8  C   UNL     1      -9.136  13.828  66.856  1.00  0.00    -0.253 A  
HETATM    9  C   UNL     1     -10.713  15.547  67.401  1.00  0.00    -0.301 A  
HETATM   10  C   UNL     1     -10.479  14.235  66.945  1.00  0.00    -0.272 A  
ENDROOT
BRANCH   3  11
HETATM   11  C   UNL     1      -8.066  19.428  68.848  1.00  0.00    -0.344 C  
BRANCH  11  12
HETATM   12  C   UNL     1      -7.256  20.189  67.791  1.00  0.00    -0.329 C  
BRANCH  12  13
HETATM   13  C   UNL     1      -7.784  19.974  66.378  1.00  0.00    -0.324 C  
HETATM   14  O   UNL     1      -5.936  20.993  65.236  1.00  0.00    -0.238 OA 
HETATM   15  O   UNL     1      -6.428  18.851  64.730  1.00  0.00    -0.504 OA 
HETATM   16  C   UNL     1      -6.658  19.861  65.378  1.00  0.00    -0.280 C  
ENDBRANCH  12  13
ENDBRANCH  11  12
ENDBRANCH   3  11
BRANCH  10  17
HETATM   17  N   UNL     1     -11.538  13.407  66.583  1.00  0.00    -0.344 NA 
BRANCH  17  18
HETATM   18  C   UNL     1     -11.584  11.971  66.914  1.00  0.00    -0.318 C  
HETATM   19 CL   UNL     1     -12.347  12.483  69.518  1.00  0.00    -0.093 Cl 
HETATM   20  C   UNL     1     -11.240  11.671  68.378  1.00  0.00    -0.249 C  
ENDBRANCH  17  18
BRANCH  17  21
HETATM   21  C   UNL     1     -12.606  13.918  65.697  1.00  0.00    -0.517 C  
HETATM   22 CL   UNL     1     -11.605  12.685  63.444  1.00  0.00    -0.563 Cl 
HETATM   23  C   UNL     1     -12.137  14.181  64.261  1.00  0.00    -0.444 C  
ENDBRANCH  17  21
ENDBRANCH  10  17
TORSDOF 6
ENDMDL
MODEL       89
REMARK 921   NORMALIZED FREE ENERGY PREDICTED BY IDOCK:   -4.88 KCAL/MOL
REMARK 922        TOTAL FREE ENERGY PREDICTED BY IDOCK:   -7.37 KCAL/MOL
REMARK 923 INTER-LIGAND FREE ENERGY PREDICTED BY IDOCK:   -6.41 KCAL/MOL
REMARK 924 INTRA-LIGAND FREE ENERGY PREDICTED BY IDOCK:   -0.97 KCAL/MOL
REMARK 927      BINDING AFFINITY PREDICTED BY RF-SCORE:    0.00 PKD
ROOT
HETATM    1  C   UNL     1      -8.017   9.158  70.725  1.00  0.00    -0.163 C  
HETATM    2  N   UNL     1      -9.011   9.193  69.675  1.00  0.00    -0.147 NA 
HETATM    3  C   UNL     1      -9.868   8.189  69.275  1.00  0.00    -0.182 A  
HETATM    4  C   UNL     1      -9.239  10.294  68.877  1.00  0.00    -0.175 A  
HETATM    5  N   UNL     1     -10.640   8.607  68.289  1.00  0.00    -0.173 NA 
HETATM    6  C   UNL     1      -8.679  11.573  68.802  1.00  0.00    -0.048 A  
HETATM    7  C   UNL     1     -10.253   9.893  68.024  1.00  0.00    -0.182 A  
HETATM    8  C   UNL     1      -9.196  12.445  67.822  1.00  0.00    -0.193 A  
HETATM    9  C   UNL     1     -10.737  10.781  67.055  1.00  0.00    -0.320 A  
HETATM   10  C   UNL     1     -10.233  12.091  66.942  1.00  0.00    -0.208 A  
ENDROOT
BRANCH   3  11
HETATM   11  C   UNL     1      -9.943   6.796  69.821  1.00  0.00    -0.189 C  
BRANCH  11  12
HETATM   12  C   UNL     1     -11.405   6.335  69.870  1.00  0.00    -0.504 C  
BRANCH  12  13
HETATM   13  C   UNL     1     -12.186   6.976  71.011  1.00  0.00    -0.419 C  
HETATM   14  O   UNL     1     -11.418   5.493  72.735  1.00  0.00    -0.303 OA 
HETATM   15  O   UNL     1     -11.046   7.700  73.009  1.00  0.00    -0.387 OA 
HETATM   16  C   UNL     1     -11.488   6.780  72.337  1.00  0.00    -0.264 C  
ENDBRANCH  12  13
ENDBRANCH  11  12
ENDBRANCH   3  11
BRANCH  10  17
HETATM   17  N   UNL     1     -10.763  12.982  66.013  1.00  0.00    -0.272 NA 
BRANCH  17  18
HETATM   18  C   UNL     1     -11.955  12.680  65.200  1.00  0.00    -0.428 C  
HETATM   19 CL   UNL     1     -10.499  11.132  63.437  1.00  0.00    -0.416 Cl 
HETATM   20  C   UNL     1     -11.645  12.473  63.714  1.00  0.00    -0.475 C  
ENDBRANCH  17  18
BRANCH  17  21
HETATM   21  C   UNL     1     -10.040  14.231  65.692  1.00  0.00    -0.341 C  
HETATM   22 CL   UNL     1     -11.115  15.633  67.810  1.00  0.00    -0.320 Cl 
HETATM   23  C   UNL     1     -10.822  15.501  66.053  1.00  0.00    -0.300 C  
ENDBRANCH  17  21
ENDBRANCH  10  17
TORSDOF 6
ENDMDL
MODEL       90
REMARK 921   NORMALIZED FREE ENERGY PREDICTED BY IDOCK:   -4.86 KCAL/MOL
REMARK 922        TOTAL FREE ENERGY PREDICTED BY IDOCK:   -7.34 KCAL/MOL
REMARK 923 INTER-LIGAND FREE ENERGY PREDICTED BY IDOCK:   -6.60 KCAL/MOL
REMARK 924 INTRA-LIGAND FREE ENERGY PREDICTED BY IDOCK:   -0.75 KCAL/MOL
REMARK 927      BINDING AFFINITY PREDICTED BY RF-SCORE:    0.00 PKD
ROOT
HETATM    1  C   UNL     1      -7.985  11.559  66.927  1.00  0.00    -0.164 C  
HETATM    2  N   UNL     1      -9.283  11.133  67.400  1.00  0.00    -0.152 NA 
HETATM    3  C   UNL     1     -10.516  11.336  66.815  1.00  0.00    -0.248 A  
HETATM    4  C   UNL     1      -9.477  10.440  68.577  1.00  0.00    -0.159 A  
HETATM    5  N   UNL     1     -11.469  10.786  67.543  1.00  0.00    -0.487 NA 
HETATM    6  C   UNL     1      -8.624   9.974  69.580  1.00  0.00    -0.198 A  
HETATM    7  C   UNL     1     -10.846  10.245  68.636  1.00  0.00    -0.234 A  
HETATM    8  C   UNL     1      -9.217   9.287  70.660  1.00  0.00    -0.321 A  
HETATM    9  C   UNL     1     -11.404   9.567  69.727  1.00  0.00    -0.117 A  
HETATM   10  C   UNL     1     -10.599   9.052  70.761  1.00  0.00    -0.240 A  
ENDROOT
BRANCH   3  11
HETATM   11  C   UNL     1     -10.801  12.087  65.550  1.00  0.00    -0.336 C  
BRANCH  11  12
HETATM   12  C   UNL     1     -12.121  12.856  65.690  1.00  0.00    -0.511 C  
BRANCH  12  13
HETATM   13  C   UNL     1     -11.914  14.320  66.058  1.00  0.00    -0.412 C  
HETATM   14  O   UNL     1     -12.347  14.078  68.406  1.00  0.00    -0.254 OA 
HETATM   15  O   UNL     1     -10.351  14.930  67.791  1.00  0.00    -0.241 OA 
HETATM   16  C   UNL     1     -11.442  14.471  67.485  1.00  0.00    -0.356 C  
ENDBRANCH  12  13
ENDBRANCH  11  12
ENDBRANCH   3  11
BRANCH  10  17
HETATM   17  N   UNL     1     -11.161   8.329  71.810  1.00  0.00    -0.261 NA 
BRANCH  17  18
HETATM   18  C   UNL     1     -10.356   7.698  72.872  1.00  0.00    -0.322 C  
HETATM   19 CL   UNL     1      -9.960   5.415  71.370  1.00  0.00    -0.231 Cl 
HETATM   20  C   UNL     1     -10.476   6.170  72.903  1.00  0.00    -0.217 C  
ENDBRANCH  17  18
BRANCH  17  21
HETATM   21  C   UNL     1     -12.610   8.032  71.810  1.00  0.00    -0.325 C  
HETATM   22 CL   UNL     1     -13.352  10.669  72.132  1.00  0.00    -0.470 Cl 
HETATM   23  C   UNL     1     -13.427   8.977  72.700  1.00  0.00    -0.342 C  
ENDBRANCH  17  21
ENDBRANCH  10  17
TORSDOF 6
ENDMDL
MODEL       91
REMARK 921   NORMALIZED FREE ENERGY PREDICTED BY IDOCK:   -4.86 KCAL/MOL
REMARK 922        TOTAL FREE ENERGY PREDICTED BY IDOCK:   -7.34 KCAL/MOL
REMARK 923 INTER-LIGAND FREE ENERGY PREDICTED BY IDOCK:   -6.64 KCAL/MOL
REMARK 924 INTRA-LIGAND FREE ENERGY PREDICTED BY IDOCK:   -0.69 KCAL/MOL
REMARK 927      BINDING AFFINITY PREDICTED BY RF-SCORE:    0.00 PKD
ROOT
HETATM    1  C   UNL     1     -11.282  11.553  64.298  1.00  0.00    -0.283 C  
HETATM    2  N   UNL     1     -11.073  11.501  65.728  1.00  0.00    -0.255 NA 
HETATM    3  C   UNL     1     -10.515  10.485  66.475  1.00  0.00    -0.212 A  
HETATM    4  C   UNL     1     -11.438  12.515  66.589  1.00  0.00    -0.359 A  
HETATM    5  N   UNL     1     -10.484  10.814  67.753  1.00  0.00    -0.195 NA 
HETATM    6  C   UNL     1     -12.047  13.761  66.419  1.00  0.00    -0.483 A  
HETATM    7  C   UNL     1     -11.062  12.052  67.839  1.00  0.00    -0.236 A  
HETATM    8  C   UNL     1     -12.260  14.536  67.578  1.00  0.00    -0.156 A  
HETATM    9  C   UNL     1     -11.296  12.843  68.971  1.00  0.00    -0.341 A  
HETATM   10  C   UNL     1     -11.885  14.118  68.867  1.00  0.00    -0.347 A  
ENDROOT
BRANCH   3  11
HETATM   11  C   UNL     1     -10.023   9.162  65.973  1.00  0.00    -0.293 C  
BRANCH  11  12
HETATM   12  C   UNL     1      -9.833   8.197  67.150  1.00  0.00    -0.281 C  
BRANCH  12  13
HETATM   13  C   UNL     1     -10.898   7.109  67.196  1.00  0.00    -0.403 C  
HETATM   14  O   UNL     1      -9.721   5.635  68.680  1.00  0.00    -0.124 OA 
HETATM   15  O   UNL     1     -11.767   6.344  69.312  1.00  0.00    -0.277 OA 
HETATM   16  C   UNL     1     -10.854   6.346  68.499  1.00  0.00    -0.314 C  
ENDBRANCH  12  13
ENDBRANCH  11  12
ENDBRANCH   3  11
BRANCH  10  17
HETATM   17  N   UNL     1     -12.059  14.917  69.994  1.00  0.00    -0.319 NA 
BRANCH  17  18
HETATM   18  C   UNL     1     -13.384  15.342  70.480  1.00  0.00    -0.164 C  
HETATM   19 CL   UNL     1     -13.148  13.834  72.781  1.00  0.00    -0.507 Cl 
HETATM   20  C   UNL     1     -14.091  14.282  71.333  1.00  0.00    -0.244 C  
ENDBRANCH  17  18
BRANCH  17  21
HETATM   21  C   UNL     1     -10.883  15.508  70.668  1.00  0.00    -0.303 C  
HETATM   22 CL   UNL     1     -10.505  17.446  68.743  1.00  0.00    -0.351 Cl 
HETATM   23  C   UNL     1      -9.847  16.086  69.695  1.00  0.00    -0.196 C  
ENDBRANCH  17  21
ENDBRANCH  10  17
TORSDOF 6
ENDMDL
MODEL       92
REMARK 921   NORMALIZED FREE ENERGY PREDICTED BY IDOCK:   -4.84 KCAL/MOL
REMARK 922        TOTAL FREE ENERGY PREDICTED BY IDOCK:   -7.31 KCAL/MOL
REMARK 923 INTER-LIGAND FREE ENERGY PREDICTED BY IDOCK:   -6.32 KCAL/MOL
REMARK 924 INTRA-LIGAND FREE ENERGY PREDICTED BY IDOCK:   -0.99 KCAL/MOL
REMARK 927      BINDING AFFINITY PREDICTED BY RF-SCORE:    0.00 PKD
ROOT
HETATM    1  C   UNL     1      -6.724  10.022  69.997  1.00  0.00    -0.112 C  
HETATM    2  N   UNL     1      -8.112  10.238  69.656  1.00  0.00    -0.166 NA 
HETATM    3  C   UNL     1      -9.212   9.493  70.030  1.00  0.00    -0.234 A  
HETATM    4  C   UNL     1      -8.549  11.270  68.853  1.00  0.00    -0.051 A  
HETATM    5  N   UNL     1     -10.315  10.014  69.530  1.00  0.00    -0.219 NA 
HETATM    6  C   UNL     1      -7.909  12.315  68.180  1.00  0.00    -0.148 A  
HETATM    7  C   UNL     1      -9.921  11.098  68.792  1.00  0.00    -0.198 A  
HETATM    8  C   UNL     1      -8.723  13.196  67.438  1.00  0.00    -0.206 A  
HETATM    9  C   UNL     1     -10.700  11.985  68.037  1.00  0.00    -0.244 A  
HETATM   10  C   UNL     1     -10.121  13.072  67.355  1.00  0.00    -0.231 A  
ENDROOT
BRANCH   3  11
HETATM   11  C   UNL     1      -9.214   8.245  70.860  1.00  0.00    -0.182 C  
BRANCH  11  12
HETATM   12  C   UNL     1      -9.807   8.543  72.243  1.00  0.00    -0.383 C  
BRANCH  12  13
HETATM   13  C   UNL     1     -10.973   7.627  72.593  1.00  0.00    -0.405 C  
HETATM   14  O   UNL     1     -12.695   9.287  72.393  1.00  0.00    -0.370 OA 
HETATM   15  O   UNL     1     -12.864   7.442  71.107  1.00  0.00    -0.326 OA 
HETATM   16  C   UNL     1     -12.255   8.092  71.945  1.00  0.00    -0.319 C  
ENDBRANCH  12  13
ENDBRANCH  11  12
ENDBRANCH   3  11
BRANCH  10  17
HETATM   17  N   UNL     1     -10.913  13.980  66.657  1.00  0.00    -0.297 NA 
BRANCH  17  18
HETATM   18  C   UNL     1     -10.611  14.416  65.281  1.00  0.00    -0.382 C  
HETATM   19 CL   UNL     1     -12.091  12.359  64.185  1.00  0.00    -0.501 Cl 
HETATM   20  C   UNL     1     -10.555  13.263  64.273  1.00  0.00    -0.384 C  
ENDBRANCH  17  18
BRANCH  17  21
HETATM   21  C   UNL     1     -12.025  14.671  67.344  1.00  0.00    -0.279 C  
HETATM   22 CL   UNL     1     -10.471  16.805  68.140  1.00  0.00    -0.315 Cl 
HETATM   23  C   UNL     1     -11.579  15.474  68.573  1.00  0.00    -0.368 C  
ENDBRANCH  17  21
ENDBRANCH  10  17
TORSDOF 6
ENDMDL
MODEL       93
REMARK 921   NORMALIZED FREE ENERGY PREDICTED BY IDOCK:   -4.83 KCAL/MOL
REMARK 922        TOTAL FREE ENERGY PREDICTED BY IDOCK:   -7.29 KCAL/MOL
REMARK 923 INTER-LIGAND FREE ENERGY PREDICTED BY IDOCK:   -6.55 KCAL/MOL
REMARK 924 INTRA-LIGAND FREE ENERGY PREDICTED BY IDOCK:   -0.75 KCAL/MOL
REMARK 927      BINDING AFFINITY PREDICTED BY RF-SCORE:    0.00 PKD
ROOT
HETATM    1  C   UNL     1     -11.722  12.743  63.356  1.00  0.00    -0.488 C  
HETATM    2  N   UNL     1     -10.950  12.932  64.564  1.00  0.00    -0.330 NA 
HETATM    3  C   UNL     1     -10.357  11.973  65.359  1.00  0.00    -0.266 A  
HETATM    4  C   UNL     1     -10.700  14.167  65.124  1.00  0.00    -0.388 A  
HETATM    5  N   UNL     1      -9.727  12.538  66.371  1.00  0.00    -0.246 NA 
HETATM    6  C   UNL     1     -11.049  15.477  64.784  1.00  0.00    -0.421 A  
HETATM    7  C   UNL     1      -9.942  13.884  66.247  1.00  0.00    -0.306 A  
HETATM    8  C   UNL     1     -10.590  16.506  65.632  1.00  0.00    -0.317 A  
HETATM    9  C   UNL     1      -9.510  14.929  67.075  1.00  0.00    -0.239 A  
HETATM   10  C   UNL     1      -9.807  16.273  66.776  1.00  0.00    -0.245 A  
ENDROOT
BRANCH   3  11
HETATM   11  C   UNL     1     -10.409  10.487  65.171  1.00  0.00    -0.310 C  
BRANCH  11  12
HETATM   12  C   UNL     1      -9.463   9.805  66.167  1.00  0.00    -0.261 C  
BRANCH  12  13
HETATM   13  C   UNL     1      -8.785   8.572  65.583  1.00  0.00    -0.213 C  
HETATM   14  O   UNL     1      -6.663   9.604  65.152  1.00  0.00    -0.084 OA 
HETATM   15  O   UNL     1      -6.692   7.790  66.491  1.00  0.00    -0.059 OA 
HETATM   16  C   UNL     1      -7.292   8.604  65.805  1.00  0.00    -0.081 C  
ENDBRANCH  12  13
ENDBRANCH  11  12
ENDBRANCH   3  11
BRANCH  10  17
HETATM   17  N   UNL     1      -9.322  17.305  67.574  1.00  0.00    -0.234 NA 
BRANCH  17  18
HETATM   18  C   UNL     1     -10.186  18.115  68.452  1.00  0.00    -0.387 C  
HETATM   19 CL   UNL     1     -10.755  19.906  66.430  1.00  0.00    -0.523 Cl 
HETATM   20  C   UNL     1     -10.193  19.606  68.097  1.00  0.00    -0.461 C  
ENDBRANCH  17  18
BRANCH  17  21
HETATM   21  C   UNL     1      -7.913  17.736  67.448  1.00  0.00    -0.211 C  
HETATM   22 CL   UNL     1      -7.030  16.132  69.510  1.00  0.00    -0.213 Cl 
HETATM   23  C   UNL     1      -7.159  17.758  68.784  1.00  0.00    -0.263 C  
ENDBRANCH  17  21
ENDBRANCH  10  17
TORSDOF 6
ENDMDL
MODEL       94
REMARK 921   NORMALIZED FREE ENERGY PREDICTED BY IDOCK:   -4.82 KCAL/MOL
REMARK 922        TOTAL FREE ENERGY PREDICTED BY IDOCK:   -7.29 KCAL/MOL
REMARK 923 INTER-LIGAND FREE ENERGY PREDICTED BY IDOCK:   -6.69 KCAL/MOL
REMARK 924 INTRA-LIGAND FREE ENERGY PREDICTED BY IDOCK:   -0.60 KCAL/MOL
REMARK 927      BINDING AFFINITY PREDICTED BY RF-SCORE:    0.00 PKD
ROOT
HETATM    1  C   UNL     1     -11.768  12.312  63.331  1.00  0.00    -0.457 C  
HETATM    2  N   UNL     1     -10.899  12.743  64.403  1.00  0.00    -0.344 NA 
HETATM    3  C   UNL     1     -10.060  11.976  65.186  1.00  0.00    -0.266 A  
HETATM    4  C   UNL     1     -10.795  14.053  64.822  1.00  0.00    -0.419 A  
HETATM    5  N   UNL     1      -9.417  12.734  66.053  1.00  0.00    -0.178 NA 
HETATM    6  C   UNL     1     -11.399  15.250  64.426  1.00  0.00    -0.224 A  
HETATM    7  C   UNL     1      -9.870  14.010  65.851  1.00  0.00    -0.281 A  
HETATM    8  C   UNL     1     -11.021  16.420  65.117  1.00  0.00    -0.242 A  
HETATM    9  C   UNL     1      -9.523  15.189  66.523  1.00  0.00    -0.308 A  
HETATM   10  C   UNL     1     -10.077  16.431  66.159  1.00  0.00    -0.346 A  
ENDROOT
BRANCH   3  11
HETATM   11  C   UNL     1      -9.883  10.489  65.128  1.00  0.00    -0.359 C  
BRANCH  11  12
HETATM   12  C   UNL     1      -9.797   9.921  66.550  1.00  0.00    -0.274 C  
BRANCH  12  13
HETATM   13  C   UNL     1      -9.363   8.461  66.575  1.00  0.00    -0.259 C  
HETATM   14  O   UNL     1     -10.448   7.888  68.638  1.00  0.00    -0.203 OA 
HETATM   15  O   UNL     1     -11.004   6.707  66.798  1.00  0.00    -0.347 OA 
HETATM   16  C   UNL     1     -10.356   7.601  67.322  1.00  0.00    -0.297 C  
ENDBRANCH  12  13
ENDBRANCH  11  12
ENDBRANCH   3  11
BRANCH  10  17
HETATM   17  N   UNL     1      -9.681  17.603  66.797  1.00  0.00    -0.287 NA 
BRANCH  17  18
HETATM   18  C   UNL     1      -9.776  18.932  66.166  1.00  0.00    -0.277 C  
HETATM   19 CL   UNL     1      -7.069  18.994  65.628  1.00  0.00    -0.285 Cl 
HETATM   20  C   UNL     1      -8.509  19.779  66.331  1.00  0.00    -0.359 C  
ENDBRANCH  17  18
BRANCH  17  21
HETATM   21  C   UNL     1      -8.991  17.536  68.103  1.00  0.00    -0.266 C  
HETATM   22 CL   UNL     1     -11.157  16.446  69.417  1.00  0.00    -0.318 Cl 
HETATM   23  C   UNL     1      -9.928  17.736  69.301  1.00  0.00    -0.096 C  
ENDBRANCH  17  21
ENDBRANCH  10  17
TORSDOF 6
ENDMDL
MODEL       95
REMARK 921   NORMALIZED FREE ENERGY PREDICTED BY IDOCK:   -4.82 KCAL/MOL
REMARK 922        TOTAL FREE ENERGY PREDICTED BY IDOCK:   -7.28 KCAL/MOL
REMARK 923 INTER-LIGAND FREE ENERGY PREDICTED BY IDOCK:   -7.07 KCAL/MOL
REMARK 924 INTRA-LIGAND FREE ENERGY PREDICTED BY IDOCK:   -0.21 KCAL/MOL
REMARK 927      BINDING AFFINITY PREDICTED BY RF-SCORE:    0.00 PKD
ROOT
HETATM    1  C   UNL     1      -9.473  13.110  66.772  1.00  0.00    -0.252 C  
HETATM    2  N   UNL     1      -9.814  11.719  66.574  1.00  0.00    -0.202 NA 
HETATM    3  C   UNL     1     -10.119  11.072  65.395  1.00  0.00    -0.269 A  
HETATM    4  C   UNL     1      -9.898  10.801  67.600  1.00  0.00    -0.171 A  
HETATM    5  N   UNL     1     -10.363   9.794  65.619  1.00  0.00    -0.108 NA 
HETATM    6  C   UNL     1      -9.716  10.872  68.984  1.00  0.00    -0.181 A  
HETATM    7  C   UNL     1     -10.246   9.618  66.972  1.00  0.00    -0.244 A  
HETATM    8  C   UNL     1      -9.896   9.681  69.718  1.00  0.00    -0.253 A  
HETATM    9  C   UNL     1     -10.426   8.455  67.731  1.00  0.00    -0.284 A  
HETATM   10  C   UNL     1     -10.236   8.452  69.126  1.00  0.00    -0.211 A  
ENDROOT
BRANCH   3  11
HETATM   11  C   UNL     1     -10.206  11.681  64.029  1.00  0.00    -0.391 C  
BRANCH  11  12
HETATM   12  C   UNL     1     -11.675  11.790  63.602  1.00  0.00    -0.517 C  
BRANCH  12  13
HETATM   13  C   UNL     1     -12.075  13.212  63.228  1.00  0.00    -0.460 C  
HETATM   14  O   UNL     1     -13.164  13.744  65.299  1.00  0.00    -0.755 OA 
HETATM   15  O   UNL     1     -11.455  15.063  64.645  1.00  0.00    -0.404 OA 
HETATM   16  C   UNL     1     -12.177  14.097  64.448  1.00  0.00    -0.439 C  
ENDBRANCH  12  13
ENDBRANCH  11  12
ENDBRANCH   3  11
BRANCH  10  17
HETATM   17  N   UNL     1     -10.362   7.277  69.862  1.00  0.00    -0.213 NA 
BRANCH  17  18
HETATM   18  C   UNL     1     -11.656   6.609  70.093  1.00  0.00    -0.386 C  
HETATM   19 CL   UNL     1     -12.711   8.839  71.334  1.00  0.00    -0.336 Cl 
HETATM   20  C   UNL     1     -12.372   7.086  71.362  1.00  0.00    -0.377 C  
ENDBRANCH  17  18
BRANCH  17  21
HETATM   21  C   UNL     1      -9.193   6.728  70.582  1.00  0.00    -0.155 C  
HETATM   22 CL   UNL     1      -9.684   8.168  72.882  1.00  0.00    -0.345 Cl 
HETATM   23  C   UNL     1      -8.562   7.720  71.568  1.00  0.00    -0.117 C  
ENDBRANCH  17  21
ENDBRANCH  10  17
TORSDOF 6
ENDMDL
MODEL       96
REMARK 921   NORMALIZED FREE ENERGY PREDICTED BY IDOCK:   -4.81 KCAL/MOL
REMARK 922        TOTAL FREE ENERGY PREDICTED BY IDOCK:   -7.28 KCAL/MOL
REMARK 923 INTER-LIGAND FREE ENERGY PREDICTED BY IDOCK:   -6.36 KCAL/MOL
REMARK 924 INTRA-LIGAND FREE ENERGY PREDICTED BY IDOCK:   -0.92 KCAL/MOL
REMARK 927      BINDING AFFINITY PREDICTED BY RF-SCORE:    0.00 PKD
ROOT
HETATM    1  C   UNL     1     -13.253   9.677  72.144  1.00  0.00    -0.444 C  
HETATM    2  N   UNL     1     -12.217   9.543  71.144  1.00  0.00    -0.323 NA 
HETATM    3  C   UNL     1     -11.371   8.475  70.926  1.00  0.00    -0.268 A  
HETATM    4  C   UNL     1     -11.909  10.527  70.228  1.00  0.00    -0.331 A  
HETATM    5  N   UNL     1     -10.568   8.723  69.909  1.00  0.00    -0.222 NA 
HETATM    6  C   UNL     1     -12.405  11.809  69.976  1.00  0.00    -0.233 A  
HETATM    7  C   UNL     1     -10.877   9.986  69.480  1.00  0.00    -0.253 A  
HETATM    8  C   UNL     1     -11.813  12.531  68.919  1.00  0.00    -0.346 A  
HETATM    9  C   UNL     1     -10.304  10.734  68.443  1.00  0.00    -0.199 A  
HETATM   10  C   UNL     1     -10.772  12.023  68.123  1.00  0.00    -0.216 A  
ENDROOT
BRANCH   3  11
HETATM   11  C   UNL     1     -11.304   7.203  71.714  1.00  0.00    -0.285 C  
BRANCH  11  12
HETATM   12  C   UNL     1     -10.702   7.480  73.097  1.00  0.00    -0.452 C  
BRANCH  12  13
HETATM   13  C   UNL     1      -9.264   6.992  73.221  1.00  0.00    -0.173 C  
HETATM   14  O   UNL     1      -8.228   8.957  72.314  1.00  0.00    -0.379 OA 
HETATM   15  O   UNL     1      -7.625   8.319  74.391  1.00  0.00    -0.197 OA 
HETATM   16  C   UNL     1      -8.301   8.144  73.389  1.00  0.00    -0.219 C  
ENDBRANCH  12  13
ENDBRANCH  11  12
ENDBRANCH   3  11
BRANCH  10  17
HETATM   17  N   UNL     1     -10.233  12.732  67.053  1.00  0.00    -0.240 NA 
BRANCH  17  18
HETATM   18  C   UNL     1      -9.544  14.025  67.212  1.00  0.00    -0.238 C  
HETATM   19 CL   UNL     1      -7.108  12.799  67.645  1.00  0.00    -0.131 Cl 
HETATM   20  C   UNL     1      -8.351  13.967  68.173  1.00  0.00    -0.163 C  
ENDBRANCH  17  18
BRANCH  17  21
HETATM   21  C   UNL     1     -10.475  12.274  65.668  1.00  0.00    -0.261 C  
HETATM   22 CL   UNL     1     -12.764  13.781  65.358  1.00  0.00    -0.536 Cl 
HETATM   23  C   UNL     1     -11.963  12.186  65.304  1.00  0.00    -0.248 C  
ENDBRANCH  17  21
ENDBRANCH  10  17
TORSDOF 6
ENDMDL
MODEL       97
REMARK 921   NORMALIZED FREE ENERGY PREDICTED BY IDOCK:   -4.81 KCAL/MOL
REMARK 922        TOTAL FREE ENERGY PREDICTED BY IDOCK:   -7.28 KCAL/MOL
REMARK 923 INTER-LIGAND FREE ENERGY PREDICTED BY IDOCK:   -6.62 KCAL/MOL
REMARK 924 INTRA-LIGAND FREE ENERGY PREDICTED BY IDOCK:   -0.66 KCAL/MOL
REMARK 927      BINDING AFFINITY PREDICTED BY RF-SCORE:    0.00 PKD
ROOT
HETATM    1  C   UNL     1     -12.808  12.835  71.756  1.00  0.00    -0.237 C  
HETATM    2  N   UNL     1     -12.062  13.133  70.554  1.00  0.00    -0.346 NA 
HETATM    3  C   UNL     1     -11.704  12.276  69.534  1.00  0.00    -0.332 A  
HETATM    4  C   UNL     1     -11.567  14.385  70.254  1.00  0.00    -0.248 A  
HETATM    5  N   UNL     1     -11.035  12.924  68.599  1.00  0.00    -0.253 NA 
HETATM    6  C   UNL     1     -11.599  15.623  70.902  1.00  0.00    -0.424 A  
HETATM    7  C   UNL     1     -10.931  14.218  69.036  1.00  0.00    -0.260 A  
HETATM    8  C   UNL     1     -10.959  16.703  70.258  1.00  0.00    -0.066 A  
HETATM    9  C   UNL     1     -10.297  15.309  68.427  1.00  0.00    -0.227 A  
HETATM   10  C   UNL     1     -10.311  16.588  69.016  1.00  0.00    -0.296 A  
ENDROOT
BRANCH   3  11
HETATM   11  C   UNL     1     -11.978  10.805  69.454  1.00  0.00    -0.353 C  
BRANCH  11  12
HETATM   12  C   UNL     1     -10.788  10.023  70.024  1.00  0.00    -0.352 C  
BRANCH  12  13
HETATM   13  C   UNL     1     -11.012   8.516  70.007  1.00  0.00    -0.197 C  
HETATM   14  O   UNL     1     -11.212   8.243  72.383  1.00  0.00    -0.339 OA 
HETATM   15  O   UNL     1     -12.937   7.560  71.100  1.00  0.00    -0.292 OA 
HETATM   16  C   UNL     1     -11.828   8.066  71.195  1.00  0.00    -0.284 C  
ENDBRANCH  12  13
ENDBRANCH  11  12
ENDBRANCH   3  11
BRANCH  10  17
HETATM   17  N   UNL     1      -9.728  17.676  68.372  1.00  0.00    -0.305 NA 
BRANCH  17  18
HETATM   18  C   UNL     1      -8.366  18.151  68.675  1.00  0.00    -0.275 C  
HETATM   19 CL   UNL     1      -7.229  16.370  66.898  1.00  0.00    -0.255 Cl 
HETATM   20  C   UNL     1      -7.295  17.062  68.542  1.00  0.00    -0.220 C  
ENDBRANCH  17  18
BRANCH  17  21
HETATM   21  C   UNL     1     -10.531  18.506  67.450  1.00  0.00    -0.419 C  
HETATM   22 CL   UNL     1     -10.533  16.622  65.436  1.00  0.00    -0.314 Cl 
HETATM   23  C   UNL     1     -10.184  18.290  65.972  1.00  0.00    -0.323 C  
ENDBRANCH  17  21
ENDBRANCH  10  17
TORSDOF 6
ENDMDL
MODEL       98
REMARK 921   NORMALIZED FREE ENERGY PREDICTED BY IDOCK:   -4.81 KCAL/MOL
REMARK 922        TOTAL FREE ENERGY PREDICTED BY IDOCK:   -7.27 KCAL/MOL
REMARK 923 INTER-LIGAND FREE ENERGY PREDICTED BY IDOCK:   -6.70 KCAL/MOL
REMARK 924 INTRA-LIGAND FREE ENERGY PREDICTED BY IDOCK:   -0.57 KCAL/MOL
REMARK 927      BINDING AFFINITY PREDICTED BY RF-SCORE:    0.00 PKD
ROOT
HETATM    1  C   UNL     1      -6.653  16.903  68.265  1.00  0.00    -0.147 C  
HETATM    2  N   UNL     1      -8.063  16.593  68.180  1.00  0.00    -0.180 NA 
HETATM    3  C   UNL     1      -9.137  17.416  68.450  1.00  0.00    -0.274 A  
HETATM    4  C   UNL     1      -8.552  15.358  67.811  1.00  0.00    -0.157 A  
HETATM    5  N   UNL     1     -10.272  16.775  68.244  1.00  0.00    -0.279 NA 
HETATM    6  C   UNL     1      -7.956  14.148  67.445  1.00  0.00    -0.201 A  
HETATM    7  C   UNL     1      -9.927  15.505  67.866  1.00  0.00    -0.218 A  
HETATM    8  C   UNL     1      -8.817  13.077  67.126  1.00  0.00    -0.218 A  
HETATM    9  C   UNL     1     -10.755  14.419  67.553  1.00  0.00    -0.271 A  
HETATM   10  C   UNL     1     -10.219  13.179  67.155  1.00  0.00    -0.244 A  
ENDROOT
BRANCH   3  11
HETATM   11  C   UNL     1      -9.089  18.832  68.936  1.00  0.00    -0.250 C  
BRANCH  11  12
HETATM   12  C   UNL     1     -10.278  19.617  68.367  1.00  0.00    -0.553 C  
BRANCH  12  13
HETATM   13  C   UNL     1      -9.897  20.467  67.161  1.00  0.00    -0.567 C  
HETATM   14  O   UNL     1      -9.545  18.645  65.640  1.00  0.00    -0.349 OA 
HETATM   15  O   UNL     1     -11.069  20.206  65.069  1.00  0.00    -0.195 OA 
HETATM   16  C   UNL     1     -10.246  19.776  65.864  1.00  0.00    -0.459 C  
ENDBRANCH  12  13
ENDBRANCH  11  12
ENDBRANCH   3  11
BRANCH  10  17
HETATM   17  N   UNL     1     -11.054  12.126  66.790  1.00  0.00    -0.283 NA 
BRANCH  17  18
HETATM   18  C   UNL     1     -12.034  12.221  65.693  1.00  0.00    -0.306 C  
HETATM   19 CL   UNL     1     -10.100  11.761  63.776  1.00  0.00    -0.380 Cl 
HETATM   20  C   UNL     1     -11.441  12.767  64.390  1.00  0.00    -0.354 C  
ENDBRANCH  17  18
BRANCH  17  21
HETATM   21  C   UNL     1     -11.093  10.897  67.611  1.00  0.00    -0.313 C  
HETATM   22 CL   UNL     1     -12.250  12.144  69.782  1.00  0.00    -0.261 Cl 
HETATM   23  C   UNL     1     -10.919  11.159  69.113  1.00  0.00    -0.242 C  
ENDBRANCH  17  21
ENDBRANCH  10  17
TORSDOF 6
ENDMDL
MODEL       99
REMARK 921   NORMALIZED FREE ENERGY PREDICTED BY IDOCK:   -4.78 KCAL/MOL
REMARK 922        TOTAL FREE ENERGY PREDICTED BY IDOCK:   -7.24 KCAL/MOL
REMARK 923 INTER-LIGAND FREE ENERGY PREDICTED BY IDOCK:   -6.53 KCAL/MOL
REMARK 924 INTRA-LIGAND FREE ENERGY PREDICTED BY IDOCK:   -0.71 KCAL/MOL
REMARK 927      BINDING AFFINITY PREDICTED BY RF-SCORE:    0.00 PKD
ROOT
HETATM    1  C   UNL     1      -7.921  11.636  66.636  1.00  0.00    -0.098 C  
HETATM    2  N   UNL     1      -9.248  11.284  67.088  1.00  0.00    -0.162 NA 
HETATM    3  C   UNL     1     -10.457  11.540  66.475  1.00  0.00    -0.244 A  
HETATM    4  C   UNL     1      -9.501  10.619  68.270  1.00  0.00    -0.159 A  
HETATM    5  N   UNL     1     -11.451  11.050  67.191  1.00  0.00    -0.442 NA 
HETATM    6  C   UNL     1      -8.692  10.125  69.297  1.00  0.00    -0.186 A  
HETATM    7  C   UNL     1     -10.879  10.495  68.303  1.00  0.00    -0.248 A  
HETATM    8  C   UNL     1      -9.341   9.484  70.373  1.00  0.00    -0.311 A  
HETATM    9  C   UNL     1     -11.492   9.862  69.392  1.00  0.00    -0.079 A  
HETATM   10  C   UNL     1     -10.735   9.321  70.449  1.00  0.00    -0.251 A  
ENDROOT
BRANCH   3  11
HETATM   11  C   UNL     1     -10.679  12.287  65.195  1.00  0.00    -0.330 C  
BRANCH  11  12
HETATM   12  C   UNL     1     -11.637  13.460  65.437  1.00  0.00    -0.335 C  
BRANCH  12  13
HETATM   13  C   UNL     1     -11.023  14.806  65.075  1.00  0.00    -0.426 C  
HETATM   14  O   UNL     1     -10.927  15.674  67.310  1.00  0.00    -0.311 OA 
HETATM   15  O   UNL     1      -8.997  15.549  66.151  1.00  0.00    -0.316 OA 
HETATM   16  C   UNL     1     -10.203  15.365  66.214  1.00  0.00    -0.290 C  
ENDBRANCH  12  13
ENDBRANCH  11  12
ENDBRANCH   3  11
BRANCH  10  17
HETATM   17  N   UNL     1     -11.354   8.643  71.496  1.00  0.00    -0.268 NA 
BRANCH  17  18
HETATM   18  C   UNL     1     -12.815   8.473  71.590  1.00  0.00    -0.338 C  
HETATM   19 CL   UNL     1     -13.220  11.181  71.947  1.00  0.00    -0.560 Cl 
HETATM   20  C   UNL     1     -13.493   9.505  72.498  1.00  0.00    -0.300 C  
ENDBRANCH  17  18
BRANCH  17  21
HETATM   21  C   UNL     1     -10.557   8.193  72.657  1.00  0.00    -0.344 C  
HETATM   22 CL   UNL     1     -10.646   5.532  71.940  1.00  0.00    -0.284 Cl 
HETATM   23  C   UNL     1     -10.946   6.798  73.163  1.00  0.00    -0.246 C  
ENDBRANCH  17  21
ENDBRANCH  10  17
TORSDOF 6
ENDMDL
MODEL      100
REMARK 921   NORMALIZED FREE ENERGY PREDICTED BY IDOCK:   -4.78 KCAL/MOL
REMARK 922        TOTAL FREE ENERGY PREDICTED BY IDOCK:   -7.23 KCAL/MOL
REMARK 923 INTER-LIGAND FREE ENERGY PREDICTED BY IDOCK:   -6.37 KCAL/MOL
REMARK 924 INTRA-LIGAND FREE ENERGY PREDICTED BY IDOCK:   -0.86 KCAL/MOL
REMARK 927      BINDING AFFINITY PREDICTED BY RF-SCORE:    0.00 PKD
ROOT
HETATM    1  C   UNL     1     -11.765  10.973  70.524  1.00  0.00    -0.318 C  
HETATM    2  N   UNL     1     -11.338  10.624  69.187  1.00  0.00    -0.257 NA 
HETATM    3  C   UNL     1     -11.317  11.419  68.060  1.00  0.00    -0.303 A  
HETATM    4  C   UNL     1     -10.880   9.371  68.835  1.00  0.00    -0.123 A  
HETATM    5  N   UNL     1     -10.847  10.745  67.028  1.00  0.00    -0.267 NA 
HETATM    6  C   UNL     1     -10.696   8.174  69.532  1.00  0.00    -0.180 A  
HETATM    7  C   UNL     1     -10.589   9.481  67.487  1.00  0.00    -0.275 A  
HETATM    8  C   UNL     1     -10.191   7.077  68.803  1.00  0.00    -0.181 A  
HETATM    9  C   UNL     1     -10.099   8.369  66.789  1.00  0.00    -0.373 A  
HETATM   10  C   UNL     1      -9.868   7.140  67.436  1.00  0.00    -0.155 A  
ENDROOT
BRANCH   3  11
HETATM   11  C   UNL     1     -11.775  12.842  67.952  1.00  0.00    -0.408 C  
BRANCH  11  12
HETATM   12  C   UNL     1     -11.402  13.403  66.574  1.00  0.00    -0.346 C  
BRANCH  12  13
HETATM   13  C   UNL     1     -12.622  13.796  65.750  1.00  0.00    -0.525 C  
HETATM   14  O   UNL     1     -11.544  15.513  64.465  1.00  0.00    -0.399 OA 
HETATM   15  O   UNL     1     -12.510  13.813  63.341  1.00  0.00    -0.817 OA 
HETATM   16  C   UNL     1     -12.224  14.349  64.402  1.00  0.00    -0.458 C  
ENDBRANCH  12  13
ENDBRANCH  11  12
ENDBRANCH   3  11
BRANCH  10  17
HETATM   17  N   UNL     1      -9.326   6.060  66.744  1.00  0.00    -0.134 NA 
BRANCH  17  18
HETATM   18  C   UNL     1      -7.972   6.078  66.163  1.00  0.00    -0.107 C  
HETATM   19 CL   UNL     1      -6.788   5.692  68.628  1.00  0.00    -0.057 Cl 
HETATM   20  C   UNL     1      -6.905   6.632  67.115  1.00  0.00    -0.069 C  
ENDBRANCH  17  18
BRANCH  17  21
HETATM   21  C   UNL     1     -10.169   4.888  66.428  1.00  0.00    -0.278 C  
HETATM   22 CL   UNL     1      -9.325   3.440  68.618  1.00  0.00    -0.229 Cl 
HETATM   23  C   UNL     1      -9.542   3.552  66.849  1.00  0.00    -0.114 C  
ENDBRANCH  17  21
ENDBRANCH  10  17
TORSDOF 6
ENDMDL
MODEL      101
REMARK 921   NORMALIZED FREE ENERGY PREDICTED BY IDOCK:   -4.75 KCAL/MOL
REMARK 922        TOTAL FREE ENERGY PREDICTED BY IDOCK:   -7.19 KCAL/MOL
REMARK 923 INTER-LIGAND FREE ENERGY PREDICTED BY IDOCK:   -6.22 KCAL/MOL
REMARK 924 INTRA-LIGAND FREE ENERGY PREDICTED BY IDOCK:   -0.97 KCAL/MOL
REMARK 927      BINDING AFFINITY PREDICTED BY RF-SCORE:    0.00 PKD
ROOT
HETATM    1  C   UNL     1      -7.650   9.440  70.172  1.00  0.00    -0.130 C  
HETATM    2  N   UNL     1      -8.968   9.705  69.641  1.00  0.00    -0.187 NA 
HETATM    3  C   UNL     1     -10.152   9.056  69.926  1.00  0.00    -0.201 A  
HETATM    4  C   UNL     1      -9.234  10.690  68.713  1.00  0.00    -0.180 A  
HETATM    5  N   UNL     1     -11.149   9.596  69.250  1.00  0.00    -0.170 NA 
HETATM    6  C   UNL     1      -8.448  11.638  68.051  1.00  0.00    -0.151 A  
HETATM    7  C   UNL     1     -10.596  10.590  68.490  1.00  0.00    -0.206 A  
HETATM    8  C   UNL     1      -9.103  12.498  67.146  1.00  0.00    -0.205 A  
HETATM    9  C   UNL     1     -11.215  11.454  67.577  1.00  0.00    -0.356 A  
HETATM   10  C   UNL     1     -10.486  12.446  66.894  1.00  0.00    -0.224 A  
ENDROOT
BRANCH   3  11
HETATM   11  C   UNL     1     -10.340   7.884  70.840  1.00  0.00    -0.215 C  
BRANCH  11  12
HETATM   12  C   UNL     1     -10.024   6.584  70.089  1.00  0.00    -0.190 C  
BRANCH  12  13
HETATM   13  C   UNL     1     -11.144   6.162  69.146  1.00  0.00    -0.448 C  
HETATM   14  O   UNL     1     -10.176   7.070  67.147  1.00  0.00    -0.197 OA 
HETATM   15  O   UNL     1     -10.650   4.866  67.173  1.00  0.00    -0.136 OA 
HETATM   16  C   UNL     1     -10.633   5.948  67.741  1.00  0.00    -0.259 C  
ENDBRANCH  12  13
ENDBRANCH  11  12
ENDBRANCH   3  11
BRANCH  10  17
HETATM   17  N   UNL     1     -11.123  13.336  66.034  1.00  0.00    -0.282 NA 
BRANCH  17  18
HETATM   18  C   UNL     1     -10.636  13.626  64.673  1.00  0.00    -0.430 C  
HETATM   19 CL   UNL     1     -12.522  11.969  63.524  1.00  0.00    -0.682 Cl 
HETATM   20  C   UNL     1     -10.814  12.456  63.698  1.00  0.00    -0.462 C  
ENDBRANCH  17  18
BRANCH  17  21
HETATM   21  C   UNL     1     -12.252  14.156  66.524  1.00  0.00    -0.433 C  
HETATM   22 CL   UNL     1     -10.630  16.158  67.507  1.00  0.00    -0.311 Cl 
HETATM   23  C   UNL     1     -11.921  14.957  67.790  1.00  0.00    -0.162 C  
ENDBRANCH  17  21
ENDBRANCH  10  17
TORSDOF 6
ENDMDL
MODEL      102
REMARK 921   NORMALIZED FREE ENERGY PREDICTED BY IDOCK:   -4.75 KCAL/MOL
REMARK 922        TOTAL FREE ENERGY PREDICTED BY IDOCK:   -7.19 KCAL/MOL
REMARK 923 INTER-LIGAND FREE ENERGY PREDICTED BY IDOCK:   -6.14 KCAL/MOL
REMARK 924 INTRA-LIGAND FREE ENERGY PREDICTED BY IDOCK:   -1.05 KCAL/MOL
REMARK 927      BINDING AFFINITY PREDICTED BY RF-SCORE:    0.00 PKD
ROOT
HETATM    1  C   UNL     1      -7.448   8.276  68.315  1.00  0.00    -0.097 C  
HETATM    2  N   UNL     1      -8.614   8.792  67.632  1.00  0.00    -0.127 NA 
HETATM    3  C   UNL     1      -9.704   8.094  67.154  1.00  0.00    -0.199 A  
HETATM    4  C   UNL     1      -8.798  10.126  67.337  1.00  0.00    -0.131 A  
HETATM    5  N   UNL     1     -10.573   8.918  66.601  1.00  0.00    -0.164 NA 
HETATM    6  C   UNL     1      -8.042  11.282  67.554  1.00  0.00    -0.124 A  
HETATM    7  C   UNL     1     -10.022  10.168  66.693  1.00  0.00    -0.216 A  
HETATM    8  C   UNL     1      -8.582  12.500  67.093  1.00  0.00    -0.200 A  
HETATM    9  C   UNL     1     -10.526  11.393  66.238  1.00  0.00    -0.301 A  
HETATM   10  C   UNL     1      -9.826  12.597  66.444  1.00  0.00    -0.259 A  
ENDROOT
BRANCH   3  11
HETATM   11  C   UNL     1      -9.917   6.612  67.201  1.00  0.00    -0.209 C  
BRANCH  11  12
HETATM   12  C   UNL     1     -11.110   6.287  68.108  1.00  0.00    -0.364 C  
BRANCH  12  13
HETATM   13  C   UNL     1     -10.704   6.079  69.562  1.00  0.00    -0.405 C  
HETATM   14  O   UNL     1     -10.966   8.363  70.249  1.00  0.00    -0.240 OA 
HETATM   15  O   UNL     1     -12.160   6.796  71.346  1.00  0.00    -0.333 OA 
HETATM   16  C   UNL     1     -11.361   7.092  70.470  1.00  0.00    -0.312 C  
ENDBRANCH  12  13
ENDBRANCH  11  12
ENDBRANCH   3  11
BRANCH  10  17
HETATM   17  N   UNL     1     -10.365  13.815  66.039  1.00  0.00    -0.301 NA 
BRANCH  17  18
HETATM   18  C   UNL     1      -9.548  15.022  65.819  1.00  0.00    -0.292 C  
HETATM   19 CL   UNL     1      -9.660  15.720  68.488  1.00  0.00    -0.199 Cl 
HETATM   20  C   UNL     1      -9.885  16.171  66.776  1.00  0.00    -0.245 C  
ENDBRANCH  17  18
BRANCH  17  21
HETATM   21  C   UNL     1     -11.832  13.983  65.962  1.00  0.00    -0.388 C  
HETATM   22 CL   UNL     1     -12.002  13.061  63.368  1.00  0.00    -0.616 Cl 
HETATM   23  C   UNL     1     -12.333  14.350  64.559  1.00  0.00    -0.418 C  
ENDBRANCH  17  21
ENDBRANCH  10  17
TORSDOF 6
ENDMDL
MODEL      103
REMARK 921   NORMALIZED FREE ENERGY PREDICTED BY IDOCK:   -4.73 KCAL/MOL
REMARK 922        TOTAL FREE ENERGY PREDICTED BY IDOCK:   -7.17 KCAL/MOL
REMARK 923 INTER-LIGAND FREE ENERGY PREDICTED BY IDOCK:   -6.28 KCAL/MOL
REMARK 924 INTRA-LIGAND FREE ENERGY PREDICTED BY IDOCK:   -0.89 KCAL/MOL
REMARK 927      BINDING AFFINITY PREDICTED BY RF-SCORE:    0.00 PKD
ROOT
HETATM    1  C   UNL     1     -11.490  14.835  65.028  1.00  0.00    -0.389 C  
HETATM    2  N   UNL     1     -10.523  14.421  66.019  1.00  0.00    -0.291 NA 
HETATM    3  C   UNL     1      -9.415  15.108  66.472  1.00  0.00    -0.283 A  
HETATM    4  C   UNL     1     -10.571  13.208  66.673  1.00  0.00    -0.279 A  
HETATM    5  N   UNL     1      -8.781  14.406  67.393  1.00  0.00    -0.192 NA 
HETATM    6  C   UNL     1     -11.435  12.111  66.622  1.00  0.00    -0.426 A  
HETATM    7  C   UNL     1      -9.472  13.230  67.515  1.00  0.00    -0.220 A  
HETATM    8  C   UNL     1     -11.145  11.023  67.471  1.00  0.00    -0.366 A  
HETATM    9  C   UNL     1      -9.207  12.129  68.339  1.00  0.00    -0.154 A  
HETATM   10  C   UNL     1     -10.050  11.002  68.353  1.00  0.00    -0.184 A  
ENDROOT
BRANCH   3  11
HETATM   11  C   UNL     1      -8.931  16.447  66.006  1.00  0.00    -0.307 C  
BRANCH  11  12
HETATM   12  C   UNL     1      -8.757  17.383  67.208  1.00  0.00    -0.232 C  
BRANCH  12  13
HETATM   13  C   UNL     1      -9.954  18.302  67.416  1.00  0.00    -0.344 C  
HETATM   14  O   UNL     1      -8.880  20.320  66.684  1.00  0.00    -0.298 OA 
HETATM   15  O   UNL     1     -10.757  19.682  65.608  1.00  0.00    -0.503 OA 
HETATM   16  C   UNL     1      -9.916  19.481  66.472  1.00  0.00    -0.420 C  
ENDBRANCH  12  13
ENDBRANCH  11  12
ENDBRANCH   3  11
BRANCH  10  17
HETATM   17  N   UNL     1      -9.807   9.939  69.219  1.00  0.00    -0.195 NA 
BRANCH  17  18
HETATM   18  C   UNL     1      -8.559   9.801  69.990  1.00  0.00    -0.204 C  
HETATM   19 CL   UNL     1      -7.226   8.683  67.846  1.00  0.00    -0.086 Cl 
HETATM   20  C   UNL     1      -7.706   8.601  69.563  1.00  0.00    -0.090 C  
ENDBRANCH  17  18
BRANCH  17  21
HETATM   21  C   UNL     1     -10.753   8.805  69.279  1.00  0.00    -0.151 C  
HETATM   22 CL   UNL     1     -12.550  10.130  70.898  1.00  0.00    -0.436 Cl 
HETATM   23  C   UNL     1     -11.509   8.708  70.610  1.00  0.00    -0.228 C  
ENDBRANCH  17  21
ENDBRANCH  10  17
TORSDOF 6
ENDMDL
MODEL      104
REMARK 921   NORMALIZED FREE ENERGY PREDICTED BY IDOCK:   -4.72 KCAL/MOL
REMARK 922        TOTAL FREE ENERGY PREDICTED BY IDOCK:   -7.15 KCAL/MOL
REMARK 923 INTER-LIGAND FREE ENERGY PREDICTED BY IDOCK:   -6.23 KCAL/MOL
REMARK 924 INTRA-LIGAND FREE ENERGY PREDICTED BY IDOCK:   -0.93 KCAL/MOL
REMARK 927      BINDING AFFINITY PREDICTED BY RF-SCORE:    0.00 PKD
ROOT
HETATM    1  C   UNL     1     -12.824  13.580  71.146  1.00  0.00    -0.309 C  
HETATM    2  N   UNL     1     -11.963  13.584  69.985  1.00  0.00    -0.334 NA 
HETATM    3  C   UNL     1     -11.382  14.665  69.354  1.00  0.00    -0.284 A  
HETATM    4  C   UNL     1     -11.596  12.443  69.303  1.00  0.00    -0.319 A  
HETATM    5  N   UNL     1     -10.650  14.264  68.332  1.00  0.00    -0.246 NA 
HETATM    6  C   UNL     1     -11.881  11.084  69.461  1.00  0.00    -0.404 A  
HETATM    7  C   UNL     1     -10.785  12.903  68.280  1.00  0.00    -0.244 A  
HETATM    8  C   UNL     1     -11.301  10.193  68.534  1.00  0.00    -0.172 A  
HETATM    9  C   UNL     1     -10.232  11.992  67.370  1.00  0.00    -0.216 A  
HETATM   10  C   UNL     1     -10.460  10.608  67.486  1.00  0.00    -0.230 A  
ENDROOT
BRANCH   3  11
HETATM   11  C   UNL     1     -11.543  16.111  69.711  1.00  0.00    -0.244 C  
BRANCH  11  12
HETATM   12  C   UNL     1     -10.410  16.931  69.080  1.00  0.00    -0.333 C  
BRANCH  12  13
HETATM   13  C   UNL     1     -10.873  17.745  67.878  1.00  0.00    -0.229 C  
HETATM   14  O   UNL     1      -8.697  18.096  66.930  1.00  0.00    -0.245 OA 
HETATM   15  O   UNL     1     -10.248  17.082  65.645  1.00  0.00    -0.556 OA 
HETATM   16  C   UNL     1      -9.929  17.592  66.709  1.00  0.00    -0.313 C  
ENDBRANCH  12  13
ENDBRANCH  11  12
ENDBRANCH   3  11
BRANCH  10  17
HETATM   17  N   UNL     1      -9.857   9.709  66.610  1.00  0.00    -0.209 NA 
BRANCH  17  18
HETATM   18  C   UNL     1      -8.891  10.122  65.576  1.00  0.00    -0.169 C  
HETATM   19 CL   UNL     1     -10.888  11.103  63.941  1.00  0.00    -0.423 Cl 
HETATM   20  C   UNL     1      -9.455  10.060  64.152  1.00  0.00    -0.252 C  
ENDBRANCH  17  18
BRANCH  17  21
HETATM   21  C   UNL     1     -10.293   8.297  66.586  1.00  0.00    -0.223 C  
HETATM   22 CL   UNL     1      -8.685   7.556  68.700  1.00  0.00    -0.129 Cl 
HETATM   23  C   UNL     1      -9.196   7.310  67.006  1.00  0.00    -0.145 C  
ENDBRANCH  17  21
ENDBRANCH  10  17
TORSDOF 6
ENDMDL
MODEL      105
REMARK 921   NORMALIZED FREE ENERGY PREDICTED BY IDOCK:   -4.71 KCAL/MOL
REMARK 922        TOTAL FREE ENERGY PREDICTED BY IDOCK:   -7.14 KCAL/MOL
REMARK 923 INTER-LIGAND FREE ENERGY PREDICTED BY IDOCK:   -6.26 KCAL/MOL
REMARK 924 INTRA-LIGAND FREE ENERGY PREDICTED BY IDOCK:   -0.89 KCAL/MOL
REMARK 927      BINDING AFFINITY PREDICTED BY RF-SCORE:    0.00 PKD
ROOT
HETATM    1  C   UNL     1      -7.001   9.594  70.020  1.00  0.00    -0.093 C  
HETATM    2  N   UNL     1      -8.364   9.837  69.604  1.00  0.00    -0.156 NA 
HETATM    3  C   UNL     1      -9.508   9.170  69.991  1.00  0.00    -0.198 A  
HETATM    4  C   UNL     1      -8.724  10.817  68.702  1.00  0.00    -0.152 A  
HETATM    5  N   UNL     1     -10.568   9.693  69.403  1.00  0.00    -0.217 NA 
HETATM    6  C   UNL     1      -8.013  11.776  67.976  1.00  0.00    -0.141 A  
HETATM    7  C   UNL     1     -10.099  10.695  68.597  1.00  0.00    -0.183 A  
HETATM    8  C   UNL     1      -8.758  12.625  67.131  1.00  0.00    -0.201 A  
HETATM    9  C   UNL     1     -10.808  11.548  67.741  1.00  0.00    -0.270 A  
HETATM   10  C   UNL     1     -10.156  12.551  66.999  1.00  0.00    -0.216 A  
ENDROOT
BRANCH   3  11
HETATM   11  C   UNL     1      -9.598   7.996  70.917  1.00  0.00    -0.179 C  
BRANCH  11  12
HETATM   12  C   UNL     1     -10.310   8.410  72.211  1.00  0.00    -0.403 C  
BRANCH  12  13
HETATM   13  C   UNL     1     -11.551   7.572  72.494  1.00  0.00    -0.352 C  
HETATM   14  O   UNL     1     -13.054   9.413  72.829  1.00  0.00    -0.283 OA 
HETATM   15  O   UNL     1     -13.569   7.919  71.220  1.00  0.00    -0.267 OA 
HETATM   16  C   UNL     1     -12.813   8.303  72.100  1.00  0.00    -0.315 C  
ENDBRANCH  12  13
ENDBRANCH  11  12
ENDBRANCH   3  11
BRANCH  10  17
HETATM   17  N   UNL     1     -10.879  13.429  66.196  1.00  0.00    -0.280 NA 
BRANCH  17  18
HETATM   18  C   UNL     1     -12.125  14.080  66.640  1.00  0.00    -0.456 C  
HETATM   19 CL   UNL     1     -10.746  16.099  67.922  1.00  0.00    -0.312 Cl 
HETATM   20  C   UNL     1     -11.988  14.817  67.976  1.00  0.00    -0.227 C  
ENDBRANCH  17  18
BRANCH  17  21
HETATM   21  C   UNL     1     -10.494  13.624  64.782  1.00  0.00    -0.418 C  
HETATM   22 CL   UNL     1     -12.339  11.812  63.823  1.00  0.00    -0.500 Cl 
HETATM   23  C   UNL     1     -10.642  12.358  63.928  1.00  0.00    -0.437 C  
ENDBRANCH  17  21
ENDBRANCH  10  17
TORSDOF 6
ENDMDL
MODEL      106
REMARK 921   NORMALIZED FREE ENERGY PREDICTED BY IDOCK:   -4.70 KCAL/MOL
REMARK 922        TOTAL FREE ENERGY PREDICTED BY IDOCK:   -7.12 KCAL/MOL
REMARK 923 INTER-LIGAND FREE ENERGY PREDICTED BY IDOCK:   -6.67 KCAL/MOL
REMARK 924 INTRA-LIGAND FREE ENERGY PREDICTED BY IDOCK:   -0.45 KCAL/MOL
REMARK 927      BINDING AFFINITY PREDICTED BY RF-SCORE:    0.00 PKD
ROOT
HETATM    1  C   UNL     1     -10.447   6.544  68.013  1.00  0.00    -0.216 C  
HETATM    2  N   UNL     1     -10.294   7.885  68.533  1.00  0.00    -0.206 NA 
HETATM    3  C   UNL     1     -10.157   8.283  69.847  1.00  0.00    -0.195 A  
HETATM    4  C   UNL     1     -10.277   9.013  67.741  1.00  0.00    -0.230 A  
HETATM    5  N   UNL     1     -10.028   9.594  69.921  1.00  0.00    -0.225 NA 
HETATM    6  C   UNL     1     -10.388   9.236  66.365  1.00  0.00    -0.238 A  
HETATM    7  C   UNL     1     -10.115  10.056  68.636  1.00  0.00    -0.172 A  
HETATM    8  C   UNL     1     -10.322  10.573  65.923  1.00  0.00    -0.275 A  
HETATM    9  C   UNL     1     -10.063  11.375  68.164  1.00  0.00    -0.200 A  
HETATM   10  C   UNL     1     -10.146  11.666  66.789  1.00  0.00    -0.213 A  
ENDROOT
BRANCH   3  11
HETATM   11  C   UNL     1     -10.172   7.405  71.061  1.00  0.00    -0.194 C  
BRANCH  11  12
HETATM   12  C   UNL     1     -11.618   7.192  71.529  1.00  0.00    -0.310 C  
BRANCH  12  13
HETATM   13  C   UNL     1     -12.029   8.163  72.629  1.00  0.00    -0.353 C  
HETATM   14  O   UNL     1     -12.953   9.841  71.183  1.00  0.00    -0.350 OA 
HETATM   15  O   UNL     1     -14.301   8.960  72.762  1.00  0.00    -0.600 OA 
HETATM   16  C   UNL     1     -13.211   9.005  72.211  1.00  0.00    -0.460 C  
ENDBRANCH  12  13
ENDBRANCH  11  12
ENDBRANCH   3  11
BRANCH  10  17
HETATM   17  N   UNL     1     -10.034  12.975  66.330  1.00  0.00    -0.278 NA 
BRANCH  17  18
HETATM   18  C   UNL     1     -10.183  13.344  64.910  1.00  0.00    -0.319 C  
HETATM   19 CL   UNL     1     -12.938  13.383  65.095  1.00  0.00    -0.366 Cl 
HETATM   20  C   UNL     1     -11.466  12.801  64.270  1.00  0.00    -0.373 C  
ENDBRANCH  17  18
BRANCH  17  21
HETATM   21  C   UNL     1      -9.598  14.047  67.251  1.00  0.00    -0.238 C  
HETATM   22 CL   UNL     1     -12.007  14.151  68.589  1.00  0.00    -0.387 Cl 
HETATM   23  C   UNL     1     -10.730  14.994  67.668  1.00  0.00    -0.274 C  
ENDBRANCH  17  21
ENDBRANCH  10  17
TORSDOF 6
ENDMDL
MODEL      107
REMARK 921   NORMALIZED FREE ENERGY PREDICTED BY IDOCK:   -4.67 KCAL/MOL
REMARK 922        TOTAL FREE ENERGY PREDICTED BY IDOCK:   -7.08 KCAL/MOL
REMARK 923 INTER-LIGAND FREE ENERGY PREDICTED BY IDOCK:   -6.37 KCAL/MOL
REMARK 924 INTRA-LIGAND FREE ENERGY PREDICTED BY IDOCK:   -0.72 KCAL/MOL
REMARK 927      BINDING AFFINITY PREDICTED BY RF-SCORE:    0.00 PKD
ROOT
HETATM    1  C   UNL     1     -10.667  17.061  69.764  1.00  0.00     0.036 C  
HETATM    2  N   UNL     1      -9.919  16.327  68.767  1.00  0.00    -0.226 NA 
HETATM    3  C   UNL     1      -8.732  16.679  68.158  1.00  0.00    -0.201 A  
HETATM    4  C   UNL     1     -10.322  15.113  68.252  1.00  0.00    -0.231 A  
HETATM    5  N   UNL     1      -8.354  15.741  67.309  1.00  0.00    -0.174 NA 
HETATM    6  C   UNL     1     -11.426  14.284  68.469  1.00  0.00    -0.329 A  
HETATM    7  C   UNL     1      -9.329  14.781  67.346  1.00  0.00    -0.197 A  
HETATM    8  C   UNL     1     -11.486  13.086  67.729  1.00  0.00    -0.359 A  
HETATM    9  C   UNL     1      -9.424  13.587  66.619  1.00  0.00    -0.271 A  
HETATM   10  C   UNL     1     -10.498  12.697  66.807  1.00  0.00    -0.240 A  
ENDROOT
BRANCH   3  11
HETATM   11  C   UNL     1      -7.951  17.940  68.365  1.00  0.00    -0.300 C  
BRANCH  11  12
HETATM   12  C   UNL     1      -7.787  18.674  67.027  1.00  0.00    -0.242 C  
BRANCH  12  13
HETATM   13  C   UNL     1      -8.748  19.846  66.877  1.00  0.00    -0.408 C  
HETATM   14  O   UNL     1     -10.328  18.724  65.461  1.00  0.00    -0.510 OA 
HETATM   15  O   UNL     1     -11.086  19.578  67.406  1.00  0.00    -0.433 OA 
HETATM   16  C   UNL     1     -10.162  19.374  66.633  1.00  0.00    -0.435 C  
ENDBRANCH  12  13
ENDBRANCH  11  12
ENDBRANCH   3  11
BRANCH  10  17
HETATM   17  N   UNL     1     -10.550  11.486  66.121  1.00  0.00    -0.258 NA 
BRANCH  17  18
HETATM   18  C   UNL     1     -10.882  10.207  66.773  1.00  0.00    -0.059 C  
HETATM   19 CL   UNL     1      -9.279  10.771  68.949  1.00  0.00    -0.184 Cl 
HETATM   20  C   UNL     1      -9.748   9.651  67.641  1.00  0.00    -0.149 C  
ENDBRANCH  17  18
BRANCH  17  21
HETATM   21  C   UNL     1     -10.111  11.418  64.710  1.00  0.00    -0.277 C  
HETATM   22 CL   UNL     1     -12.148  13.034  63.790  1.00  0.00    -0.548 Cl 
HETATM   23  C   UNL     1     -11.269  11.482  63.706  1.00  0.00    -0.370 C  
ENDBRANCH  17  21
ENDBRANCH  10  17
TORSDOF 6
ENDMDL
MODEL      108
REMARK 921   NORMALIZED FREE ENERGY PREDICTED BY IDOCK:   -4.67 KCAL/MOL
REMARK 922        TOTAL FREE ENERGY PREDICTED BY IDOCK:   -7.08 KCAL/MOL
REMARK 923 INTER-LIGAND FREE ENERGY PREDICTED BY IDOCK:   -6.25 KCAL/MOL
REMARK 924 INTRA-LIGAND FREE ENERGY PREDICTED BY IDOCK:   -0.84 KCAL/MOL
REMARK 927      BINDING AFFINITY PREDICTED BY RF-SCORE:    0.00 PKD
ROOT
HETATM    1  C   UNL     1     -13.354  12.103  72.023  1.00  0.00    -0.365 C  
HETATM    2  N   UNL     1     -12.425  11.628  71.021  1.00  0.00    -0.374 NA 
HETATM    3  C   UNL     1     -11.903  12.316  69.944  1.00  0.00    -0.311 A  
HETATM    4  C   UNL     1     -11.918  10.346  70.996  1.00  0.00    -0.382 A  
HETATM    5  N   UNL     1     -11.077  11.546  69.262  1.00  0.00    -0.249 NA 
HETATM    6  C   UNL     1     -12.092   9.218  71.802  1.00  0.00    -0.457 A  
HETATM    7  C   UNL     1     -11.089  10.328  69.888  1.00  0.00    -0.304 A  
HETATM    8  C   UNL     1     -11.380   8.055  71.443  1.00  0.00    -0.292 A  
HETATM    9  C   UNL     1     -10.402   9.154  69.554  1.00  0.00    -0.220 A  
HETATM   10  C   UNL     1     -10.515   7.989  70.336  1.00  0.00    -0.218 A  
ENDROOT
BRANCH   3  11
HETATM   11  C   UNL     1     -12.212  13.724  69.538  1.00  0.00    -0.344 C  
BRANCH  11  12
HETATM   12  C   UNL     1     -11.073  14.276  68.671  1.00  0.00    -0.273 C  
BRANCH  12  13
HETATM   13  C   UNL     1     -11.569  14.892  67.369  1.00  0.00    -0.347 C  
HETATM   14  O   UNL     1     -10.782  17.117  67.800  1.00  0.00    -0.361 OA 
HETATM   15  O   UNL     1     -10.048  16.090  65.932  1.00  0.00    -0.309 OA 
HETATM   16  C   UNL     1     -10.718  16.068  66.954  1.00  0.00    -0.262 C  
ENDBRANCH  12  13
ENDBRANCH  11  12
ENDBRANCH   3  11
BRANCH  10  17
HETATM   17  N   UNL     1      -9.783   6.847  70.026  1.00  0.00    -0.167 NA 
BRANCH  17  18
HETATM   18  C   UNL     1      -8.320   6.855  69.847  1.00  0.00    -0.139 C  
HETATM   19 CL   UNL     1      -7.874   6.890  72.571  1.00  0.00    -0.095 Cl 
HETATM   20  C   UNL     1      -7.572   7.597  70.960  1.00  0.00    -0.083 C  
ENDBRANCH  17  18
BRANCH  17  21
HETATM   21  C   UNL     1     -10.484   5.585  69.706  1.00  0.00    -0.319 C  
HETATM   22 CL   UNL     1     -10.499   4.698  72.317  1.00  0.00    -0.258 Cl 
HETATM   23  C   UNL     1     -10.074   4.412  70.606  1.00  0.00    -0.121 C  
ENDBRANCH  17  21
ENDBRANCH  10  17
TORSDOF 6
ENDMDL
MODEL      109
REMARK 921   NORMALIZED FREE ENERGY PREDICTED BY IDOCK:   -4.66 KCAL/MOL
REMARK 922        TOTAL FREE ENERGY PREDICTED BY IDOCK:   -7.08 KCAL/MOL
REMARK 923 INTER-LIGAND FREE ENERGY PREDICTED BY IDOCK:   -6.33 KCAL/MOL
REMARK 924 INTRA-LIGAND FREE ENERGY PREDICTED BY IDOCK:   -0.75 KCAL/MOL
REMARK 927      BINDING AFFINITY PREDICTED BY RF-SCORE:    0.00 PKD
ROOT
HETATM    1  C   UNL     1      -8.043   8.865  69.849  1.00  0.00    -0.112 C  
HETATM    2  N   UNL     1      -9.357   9.459  69.747  1.00  0.00    -0.188 NA 
HETATM    3  C   UNL     1     -10.531   9.048  70.345  1.00  0.00    -0.213 A  
HETATM    4  C   UNL     1      -9.634  10.574  68.984  1.00  0.00    -0.202 A  
HETATM    5  N   UNL     1     -11.522   9.857  70.022  1.00  0.00    -0.239 NA 
HETATM    6  C   UNL     1      -8.867  11.401  68.159  1.00  0.00    -0.162 A  
HETATM    7  C   UNL     1     -10.988  10.789  69.174  1.00  0.00    -0.244 A  
HETATM    8  C   UNL     1      -9.530  12.474  67.529  1.00  0.00    -0.185 A  
HETATM    9  C   UNL     1     -11.619  11.859  68.525  1.00  0.00    -0.375 A  
HETATM   10  C   UNL     1     -10.899  12.744  67.699  1.00  0.00    -0.228 A  
ENDROOT
BRANCH   3  11
HETATM   11  C   UNL     1     -10.723   7.849  71.223  1.00  0.00    -0.257 C  
BRANCH  11  12
HETATM   12  C   UNL     1     -11.643   6.838  70.525  1.00  0.00    -0.426 C  
BRANCH  12  13
HETATM   13  C   UNL     1     -10.873   5.710  69.851  1.00  0.00    -0.370 C  
HETATM   14  O   UNL     1     -11.365   6.354  67.592  1.00  0.00    -0.267 OA 
HETATM   15  O   UNL     1      -9.195   6.204  68.190  1.00  0.00    -0.119 OA 
HETATM   16  C   UNL     1     -10.379   6.118  68.483  1.00  0.00    -0.207 C  
ENDBRANCH  12  13
ENDBRANCH  11  12
ENDBRANCH   3  11
BRANCH  10  17
HETATM   17  N   UNL     1     -11.526  13.837  67.107  1.00  0.00    -0.324 NA 
BRANCH  17  18
HETATM   18  C   UNL     1     -11.374  15.216  67.605  1.00  0.00    -0.321 C  
HETATM   19 CL   UNL     1      -9.261  15.718  65.900  1.00  0.00    -0.369 Cl 
HETATM   20  C   UNL     1      -9.931  15.728  67.555  1.00  0.00    -0.236 C  
ENDBRANCH  17  18
BRANCH  17  21
HETATM   21  C   UNL     1     -12.512  13.626  66.025  1.00  0.00    -0.426 C  
HETATM   22 CL   UNL     1     -10.604  12.981  64.141  1.00  0.00    -0.430 Cl 
HETATM   23  C   UNL     1     -11.984  14.002  64.635  1.00  0.00    -0.430 C  
ENDBRANCH  17  21
ENDBRANCH  10  17
TORSDOF 6
ENDMDL
MODEL      110
REMARK 921   NORMALIZED FREE ENERGY PREDICTED BY IDOCK:   -4.66 KCAL/MOL
REMARK 922        TOTAL FREE ENERGY PREDICTED BY IDOCK:   -7.07 KCAL/MOL
REMARK 923 INTER-LIGAND FREE ENERGY PREDICTED BY IDOCK:   -6.41 KCAL/MOL
REMARK 924 INTRA-LIGAND FREE ENERGY PREDICTED BY IDOCK:   -0.66 KCAL/MOL
REMARK 927      BINDING AFFINITY PREDICTED BY RF-SCORE:    0.00 PKD
ROOT
HETATM    1  C   UNL     1      -9.959   7.217  68.631  1.00  0.00    -0.159 C  
HETATM    2  N   UNL     1     -10.327   8.450  69.289  1.00  0.00    -0.213 NA 
HETATM    3  C   UNL     1     -10.486   8.685  70.640  1.00  0.00    -0.204 A  
HETATM    4  C   UNL     1     -10.600   9.623  68.616  1.00  0.00    -0.217 A  
HETATM    5  N   UNL     1     -10.815   9.945  70.853  1.00  0.00    -0.321 NA 
HETATM    6  C   UNL     1     -10.618   9.986  67.267  1.00  0.00    -0.319 A  
HETATM    7  C   UNL     1     -10.903  10.528  69.618  1.00  0.00    -0.274 A  
HETATM    8  C   UNL     1     -10.954  11.322  66.965  1.00  0.00    -0.352 A  
HETATM    9  C   UNL     1     -11.243  11.846  69.283  1.00  0.00    -0.304 A  
HETATM   10  C   UNL     1     -11.258  12.283  67.945  1.00  0.00    -0.274 A  
ENDROOT
BRANCH   3  11
HETATM   11  C   UNL     1     -10.346   7.690  71.751  1.00  0.00    -0.233 C  
BRANCH  11  12
HETATM   12  C   UNL     1     -11.616   6.834  71.843  1.00  0.00    -0.330 C  
BRANCH  12  13
HETATM   13  C   UNL     1     -11.345   5.435  72.382  1.00  0.00    -0.242 C  
HETATM   14  O   UNL     1     -10.345   4.560  70.383  1.00  0.00    -0.161 OA 
HETATM   15  O   UNL     1      -9.124   4.501  72.278  1.00  0.00    -0.123 OA 
HETATM   16  C   UNL     1     -10.157   4.800  71.698  1.00  0.00    -0.194 C  
ENDBRANCH  12  13
ENDBRANCH  11  12
ENDBRANCH   3  11
BRANCH  10  17
HETATM   17  N   UNL     1     -11.541  13.609  67.630  1.00  0.00    -0.325 NA 
BRANCH  17  18
HETATM   18  C   UNL     1     -12.410  14.000  66.506  1.00  0.00    -0.404 C  
HETATM   19 CL   UNL     1     -10.334  13.825  64.694  1.00  0.00    -0.444 Cl 
HETATM   20  C   UNL     1     -11.674  14.768  65.403  1.00  0.00    -0.289 C  
ENDBRANCH  17  18
BRANCH  17  21
HETATM   21  C   UNL     1     -10.837  14.701  68.337  1.00  0.00    -0.245 C  
HETATM   22 CL   UNL     1     -12.682  14.835  70.382  1.00  0.00    -0.387 Cl 
HETATM   23  C   UNL     1     -11.781  15.657  69.078  1.00  0.00    -0.395 C  
ENDBRANCH  17  21
ENDBRANCH  10  17
TORSDOF 6
ENDMDL
MODEL      111
REMARK 921   NORMALIZED FREE ENERGY PREDICTED BY IDOCK:   -4.62 KCAL/MOL
REMARK 922        TOTAL FREE ENERGY PREDICTED BY IDOCK:   -7.02 KCAL/MOL
REMARK 923 INTER-LIGAND FREE ENERGY PREDICTED BY IDOCK:   -6.15 KCAL/MOL
REMARK 924 INTRA-LIGAND FREE ENERGY PREDICTED BY IDOCK:   -0.87 KCAL/MOL
REMARK 927      BINDING AFFINITY PREDICTED BY RF-SCORE:    0.00 PKD
ROOT
HETATM    1  C   UNL     1     -12.467  10.198  71.487  1.00  0.00    -0.427 C  
HETATM    2  N   UNL     1     -11.412  10.450  70.530  1.00  0.00    -0.327 NA 
HETATM    3  C   UNL     1     -10.260   9.722  70.315  1.00  0.00    -0.289 A  
HETATM    4  C   UNL     1     -11.409  11.522  69.663  1.00  0.00    -0.256 A  
HETATM    5  N   UNL     1      -9.548  10.262  69.344  1.00  0.00    -0.223 NA 
HETATM    6  C   UNL     1     -12.285  12.587  69.432  1.00  0.00    -0.117 A  
HETATM    7  C   UNL     1     -10.235  11.376  68.945  1.00  0.00    -0.168 A  
HETATM    8  C   UNL     1     -11.925  13.509  68.428  1.00  0.00    -0.378 A  
HETATM    9  C   UNL     1      -9.902  12.316  67.961  1.00  0.00    -0.204 A  
HETATM   10  C   UNL     1     -10.751  13.400  67.663  1.00  0.00    -0.247 A  
ENDROOT
BRANCH   3  11
HETATM   11  C   UNL     1      -9.810   8.504  71.062  1.00  0.00    -0.245 C  
BRANCH  11  12
HETATM   12  C   UNL     1      -9.969   7.263  70.174  1.00  0.00    -0.184 C  
BRANCH  12  13
HETATM   13  C   UNL     1     -11.395   6.729  70.159  1.00  0.00    -0.404 C  
HETATM   14  O   UNL     1     -11.228   5.439  72.175  1.00  0.00    -0.217 OA 
HETATM   15  O   UNL     1     -12.827   7.026  72.077  1.00  0.00    -0.270 OA 
HETATM   16  C   UNL     1     -11.892   6.437  71.555  1.00  0.00    -0.298 C  
ENDBRANCH  12  13
ENDBRANCH  11  12
ENDBRANCH   3  11
BRANCH  10  17
HETATM   17  N   UNL     1     -10.436  14.293  66.643  1.00  0.00    -0.275 NA 
BRANCH  17  18
HETATM   18  C   UNL     1     -10.364  15.751  66.846  1.00  0.00    -0.295 C  
HETATM   19 CL   UNL     1      -7.699  15.633  67.559  1.00  0.00    -0.173 Cl 
HETATM   20  C   UNL     1      -9.361  16.168  67.928  1.00  0.00    -0.212 C  
ENDBRANCH  17  18
BRANCH  17  21
HETATM   21  C   UNL     1     -10.311  13.810  65.251  1.00  0.00    -0.361 C  
HETATM   22 CL   UNL     1     -13.024  13.446  64.922  1.00  0.00    -0.271 Cl 
HETATM   23  C   UNL     1     -11.372  12.771  64.866  1.00  0.00    -0.306 C  
ENDBRANCH  17  21
ENDBRANCH  10  17
TORSDOF 6
ENDMDL
MODEL      112
REMARK 921   NORMALIZED FREE ENERGY PREDICTED BY IDOCK:   -4.61 KCAL/MOL
REMARK 922        TOTAL FREE ENERGY PREDICTED BY IDOCK:   -7.00 KCAL/MOL
REMARK 923 INTER-LIGAND FREE ENERGY PREDICTED BY IDOCK:   -6.23 KCAL/MOL
REMARK 924 INTRA-LIGAND FREE ENERGY PREDICTED BY IDOCK:   -0.77 KCAL/MOL
REMARK 927      BINDING AFFINITY PREDICTED BY RF-SCORE:    0.00 PKD
ROOT
HETATM    1  C   UNL     1     -10.535  11.443  64.862  1.00  0.00    -0.305 C  
HETATM    2  N   UNL     1     -10.939  11.304  66.243  1.00  0.00    -0.246 NA 
HETATM    3  C   UNL     1     -11.615  12.212  67.032  1.00  0.00    -0.337 A  
HETATM    4  C   UNL     1     -10.676  10.186  67.006  1.00  0.00    -0.196 A  
HETATM    5  N   UNL     1     -11.815  11.716  68.238  1.00  0.00    -0.516 NA 
HETATM    6  C   UNL     1     -10.024   8.975  66.761  1.00  0.00    -0.332 A  
HETATM    7  C   UNL     1     -11.230  10.479  68.241  1.00  0.00    -0.291 A  
HETATM    8  C   UNL     1      -9.957   8.054  67.827  1.00  0.00    -0.224 A  
HETATM    9  C   UNL     1     -11.138   9.545  69.282  1.00  0.00    -0.109 A  
HETATM   10  C   UNL     1     -10.514   8.297  69.095  1.00  0.00    -0.206 A  
ENDROOT
BRANCH   3  11
HETATM   11  C   UNL     1     -12.061  13.589  66.643  1.00  0.00    -0.447 C  
BRANCH  11  12
HETATM   12  C   UNL     1     -11.126  14.632  67.268  1.00  0.00    -0.331 C  
BRANCH  12  13
HETATM   13  C   UNL     1     -11.879  15.712  68.035  1.00  0.00    -0.032 C  
HETATM   14  O   UNL     1     -12.219  14.439  70.040  1.00  0.00    -0.318 OA 
HETATM   15  O   UNL     1     -11.127  16.404  70.219  1.00  0.00    -0.359 OA 
HETATM   16  C   UNL     1     -11.688  15.568  69.526  1.00  0.00    -0.365 C  
ENDBRANCH  12  13
ENDBRANCH  11  12
ENDBRANCH   3  11
BRANCH  10  17
HETATM   17  N   UNL     1     -10.480   7.356  70.120  1.00  0.00    -0.215 NA 
BRANCH  17  18
HETATM   18  C   UNL     1      -9.237   6.956  70.803  1.00  0.00    -0.158 C  
HETATM   19 CL   UNL     1      -8.594   5.151  68.816  1.00  0.00    -0.087 Cl 
HETATM   20  C   UNL     1      -8.842   5.497  70.549  1.00  0.00    -0.136 C  
ENDBRANCH  17  18
BRANCH  17  21
HETATM   21  C   UNL     1     -11.701   6.594  70.463  1.00  0.00    -0.394 C  
HETATM   22 CL   UNL     1     -12.314   8.169  72.641  1.00  0.00    -0.301 Cl 
HETATM   23  C   UNL     1     -11.990   6.547  71.969  1.00  0.00    -0.326 C  
ENDBRANCH  17  21
ENDBRANCH  10  17
TORSDOF 6
ENDMDL
MODEL      113
REMARK 921   NORMALIZED FREE ENERGY PREDICTED BY IDOCK:   -4.60 KCAL/MOL
REMARK 922        TOTAL FREE ENERGY PREDICTED BY IDOCK:   -6.99 KCAL/MOL
REMARK 923 INTER-LIGAND FREE ENERGY PREDICTED BY IDOCK:   -6.41 KCAL/MOL
REMARK 924 INTRA-LIGAND FREE ENERGY PREDICTED BY IDOCK:   -0.58 KCAL/MOL
REMARK 927      BINDING AFFINITY PREDICTED BY RF-SCORE:    0.00 PKD
ROOT
HETATM    1  C   UNL     1      -8.786   8.620  71.129  1.00  0.00    -0.199 C  
HETATM    2  N   UNL     1     -10.032   9.286  70.819  1.00  0.00    -0.269 NA 
HETATM    3  C   UNL     1     -11.286   9.040  71.337  1.00  0.00    -0.323 A  
HETATM    4  C   UNL     1     -10.142  10.308  69.899  1.00  0.00    -0.171 A  
HETATM    5  N   UNL     1     -12.172   9.866  70.815  1.00  0.00    -0.298 NA 
HETATM    6  C   UNL     1      -9.235  10.965  69.063  1.00  0.00    -0.128 A  
HETATM    7  C   UNL     1     -11.486  10.641  69.918  1.00  0.00    -0.317 A  
HETATM    8  C   UNL     1      -9.744  11.990  68.240  1.00  0.00    -0.205 A  
HETATM    9  C   UNL     1     -11.962  11.658  69.081  1.00  0.00    -0.378 A  
HETATM   10  C   UNL     1     -11.097  12.374  68.232  1.00  0.00    -0.243 A  
ENDROOT
BRANCH   3  11
HETATM   11  C   UNL     1     -11.659   7.982  72.330  1.00  0.00    -0.450 C  
BRANCH  11  12
HETATM   12  C   UNL     1     -12.054   6.695  71.594  1.00  0.00    -0.404 C  
BRANCH  12  13
HETATM   13  C   UNL     1     -12.123   5.486  72.519  1.00  0.00     0.007 C  
HETATM   14  O   UNL     1      -9.775   4.991  72.501  1.00  0.00    -0.150 OA 
HETATM   15  O   UNL     1     -10.747   5.387  74.497  1.00  0.00    -0.293 OA 
HETATM   16  C   UNL     1     -10.833   5.298  73.281  1.00  0.00    -0.297 C  
ENDBRANCH  12  13
ENDBRANCH  11  12
ENDBRANCH   3  11
BRANCH  10  17
HETATM   17  N   UNL     1     -11.572  13.422  67.448  1.00  0.00    -0.333 NA 
BRANCH  17  18
HETATM   18  C   UNL     1     -11.892  14.753  67.994  1.00  0.00    -0.294 C  
HETATM   19 CL   UNL     1      -9.228  15.336  68.429  1.00  0.00    -0.188 Cl 
HETATM   20  C   UNL     1     -10.896  15.232  69.057  1.00  0.00    -0.244 C  
ENDBRANCH  17  18
BRANCH  17  21
HETATM   21  C   UNL     1     -11.928  13.182  66.033  1.00  0.00    -0.433 C  
HETATM   22 CL   UNL     1     -10.324  15.212  65.078  1.00  0.00    -0.407 Cl 
HETATM   23  C   UNL     1     -11.939  14.458  65.180  1.00  0.00    -0.391 C  
ENDBRANCH  17  21
ENDBRANCH  10  17
TORSDOF 6
ENDMDL
MODEL      114
REMARK 921   NORMALIZED FREE ENERGY PREDICTED BY IDOCK:   -4.58 KCAL/MOL
REMARK 922        TOTAL FREE ENERGY PREDICTED BY IDOCK:   -6.96 KCAL/MOL
REMARK 923 INTER-LIGAND FREE ENERGY PREDICTED BY IDOCK:   -6.92 KCAL/MOL
REMARK 924 INTRA-LIGAND FREE ENERGY PREDICTED BY IDOCK:   -0.03 KCAL/MOL
REMARK 927      BINDING AFFINITY PREDICTED BY RF-SCORE:    0.00 PKD
ROOT
HETATM    1  C   UNL     1     -11.407  14.029  68.877  1.00  0.00    -0.280 C  
HETATM    2  N   UNL     1     -10.820  14.750  67.770  1.00  0.00    -0.272 NA 
HETATM    3  C   UNL     1     -11.159  14.691  66.434  1.00  0.00    -0.334 A  
HETATM    4  C   UNL     1      -9.771  15.636  67.906  1.00  0.00    -0.211 A  
HETATM    5  N   UNL     1     -10.401  15.509  65.729  1.00  0.00    -0.336 NA 
HETATM    6  C   UNL     1      -9.014  16.084  68.992  1.00  0.00    -0.244 A  
HETATM    7  C   UNL     1      -9.534  16.084  66.619  1.00  0.00    -0.237 A  
HETATM    8  C   UNL     1      -7.996  17.022  68.722  1.00  0.00    -0.248 A  
HETATM    9  C   UNL     1      -8.508  17.009  66.383  1.00  0.00    -0.318 A  
HETATM   10  C   UNL     1      -7.723  17.518  67.436  1.00  0.00    -0.198 A  
ENDROOT
BRANCH   3  11
HETATM   11  C   UNL     1     -12.208  13.823  65.807  1.00  0.00    -0.495 C  
BRANCH  11  12
HETATM   12  C   UNL     1     -11.994  12.365  66.231  1.00  0.00    -0.369 C  
BRANCH  12  13
HETATM   13  C   UNL     1     -10.933  11.659  65.397  1.00  0.00    -0.328 C  
HETATM   14  O   UNL     1     -12.158  11.662  63.334  1.00  0.00    -0.441 OA 
HETATM   15  O   UNL     1     -10.133  12.653  63.350  1.00  0.00    -0.367 OA 
HETATM   16  C   UNL     1     -11.019  12.054  63.942  1.00  0.00    -0.401 C  
ENDBRANCH  12  13
ENDBRANCH  11  12
ENDBRANCH   3  11
BRANCH  10  17
HETATM   17  N   UNL     1      -6.746  18.480  67.196  1.00  0.00    -0.195 NA 
BRANCH  17  18
HETATM   18  C   UNL     1      -5.584  18.244  66.320  1.00  0.00    -0.159 C  
HETATM   19 CL   UNL     1      -6.419  20.155  64.510  1.00  0.00    -0.287 Cl 
HETATM   20  C   UNL     1      -5.880  18.485  64.835  1.00  0.00    -0.186 C  
ENDBRANCH  17  18
BRANCH  17  21
HETATM   21  C   UNL     1      -6.760  19.750  67.952  1.00  0.00    -0.245 C  
HETATM   22 CL   UNL     1      -9.461  20.168  67.590  1.00  0.00    -0.499 Cl 
HETATM   23  C   UNL     1      -7.785  20.764  67.428  1.00  0.00    -0.273 C  
ENDBRANCH  17  21
ENDBRANCH  10  17
TORSDOF 6
ENDMDL
MODEL      115
REMARK 921   NORMALIZED FREE ENERGY PREDICTED BY IDOCK:   -4.54 KCAL/MOL
REMARK 922        TOTAL FREE ENERGY PREDICTED BY IDOCK:   -6.91 KCAL/MOL
REMARK 923 INTER-LIGAND FREE ENERGY PREDICTED BY IDOCK:   -6.17 KCAL/MOL
REMARK 924 INTRA-LIGAND FREE ENERGY PREDICTED BY IDOCK:   -0.74 KCAL/MOL
REMARK 927      BINDING AFFINITY PREDICTED BY RF-SCORE:    0.00 PKD
ROOT
HETATM    1  C   UNL     1      -7.117   8.639  68.102  1.00  0.00    -0.082 C  
HETATM    2  N   UNL     1      -8.492   8.944  67.772  1.00  0.00    -0.124 NA 
HETATM    3  C   UNL     1      -9.586   8.104  67.803  1.00  0.00    -0.151 A  
HETATM    4  C   UNL     1      -8.916  10.184  67.344  1.00  0.00    -0.134 A  
HETATM    5  N   UNL     1     -10.677   8.754  67.445  1.00  0.00    -0.223 NA 
HETATM    6  C   UNL     1      -8.273  11.402  67.108  1.00  0.00    -0.157 A  
HETATM    7  C   UNL     1     -10.277  10.029  67.146  1.00  0.00    -0.228 A  
HETATM    8  C   UNL     1      -9.072  12.476  66.662  1.00  0.00    -0.203 A  
HETATM    9  C   UNL     1     -11.041  11.113  66.693  1.00  0.00    -0.255 A  
HETATM   10  C   UNL     1     -10.460  12.373  66.458  1.00  0.00    -0.230 A  
ENDROOT
BRANCH   3  11
HETATM   11  C   UNL     1      -9.596   6.648  68.156  1.00  0.00    -0.120 C  
BRANCH  11  12
HETATM   12  C   UNL     1     -10.979   6.252  68.687  1.00  0.00    -0.423 C  
BRANCH  12  13
HETATM   13  C   UNL     1     -10.987   6.018  70.193  1.00  0.00    -0.429 C  
HETATM   14  O   UNL     1     -11.403   8.296  70.822  1.00  0.00    -0.268 OA 
HETATM   15  O   UNL     1     -12.866   6.731  71.526  1.00  0.00    -0.346 OA 
HETATM   16  C   UNL     1     -11.856   7.028  70.905  1.00  0.00    -0.356 C  
ENDBRANCH  12  13
ENDBRANCH  11  12
ENDBRANCH   3  11
BRANCH  10  17
HETATM   17  N   UNL     1     -11.240  13.457  66.064  1.00  0.00    -0.294 NA 
BRANCH  17  18
HETATM   18  C   UNL     1     -11.005  14.205  64.816  1.00  0.00    -0.400 C  
HETATM   19 CL   UNL     1      -9.352  16.018  66.082  1.00  0.00    -0.351 Cl 
HETATM   20  C   UNL     1     -10.764  15.702  65.037  1.00  0.00    -0.436 C  
ENDBRANCH  17  18
BRANCH  17  21
HETATM   21  C   UNL     1     -12.261  14.004  66.984  1.00  0.00    -0.352 C  
HETATM   22 CL   UNL     1     -10.421  14.779  68.886  1.00  0.00    -0.243 Cl 
HETATM   23  C   UNL     1     -11.891  13.857  68.465  1.00  0.00    -0.366 C  
ENDBRANCH  17  21
ENDBRANCH  10  17
TORSDOF 6
ENDMDL
MODEL      116
REMARK 921   NORMALIZED FREE ENERGY PREDICTED BY IDOCK:   -4.53 KCAL/MOL
REMARK 922        TOTAL FREE ENERGY PREDICTED BY IDOCK:   -6.90 KCAL/MOL
REMARK 923 INTER-LIGAND FREE ENERGY PREDICTED BY IDOCK:   -6.13 KCAL/MOL
REMARK 924 INTRA-LIGAND FREE ENERGY PREDICTED BY IDOCK:   -0.76 KCAL/MOL
REMARK 927      BINDING AFFINITY PREDICTED BY RF-SCORE:    0.00 PKD
ROOT
HETATM    1  C   UNL     1     -10.851   8.387  70.697  1.00  0.00    -0.231 C  
HETATM    2  N   UNL     1     -10.477   8.764  69.352  1.00  0.00    -0.221 NA 
HETATM    3  C   UNL     1      -9.725   8.051  68.441  1.00  0.00    -0.158 A  
HETATM    4  C   UNL     1     -10.829   9.963  68.769  1.00  0.00    -0.208 A  
HETATM    5  N   UNL     1      -9.609   8.723  67.311  1.00  0.00    -0.157 NA 
HETATM    6  C   UNL     1     -11.558  11.075  69.201  1.00  0.00    -0.389 A  
HETATM    7  C   UNL     1     -10.269   9.906  67.505  1.00  0.00    -0.216 A  
HETATM    8  C   UNL     1     -11.707  12.140  68.288  1.00  0.00    -0.401 A  
HETATM    9  C   UNL     1     -10.428  10.985  66.625  1.00  0.00    -0.307 A  
HETATM   10  C   UNL     1     -11.170  12.125  66.989  1.00  0.00    -0.314 A  
ENDROOT
BRANCH   3  11
HETATM   11  C   UNL     1      -9.082   6.714  68.653  1.00  0.00    -0.126 C  
BRANCH  11  12
HETATM   12  C   UNL     1     -10.127   5.604  68.491  1.00  0.00    -0.236 C  
BRANCH  12  13
HETATM   13  C   UNL     1     -10.007   4.522  69.557  1.00  0.00    -0.235 C  
HETATM   14  O   UNL     1      -9.616   2.695  68.052  1.00  0.00    -0.197 OA 
HETATM   15  O   UNL     1      -8.061   3.100  69.635  1.00  0.00    -0.048 OA 
HETATM   16  C   UNL     1      -9.121   3.389  69.098  1.00  0.00    -0.142 C  
ENDBRANCH  12  13
ENDBRANCH  11  12
ENDBRANCH   3  11
BRANCH  10  17
HETATM   17  N   UNL     1     -11.369  13.165  66.085  1.00  0.00    -0.303 NA 
BRANCH  17  18
HETATM   18  C   UNL     1     -12.549  13.251  65.207  1.00  0.00    -0.470 C  
HETATM   19 CL   UNL     1     -11.392  11.619  63.304  1.00  0.00    -0.376 Cl 
HETATM   20  C   UNL     1     -12.210  13.151  63.715  1.00  0.00    -0.456 C  
ENDBRANCH  17  18
BRANCH  17  21
HETATM   21  C   UNL     1     -10.300  14.163  65.861  1.00  0.00    -0.316 C  
HETATM   22 CL   UNL     1     -11.089  15.773  67.956  1.00  0.00    -0.332 Cl 
HETATM   23  C   UNL     1     -10.716  15.595  66.219  1.00  0.00    -0.295 C  
ENDBRANCH  17  21
ENDBRANCH  10  17
TORSDOF 6
ENDMDL
MODEL      117
REMARK 921   NORMALIZED FREE ENERGY PREDICTED BY IDOCK:   -4.52 KCAL/MOL
REMARK 922        TOTAL FREE ENERGY PREDICTED BY IDOCK:   -6.88 KCAL/MOL
REMARK 923 INTER-LIGAND FREE ENERGY PREDICTED BY IDOCK:   -6.21 KCAL/MOL
REMARK 924 INTRA-LIGAND FREE ENERGY PREDICTED BY IDOCK:   -0.67 KCAL/MOL
REMARK 927      BINDING AFFINITY PREDICTED BY RF-SCORE:    0.00 PKD
ROOT
HETATM    1  C   UNL     1     -12.598  14.352  65.475  1.00  0.00    -0.333 C  
HETATM    2  N   UNL     1     -11.321  14.157  66.124  1.00  0.00    -0.329 NA 
HETATM    3  C   UNL     1     -10.375  15.106  66.455  1.00  0.00    -0.286 A  
HETATM    4  C   UNL     1     -10.841  12.923  66.510  1.00  0.00    -0.271 A  
HETATM    5  N   UNL     1      -9.342  14.541  67.051  1.00  0.00    -0.228 NA 
HETATM    6  C   UNL     1     -11.336  11.619  66.425  1.00  0.00    -0.312 A  
HETATM    7  C   UNL     1      -9.609  13.198  67.078  1.00  0.00    -0.241 A  
HETATM    8  C   UNL     1     -10.528  10.589  66.949  1.00  0.00    -0.303 A  
HETATM    9  C   UNL     1      -8.826  12.150  67.580  1.00  0.00    -0.172 A  
HETATM   10  C   UNL     1      -9.275  10.817  67.546  1.00  0.00    -0.143 A  
ENDROOT
BRANCH   3  11
HETATM   11  C   UNL     1     -10.440  16.577  66.179  1.00  0.00    -0.301 C  
BRANCH  11  12
HETATM   12  C   UNL     1     -10.398  17.356  67.500  1.00  0.00    -0.351 C  
BRANCH  12  13
HETATM   13  C   UNL     1     -10.814  18.812  67.338  1.00  0.00    -0.414 C  
HETATM   14  O   UNL     1      -9.031  19.445  65.863  1.00  0.00    -0.422 OA 
HETATM   15  O   UNL     1     -11.146  19.746  65.140  1.00  0.00    -0.349 OA 
HETATM   16  C   UNL     1     -10.371  19.370  66.007  1.00  0.00    -0.497 C  
ENDBRANCH  12  13
ENDBRANCH  11  12
ENDBRANCH   3  11
BRANCH  10  17
HETATM   17  N   UNL     1      -8.513   9.793  68.101  1.00  0.00    -0.114 NA 
BRANCH  17  18
HETATM   18  C   UNL     1      -8.327   9.627  69.554  1.00  0.00    -0.152 C  
HETATM   19 CL   UNL     1     -10.680   8.205  69.806  1.00  0.00    -0.245 Cl 
HETATM   20  C   UNL     1      -9.644   9.559  70.335  1.00  0.00    -0.269 C  
ENDBRANCH  17  18
BRANCH  17  21
HETATM   21  C   UNL     1      -7.719   8.905  67.225  1.00  0.00    -0.092 C  
HETATM   22 CL   UNL     1      -9.854   7.271  66.610  1.00  0.00    -0.272 Cl 
HETATM   23  C   UNL     1      -8.193   7.446  67.241  1.00  0.00    -0.115 C  
ENDBRANCH  17  21
ENDBRANCH  10  17
TORSDOF 6
ENDMDL
MODEL      118
REMARK 921   NORMALIZED FREE ENERGY PREDICTED BY IDOCK:   -4.48 KCAL/MOL
REMARK 922        TOTAL FREE ENERGY PREDICTED BY IDOCK:   -6.83 KCAL/MOL
REMARK 923 INTER-LIGAND FREE ENERGY PREDICTED BY IDOCK:   -6.01 KCAL/MOL
REMARK 924 INTRA-LIGAND FREE ENERGY PREDICTED BY IDOCK:   -0.82 KCAL/MOL
REMARK 927      BINDING AFFINITY PREDICTED BY RF-SCORE:    0.00 PKD
ROOT
HETATM    1  C   UNL     1     -12.385  13.836  70.512  1.00  0.00    -0.359 C  
HETATM    2  N   UNL     1     -11.836  13.287  69.292  1.00  0.00    -0.322 NA 
HETATM    3  C   UNL     1     -11.651  13.915  68.078  1.00  0.00    -0.333 A  
HETATM    4  C   UNL     1     -11.413  11.980  69.167  1.00  0.00    -0.300 A  
HETATM    5  N   UNL     1     -11.110  13.085  67.206  1.00  0.00    -0.265 NA 
HETATM    6  C   UNL     1     -11.370  10.886  70.035  1.00  0.00    -0.386 A  
HETATM    7  C   UNL     1     -10.973  11.889  67.858  1.00  0.00    -0.222 A  
HETATM    8  C   UNL     1     -10.851   9.679  69.523  1.00  0.00    -0.253 A  
HETATM    9  C   UNL     1     -10.472  10.671  67.377  1.00  0.00    -0.280 A  
HETATM   10  C   UNL     1     -10.380   9.537  68.206  1.00  0.00    -0.207 A  
ENDROOT
BRANCH   3  11
HETATM   11  C   UNL     1     -12.016  15.325  67.727  1.00  0.00     0.020 C  
BRANCH  11  12
HETATM   12  C   UNL     1     -10.743  16.145  67.482  1.00  0.00    -0.304 C  
BRANCH  12  13
HETATM   13  C   UNL     1     -10.434  17.107  68.623  1.00  0.00    -0.366 C  
HETATM   14  O   UNL     1      -8.114  16.538  68.841  1.00  0.00    -0.227 OA 
HETATM   15  O   UNL     1      -8.628  18.693  68.422  1.00  0.00    -0.319 OA 
HETATM   16  C   UNL     1      -8.987  17.539  68.606  1.00  0.00    -0.260 C  
ENDBRANCH  12  13
ENDBRANCH  11  12
ENDBRANCH   3  11
BRANCH  10  17
HETATM   17  N   UNL     1      -9.826   8.351  67.732  1.00  0.00    -0.166 NA 
BRANCH  17  18
HETATM   18  C   UNL     1      -8.374   8.143  67.589  1.00  0.00    -0.127 C  
HETATM   19 CL   UNL     1      -8.063   7.663  70.290  1.00  0.00    -0.112 Cl 
HETATM   20  C   UNL     1      -7.572   8.560  68.827  1.00  0.00    -0.097 C  
ENDBRANCH  17  18
BRANCH  17  21
HETATM   21  C   UNL     1     -10.705   7.287  67.199  1.00  0.00    -0.343 C  
HETATM   22 CL   UNL     1     -11.311   6.265  69.687  1.00  0.00    -0.500 Cl 
HETATM   23  C   UNL     1     -10.686   6.001  68.036  1.00  0.00    -0.282 C  
ENDBRANCH  17  21
ENDBRANCH  10  17
TORSDOF 6
ENDMDL
MODEL      119
REMARK 921   NORMALIZED FREE ENERGY PREDICTED BY IDOCK:   -4.47 KCAL/MOL
REMARK 922        TOTAL FREE ENERGY PREDICTED BY IDOCK:   -6.82 KCAL/MOL
REMARK 923 INTER-LIGAND FREE ENERGY PREDICTED BY IDOCK:   -5.94 KCAL/MOL
REMARK 924 INTRA-LIGAND FREE ENERGY PREDICTED BY IDOCK:   -0.88 KCAL/MOL
REMARK 927      BINDING AFFINITY PREDICTED BY RF-SCORE:    0.00 PKD
ROOT
HETATM    1  C   UNL     1     -11.250   6.484  69.880  1.00  0.00    -0.395 C  
HETATM    2  N   UNL     1     -11.128   7.919  70.011  1.00  0.00    -0.211 NA 
HETATM    3  C   UNL     1     -11.360   8.699  71.125  1.00  0.00    -0.275 A  
HETATM    4  C   UNL     1     -10.755   8.751  68.976  1.00  0.00    -0.112 A  
HETATM    5  N   UNL     1     -11.127   9.970  70.855  1.00  0.00    -0.339 NA 
HETATM    6  C   UNL     1     -10.416   8.542  67.636  1.00  0.00    -0.308 A  
HETATM    7  C   UNL     1     -10.770  10.017  69.534  1.00  0.00    -0.244 A  
HETATM    8  C   UNL     1     -10.081   9.680  66.873  1.00  0.00    -0.290 A  
HETATM    9  C   UNL     1     -10.441  11.128  68.745  1.00  0.00    -0.227 A  
HETATM   10  C   UNL     1     -10.069  10.985  67.395  1.00  0.00    -0.186 A  
ENDROOT
BRANCH   3  11
HETATM   11  C   UNL     1     -11.836   8.235  72.467  1.00  0.00    -0.439 C  
BRANCH  11  12
HETATM   12  C   UNL     1     -10.744   7.398  73.144  1.00  0.00    -0.436 C  
BRANCH  12  13
HETATM   13  C   UNL     1      -9.373   8.061  73.086  1.00  0.00    -0.346 C  
HETATM   14  O   UNL     1      -8.088   6.035  73.070  1.00  0.00    -0.112 OA 
HETATM   15  O   UNL     1      -7.806   7.468  71.352  1.00  0.00    -0.091 OA 
HETATM   16  C   UNL     1      -8.359   7.176  72.402  1.00  0.00    -0.108 C  
ENDBRANCH  12  13
ENDBRANCH  11  12
ENDBRANCH   3  11
BRANCH  10  17
HETATM   17  N   UNL     1      -9.689  12.090  66.639  1.00  0.00    -0.204 NA 
BRANCH  17  18
HETATM   18  C   UNL     1      -8.618  13.015  67.051  1.00  0.00    -0.162 C  
HETATM   19 CL   UNL     1      -6.643  11.210  66.369  1.00  0.00    -0.130 Cl 
HETATM   20  C   UNL     1      -7.366  12.305  67.580  1.00  0.00    -0.137 C  
ENDBRANCH  17  18
BRANCH  17  21
HETATM   21  C   UNL     1     -10.470  12.470  65.443  1.00  0.00    -0.282 C  
HETATM   22 CL   UNL     1     -12.221  14.071  66.849  1.00  0.00    -0.461 Cl 
HETATM   23  C   UNL     1     -11.959  12.702  65.733  1.00  0.00    -0.446 C  
ENDBRANCH  17  21
ENDBRANCH  10  17
TORSDOF 6
ENDMDL
MODEL      120
REMARK 921   NORMALIZED FREE ENERGY PREDICTED BY IDOCK:   -4.47 KCAL/MOL
REMARK 922        TOTAL FREE ENERGY PREDICTED BY IDOCK:   -6.82 KCAL/MOL
REMARK 923 INTER-LIGAND FREE ENERGY PREDICTED BY IDOCK:   -6.33 KCAL/MOL
REMARK 924 INTRA-LIGAND FREE ENERGY PREDICTED BY IDOCK:   -0.48 KCAL/MOL
REMARK 927      BINDING AFFINITY PREDICTED BY RF-SCORE:    0.00 PKD
ROOT
HETATM    1  C   UNL     1      -8.848  16.284  69.052  1.00  0.00    -0.243 C  
HETATM    2  N   UNL     1      -9.524  15.026  68.827  1.00  0.00    -0.204 NA 
HETATM    3  C   UNL     1     -10.824  14.684  69.141  1.00  0.00    -0.259 A  
HETATM    4  C   UNL     1      -8.922  13.929  68.248  1.00  0.00    -0.187 A  
HETATM    5  N   UNL     1     -11.079  13.445  68.767  1.00  0.00    -0.252 NA 
HETATM    6  C   UNL     1      -7.641  13.675  67.749  1.00  0.00    -0.167 A  
HETATM    7  C   UNL     1      -9.915  12.964  68.230  1.00  0.00    -0.234 A  
HETATM    8  C   UNL     1      -7.401  12.390  67.218  1.00  0.00    -0.127 A  
HETATM    9  C   UNL     1      -9.640  11.695  67.705  1.00  0.00    -0.184 A  
HETATM   10  C   UNL     1      -8.378  11.380  67.166  1.00  0.00    -0.155 A  
ENDROOT
BRANCH   3  11
HETATM   11  C   UNL     1     -11.839  15.542  69.833  1.00  0.00    -0.380 C  
BRANCH  11  12
HETATM   12  C   UNL     1     -12.985  14.668  70.358  1.00  0.00    -0.249 C  
BRANCH  12  13
HETATM   13  C   UNL     1     -13.884  15.406  71.342  1.00  0.00    -0.577 C  
HETATM   14  O   UNL     1     -13.297  14.110  73.274  1.00  0.00    -0.567 OA 
HETATM   15  O   UNL     1     -12.964  16.339  73.367  1.00  0.00    -0.504 OA 
HETATM   16  C   UNL     1     -13.330  15.351  72.746  1.00  0.00    -0.518 C  
ENDBRANCH  12  13
ENDBRANCH  11  12
ENDBRANCH   3  11
BRANCH  10  17
HETATM   17  N   UNL     1      -8.137  10.134  66.594  1.00  0.00    -0.118 NA 
BRANCH  17  18
HETATM   18  C   UNL     1      -7.965   8.906  67.390  1.00  0.00    -0.101 C  
HETATM   19 CL   UNL     1     -10.603   8.172  67.034  1.00  0.00    -0.393 Cl 
HETATM   20  C   UNL     1      -9.233   8.479  68.137  1.00  0.00    -0.137 C  
ENDBRANCH  17  18
BRANCH  17  21
HETATM   21  C   UNL     1      -7.886  10.025  65.141  1.00  0.00    -0.136 C  
HETATM   22 CL   UNL     1     -10.383  10.960  64.437  1.00  0.00    -0.422 Cl 
HETATM   23  C   UNL     1      -9.141   9.682  64.327  1.00  0.00    -0.218 C  
ENDBRANCH  17  21
ENDBRANCH  10  17
TORSDOF 6
ENDMDL
MODEL      121
REMARK 921   NORMALIZED FREE ENERGY PREDICTED BY IDOCK:   -4.47 KCAL/MOL
REMARK 922        TOTAL FREE ENERGY PREDICTED BY IDOCK:   -6.81 KCAL/MOL
REMARK 923 INTER-LIGAND FREE ENERGY PREDICTED BY IDOCK:   -6.14 KCAL/MOL
REMARK 924 INTRA-LIGAND FREE ENERGY PREDICTED BY IDOCK:   -0.68 KCAL/MOL
REMARK 927      BINDING AFFINITY PREDICTED BY RF-SCORE:    0.00 PKD
ROOT
HETATM    1  C   UNL     1     -12.239  12.151  70.069  1.00  0.00    -0.198 C  
HETATM    2  N   UNL     1     -11.567  11.051  69.414  1.00  0.00    -0.283 NA 
HETATM    3  C   UNL     1     -11.249  10.916  68.079  1.00  0.00    -0.314 A  
HETATM    4  C   UNL     1     -11.141   9.917  70.073  1.00  0.00    -0.285 A  
HETATM    5  N   UNL     1     -10.624   9.773  67.866  1.00  0.00    -0.244 NA 
HETATM    6  C   UNL     1     -11.198   9.486  71.401  1.00  0.00    -0.452 A  
HETATM    7  C   UNL     1     -10.565   9.143  69.080  1.00  0.00    -0.208 A  
HETATM    8  C   UNL     1     -10.636   8.226  71.693  1.00  0.00    -0.306 A  
HETATM    9  C   UNL     1     -10.024   7.891  69.402  1.00  0.00    -0.189 A  
HETATM   10  C   UNL     1     -10.028   7.407  70.724  1.00  0.00    -0.182 A  
ENDROOT
BRANCH   3  11
HETATM   11  C   UNL     1     -11.566  11.878  66.974  1.00  0.00    -0.365 C  
BRANCH  11  12
HETATM   12  C   UNL     1     -10.347  12.032  66.056  1.00  0.00    -0.271 C  
BRANCH  12  13
HETATM   13  C   UNL     1     -10.415  11.128  64.832  1.00  0.00    -0.372 C  
HETATM   14  O   UNL     1     -11.421  12.734  63.360  1.00  0.00    -0.490 OA 
HETATM   15  O   UNL     1      -9.447  11.838  62.740  1.00  0.00    -0.347 OA 
HETATM   16  C   UNL     1     -10.357  11.926  63.551  1.00  0.00    -0.458 C  
ENDBRANCH  12  13
ENDBRANCH  11  12
ENDBRANCH   3  11
BRANCH  10  17
HETATM   17  N   UNL     1      -9.435   6.188  71.040  1.00  0.00    -0.170 NA 
BRANCH  17  18
HETATM   18  C   UNL     1      -7.975   5.995  71.091  1.00  0.00    -0.116 C  
HETATM   19 CL   UNL     1      -7.827   6.942  73.680  1.00  0.00    -0.104 Cl 
HETATM   20  C   UNL     1      -7.255   7.006  71.990  1.00  0.00    -0.081 C  
ENDBRANCH  17  18
BRANCH  17  21
HETATM   21  C   UNL     1     -10.271   4.977  71.188  1.00  0.00    -0.211 C  
HETATM   22 CL   UNL     1     -10.621   5.309  73.904  1.00  0.00    -0.317 Cl 
HETATM   23  C   UNL     1     -10.099   4.277  72.543  1.00  0.00    -0.172 C  
ENDBRANCH  17  21
ENDBRANCH  10  17
TORSDOF 6
ENDMDL
MODEL      122
REMARK 921   NORMALIZED FREE ENERGY PREDICTED BY IDOCK:   -4.46 KCAL/MOL
REMARK 922        TOTAL FREE ENERGY PREDICTED BY IDOCK:   -6.80 KCAL/MOL
REMARK 923 INTER-LIGAND FREE ENERGY PREDICTED BY IDOCK:   -5.86 KCAL/MOL
REMARK 924 INTRA-LIGAND FREE ENERGY PREDICTED BY IDOCK:   -0.94 KCAL/MOL
REMARK 927      BINDING AFFINITY PREDICTED BY RF-SCORE:    0.00 PKD
ROOT
HETATM    1  C   UNL     1     -11.340  12.935  64.297  1.00  0.00    -0.371 C  
HETATM    2  N   UNL     1     -11.028  12.404  65.605  1.00  0.00    -0.277 NA 
HETATM    3  C   UNL     1     -11.270  12.971  66.839  1.00  0.00    -0.295 A  
HETATM    4  C   UNL     1     -10.396  11.194  65.806  1.00  0.00    -0.260 A  
HETATM    5  N   UNL     1     -10.851  12.174  67.803  1.00  0.00    -0.216 NA 
HETATM    6  C   UNL     1      -9.905  10.202  64.954  1.00  0.00    -0.390 A  
HETATM    7  C   UNL     1     -10.298  11.086  67.183  1.00  0.00    -0.220 A  
HETATM    8  C   UNL     1      -9.306   9.076  65.556  1.00  0.00    -0.255 A  
HETATM    9  C   UNL     1      -9.689   9.958  67.749  1.00  0.00    -0.175 A  
HETATM   10  C   UNL     1      -9.193   8.912  66.948  1.00  0.00    -0.147 A  
ENDROOT
BRANCH   3  11
HETATM   11  C   UNL     1     -11.889  14.308  67.111  1.00  0.00    -0.454 C  
BRANCH  11  12
HETATM   12  C   UNL     1     -11.043  15.073  68.136  1.00  0.00    -0.296 C  
BRANCH  12  13
HETATM   13  C   UNL     1     -11.884  15.707  69.237  1.00  0.00    -0.378 C  
HETATM   14  O   UNL     1     -12.164  13.718  70.549  1.00  0.00    -0.332 OA 
HETATM   15  O   UNL     1     -11.218  15.506  71.546  1.00  0.00    -0.377 OA 
HETATM   16  C   UNL     1     -11.707  14.987  70.553  1.00  0.00    -0.297 C  
ENDBRANCH  12  13
ENDBRANCH  11  12
ENDBRANCH   3  11
BRANCH  10  17
HETATM   17  N   UNL     1      -8.643   7.771  67.525  1.00  0.00    -0.122 NA 
BRANCH  17  18
HETATM   18  C   UNL     1      -9.385   6.906  68.459  1.00  0.00    -0.134 C  
HETATM   19 CL   UNL     1     -10.562   5.498  66.396  1.00  0.00    -0.318 Cl 
HETATM   20  C   UNL     1     -10.734   6.429  67.909  1.00  0.00    -0.299 C  
ENDBRANCH  17  18
BRANCH  17  21
HETATM   21  C   UNL     1      -7.208   7.466  67.335  1.00  0.00    -0.093 C  
HETATM   22 CL   UNL     1      -7.607   6.098  64.974  1.00  0.00    -0.086 Cl 
HETATM   23  C   UNL     1      -6.955   6.124  66.636  1.00  0.00    -0.067 C  
ENDBRANCH  17  21
ENDBRANCH  10  17
TORSDOF 6
ENDMDL
MODEL      123
REMARK 921   NORMALIZED FREE ENERGY PREDICTED BY IDOCK:   -4.46 KCAL/MOL
REMARK 922        TOTAL FREE ENERGY PREDICTED BY IDOCK:   -6.80 KCAL/MOL
REMARK 923 INTER-LIGAND FREE ENERGY PREDICTED BY IDOCK:   -5.80 KCAL/MOL
REMARK 924 INTRA-LIGAND FREE ENERGY PREDICTED BY IDOCK:   -1.01 KCAL/MOL
REMARK 927      BINDING AFFINITY PREDICTED BY RF-SCORE:    0.00 PKD
ROOT
HETATM    1  C   UNL     1      -8.799  13.029  66.947  1.00  0.00    -0.180 C  
HETATM    2  N   UNL     1      -9.949  12.320  67.464  1.00  0.00    -0.197 NA 
HETATM    3  C   UNL     1     -11.275  12.699  67.427  1.00  0.00    -0.290 A  
HETATM    4  C   UNL     1      -9.868  11.106  68.114  1.00  0.00    -0.180 A  
HETATM    5  N   UNL     1     -12.033  11.779  67.993  1.00  0.00    -0.583 NA 
HETATM    6  C   UNL     1      -8.813  10.257  68.457  1.00  0.00    -0.127 A  
HETATM    7  C   UNL     1     -11.180  10.802  68.433  1.00  0.00    -0.284 A  
HETATM    8  C   UNL     1      -9.141   9.067  69.140  1.00  0.00    -0.140 A  
HETATM    9  C   UNL     1     -11.471   9.616  69.120  1.00  0.00     0.124 A  
HETATM   10  C   UNL     1     -10.458   8.706  69.475  1.00  0.00    -0.220 A  
ENDROOT
BRANCH   3  11
HETATM   11  C   UNL     1     -11.835  13.970  66.866  1.00  0.00    -0.458 C  
BRANCH  11  12
HETATM   12  C   UNL     1     -11.994  15.006  67.987  1.00  0.00    -0.167 C  
BRANCH  12  13
HETATM   13  C   UNL     1     -10.811  15.962  68.076  1.00  0.00    -0.317 C  
HETATM   14  O   UNL     1     -10.909  16.298  70.450  1.00  0.00    -0.303 OA 
HETATM   15  O   UNL     1      -8.985  15.503  69.582  1.00  0.00    -0.266 OA 
HETATM   16  C   UNL     1     -10.136  15.883  69.425  1.00  0.00    -0.267 C  
ENDBRANCH  12  13
ENDBRANCH  11  12
ENDBRANCH   3  11
BRANCH  10  17
HETATM   17  N   UNL     1     -10.767   7.504  70.106  1.00  0.00    -0.236 NA 
BRANCH  17  18
HETATM   18  C   UNL     1     -10.367   7.199  71.491  1.00  0.00    -0.202 C  
HETATM   19 CL   UNL     1     -12.441   8.690  72.538  1.00  0.00    -0.430 Cl 
HETATM   20  C   UNL     1     -10.696   8.319  72.484  1.00  0.00    -0.341 C  
ENDBRANCH  17  18
BRANCH  17  21
HETATM   21  C   UNL     1     -11.390   6.406  69.336  1.00  0.00    -0.377 C  
HETATM   22 CL   UNL     1      -8.979   5.288  68.600  1.00  0.00    -0.113 Cl 
HETATM   23  C   UNL     1     -10.562   5.963  68.123  1.00  0.00    -0.244 C  
ENDBRANCH  17  21
ENDBRANCH  10  17
TORSDOF 6
ENDMDL
MODEL      124
REMARK 921   NORMALIZED FREE ENERGY PREDICTED BY IDOCK:   -4.43 KCAL/MOL
REMARK 922        TOTAL FREE ENERGY PREDICTED BY IDOCK:   -6.76 KCAL/MOL
REMARK 923 INTER-LIGAND FREE ENERGY PREDICTED BY IDOCK:   -5.94 KCAL/MOL
REMARK 924 INTRA-LIGAND FREE ENERGY PREDICTED BY IDOCK:   -0.82 KCAL/MOL
REMARK 927      BINDING AFFINITY PREDICTED BY RF-SCORE:    0.00 PKD
ROOT
HETATM    1  C   UNL     1     -13.549   9.318  72.298  1.00  0.00    -0.480 C  
HETATM    2  N   UNL     1     -12.367   9.161  71.480  1.00  0.00    -0.328 NA 
HETATM    3  C   UNL     1     -11.724  10.111  70.714  1.00  0.00    -0.357 A  
HETATM    4  C   UNL     1     -11.692   7.967  71.335  1.00  0.00    -0.281 A  
HETATM    5  N   UNL     1     -10.669   9.588  70.118  1.00  0.00    -0.238 NA 
HETATM    6  C   UNL     1     -11.878   6.679  71.844  1.00  0.00    -0.375 A  
HETATM    7  C   UNL     1     -10.647   8.268  70.479  1.00  0.00    -0.219 A  
HETATM    8  C   UNL     1     -10.948   5.693  71.453  1.00  0.00    -0.260 A  
HETATM    9  C   UNL     1      -9.746   7.263  70.103  1.00  0.00    -0.172 A  
HETATM   10  C   UNL     1      -9.863   5.950  70.598  1.00  0.00    -0.183 A  
ENDROOT
BRANCH   3  11
HETATM   11  C   UNL     1     -12.131  11.540  70.521  1.00  0.00    -0.472 C  
BRANCH  11  12
HETATM   12  C   UNL     1     -11.813  11.982  69.087  1.00  0.00    -0.369 C  
BRANCH  12  13
HETATM   13  C   UNL     1     -12.062  13.468  68.861  1.00  0.00    -0.315 C  
HETATM   14  O   UNL     1     -10.307  13.799  67.258  1.00  0.00    -0.250 OA 
HETATM   15  O   UNL     1     -12.410  14.317  66.630  1.00  0.00    -0.446 OA 
HETATM   16  C   UNL     1     -11.635  13.896  67.476  1.00  0.00    -0.360 C  
ENDBRANCH  12  13
ENDBRANCH  11  12
ENDBRANCH   3  11
BRANCH  10  17
HETATM   17  N   UNL     1      -8.928   4.975  70.262  1.00  0.00    -0.113 NA 
BRANCH  17  18
HETATM   18  C   UNL     1      -7.493   5.097  70.576  1.00  0.00    -0.070 C  
HETATM   19 CL   UNL     1      -7.875   4.249  73.175  1.00  0.00    -0.085 Cl 
HETATM   20  C   UNL     1      -7.216   5.458  72.040  1.00  0.00    -0.087 C  
ENDBRANCH  17  18
BRANCH  17  21
HETATM   21  C   UNL     1      -9.328   3.826  69.421  1.00  0.00    -0.175 C  
HETATM   22 CL   UNL     1      -9.999   2.232  71.570  1.00  0.00    -0.200 Cl 
HETATM   23  C   UNL     1      -9.052   2.465  70.074  1.00  0.00    -0.111 C  
ENDBRANCH  17  21
ENDBRANCH  10  17
TORSDOF 6
ENDMDL
MODEL      125
REMARK 921   NORMALIZED FREE ENERGY PREDICTED BY IDOCK:   -4.42 KCAL/MOL
REMARK 922        TOTAL FREE ENERGY PREDICTED BY IDOCK:   -6.75 KCAL/MOL
REMARK 923 INTER-LIGAND FREE ENERGY PREDICTED BY IDOCK:   -6.42 KCAL/MOL
REMARK 924 INTRA-LIGAND FREE ENERGY PREDICTED BY IDOCK:   -0.33 KCAL/MOL
REMARK 927      BINDING AFFINITY PREDICTED BY RF-SCORE:    0.00 PKD
ROOT
HETATM    1  C   UNL     1      -9.196  11.748  67.871  1.00  0.00    -0.181 C  
HETATM    2  N   UNL     1     -10.115  11.264  68.878  1.00  0.00    -0.196 NA 
HETATM    3  C   UNL     1     -11.407  11.677  69.127  1.00  0.00    -0.283 A  
HETATM    4  C   UNL     1      -9.799  10.276  69.787  1.00  0.00    -0.161 A  
HETATM    5  N   UNL     1     -11.929  10.986  70.122  1.00  0.00    -0.328 NA 
HETATM    6  C   UNL     1      -8.656   9.508  70.029  1.00  0.00    -0.234 A  
HETATM    7  C   UNL     1     -10.947  10.132  70.547  1.00  0.00    -0.310 A  
HETATM    8  C   UNL     1      -8.722   8.571  71.080  1.00  0.00    -0.215 A  
HETATM    9  C   UNL     1     -10.976   9.198  71.591  1.00  0.00    -0.445 A  
HETATM   10  C   UNL     1      -9.868   8.377  71.873  1.00  0.00    -0.258 A  
ENDROOT
BRANCH   3  11
HETATM   11  C   UNL     1     -12.157  12.767  68.423  1.00  0.00    -0.145 C  
BRANCH  11  12
HETATM   12  C   UNL     1     -11.985  12.618  66.906  1.00  0.00    -0.345 C  
BRANCH  12  13
HETATM   13  C   UNL     1     -12.206  13.927  66.158  1.00  0.00    -0.498 C  
HETATM   14  O   UNL     1     -10.612  13.517  64.412  1.00  0.00    -0.419 OA 
HETATM   15  O   UNL     1     -12.749  13.910  63.808  1.00  0.00    -0.693 OA 
HETATM   16  C   UNL     1     -11.907  13.780  64.685  1.00  0.00    -0.402 C  
ENDBRANCH  12  13
ENDBRANCH  11  12
ENDBRANCH   3  11
BRANCH  10  17
HETATM   17  N   UNL     1      -9.930   7.413  72.875  1.00  0.00    -0.209 NA 
BRANCH  17  18
HETATM   18  C   UNL     1     -11.023   6.429  72.975  1.00  0.00    -0.238 C  
HETATM   19 CL   UNL     1     -10.005   4.922  70.897  1.00  0.00    -0.275 Cl 
HETATM   20  C   UNL     1     -11.385   5.781  71.634  1.00  0.00    -0.148 C  
ENDBRANCH  17  18
BRANCH  17  21
HETATM   21  C   UNL     1      -8.959   7.444  73.990  1.00  0.00    -0.239 C  
HETATM   22 CL   UNL     1      -7.178   5.743  72.749  1.00  0.00    -0.089 Cl 
HETATM   23  C   UNL     1      -8.192   6.128  74.168  1.00  0.00    -0.108 C  
ENDBRANCH  17  21
ENDBRANCH  10  17
TORSDOF 6
ENDMDL
MODEL      126
REMARK 921   NORMALIZED FREE ENERGY PREDICTED BY IDOCK:   -4.41 KCAL/MOL
REMARK 922        TOTAL FREE ENERGY PREDICTED BY IDOCK:   -6.74 KCAL/MOL
REMARK 923 INTER-LIGAND FREE ENERGY PREDICTED BY IDOCK:   -6.25 KCAL/MOL
REMARK 924 INTRA-LIGAND FREE ENERGY PREDICTED BY IDOCK:   -0.48 KCAL/MOL
REMARK 927      BINDING AFFINITY PREDICTED BY RF-SCORE:    0.00 PKD
ROOT
HETATM    1  C   UNL     1     -11.751  12.504  65.758  1.00  0.00    -0.426 C  
HETATM    2  N   UNL     1     -11.444  11.954  67.060  1.00  0.00    -0.440 NA 
HETATM    3  C   UNL     1     -11.665  12.517  68.300  1.00  0.00    -0.340 A  
HETATM    4  C   UNL     1     -10.840  10.728  67.247  1.00  0.00    -0.288 A  
HETATM    5  N   UNL     1     -11.259  11.702  69.256  1.00  0.00    -0.259 NA 
HETATM    6  C   UNL     1     -10.377   9.732  66.384  1.00  0.00    -0.247 A  
HETATM    7  C   UNL     1     -10.736  10.606  68.622  1.00  0.00    -0.207 A  
HETATM    8  C   UNL     1      -9.802   8.587  66.973  1.00  0.00    -0.289 A  
HETATM    9  C   UNL     1     -10.150   9.460  69.175  1.00  0.00    -0.200 A  
HETATM   10  C   UNL     1      -9.684   8.409  68.363  1.00  0.00    -0.156 A  
ENDROOT
BRANCH   3  11
HETATM   11  C   UNL     1     -12.250  13.865  68.587  1.00  0.00    -0.213 C  
BRANCH  11  12
HETATM   12  C   UNL     1     -11.809  14.338  69.978  1.00  0.00    -0.378 C  
BRANCH  12  13
HETATM   13  C   UNL     1     -12.969  14.859  70.817  1.00  0.00    -0.418 C  
HETATM   14  O   UNL     1     -13.400  12.812  71.992  1.00  0.00    -0.488 OA 
HETATM   15  O   UNL     1     -12.927  14.644  73.219  1.00  0.00    -0.518 OA 
HETATM   16  C   UNL     1     -13.082  14.116  72.128  1.00  0.00    -0.401 C  
ENDBRANCH  12  13
ENDBRANCH  11  12
ENDBRANCH   3  11
BRANCH  10  17
HETATM   17  N   UNL     1      -9.158   7.250  68.927  1.00  0.00    -0.133 NA 
BRANCH  17  18
HETATM   18  C   UNL     1      -9.796   6.544  70.053  1.00  0.00    -0.165 C  
HETATM   19 CL   UNL     1      -9.414   4.079  68.868  1.00  0.00    -0.234 Cl 
HETATM   20  C   UNL     1     -10.515   5.256  69.637  1.00  0.00    -0.250 C  
ENDBRANCH  17  18
BRANCH  17  21
HETATM   21  C   UNL     1      -7.827   6.763  68.506  1.00  0.00    -0.118 C  
HETATM   22 CL   UNL     1      -6.523   7.841  70.685  1.00  0.00    -0.038 Cl 
HETATM   23  C   UNL     1      -6.678   7.696  68.912  1.00  0.00    -0.050 C  
ENDBRANCH  17  21
ENDBRANCH  10  17
TORSDOF 6
ENDMDL
MODEL      127
REMARK 921   NORMALIZED FREE ENERGY PREDICTED BY IDOCK:   -4.39 KCAL/MOL
REMARK 922        TOTAL FREE ENERGY PREDICTED BY IDOCK:   -6.70 KCAL/MOL
REMARK 923 INTER-LIGAND FREE ENERGY PREDICTED BY IDOCK:   -5.84 KCAL/MOL
REMARK 924 INTRA-LIGAND FREE ENERGY PREDICTED BY IDOCK:   -0.86 KCAL/MOL
REMARK 927      BINDING AFFINITY PREDICTED BY RF-SCORE:    0.00 PKD
ROOT
HETATM    1  C   UNL     1      -9.842  11.198  64.351  1.00  0.00    -0.284 C  
HETATM    2  N   UNL     1      -9.797  10.242  65.435  1.00  0.00    -0.276 NA 
HETATM    3  C   UNL     1      -9.169   9.014  65.467  1.00  0.00    -0.198 A  
HETATM    4  C   UNL     1     -10.425  10.434  66.648  1.00  0.00    -0.215 A  
HETATM    5  N   UNL     1      -9.344   8.437  66.641  1.00  0.00    -0.176 NA 
HETATM    6  C   UNL     1     -11.210  11.458  67.184  1.00  0.00    -0.363 A  
HETATM    7  C   UNL     1     -10.126   9.291  67.370  1.00  0.00    -0.223 A  
HETATM    8  C   UNL     1     -11.684  11.283  68.500  1.00  0.00    -0.378 A  
HETATM    9  C   UNL     1     -10.621   9.145  68.673  1.00  0.00    -0.207 A  
HETATM   10  C   UNL     1     -11.399  10.149  69.280  1.00  0.00    -0.156 A  
ENDROOT
BRANCH   3  11
HETATM   11  C   UNL     1      -8.406   8.362  64.355  1.00  0.00    -0.106 C  
BRANCH  11  12
HETATM   12  C   UNL     1      -7.681   7.118  64.883  1.00  0.00    -0.117 C  
BRANCH  12  13
HETATM   13  C   UNL     1      -8.271   5.820  64.346  1.00  0.00    -0.114 C  
HETATM   14  O   UNL     1      -7.960   4.529  66.345  1.00  0.00    -0.101 OA 
HETATM   15  O   UNL     1     -10.055   4.712  65.532  1.00  0.00    -0.199 OA 
HETATM   16  C   UNL     1      -8.866   4.983  65.454  1.00  0.00    -0.152 C  
ENDBRANCH  12  13
ENDBRANCH  11  12
ENDBRANCH   3  11
BRANCH  10  17
HETATM   17  N   UNL     1     -11.835  10.016  70.596  1.00  0.00    -0.304 NA 
BRANCH  17  18
HETATM   18  C   UNL     1     -11.051   9.326  71.636  1.00  0.00    -0.368 C  
HETATM   19 CL   UNL     1     -12.310   6.918  71.146  1.00  0.00    -0.426 Cl 
HETATM   20  C   UNL     1     -11.807   8.175  72.309  1.00  0.00    -0.382 C  
ENDBRANCH  17  18
BRANCH  17  21
HETATM   21  C   UNL     1     -13.203  10.438  70.966  1.00  0.00    -0.278 C  
HETATM   22 CL   UNL     1     -12.537  13.106  71.174  1.00  0.00    -0.446 Cl 
HETATM   23  C   UNL     1     -13.235  11.641  71.918  1.00  0.00    -0.369 C  
ENDBRANCH  17  21
ENDBRANCH  10  17
TORSDOF 6
ENDMDL
MODEL      128
REMARK 921   NORMALIZED FREE ENERGY PREDICTED BY IDOCK:   -4.37 KCAL/MOL
REMARK 922        TOTAL FREE ENERGY PREDICTED BY IDOCK:   -6.67 KCAL/MOL
REMARK 923 INTER-LIGAND FREE ENERGY PREDICTED BY IDOCK:   -5.91 KCAL/MOL
REMARK 924 INTRA-LIGAND FREE ENERGY PREDICTED BY IDOCK:   -0.76 KCAL/MOL
REMARK 927      BINDING AFFINITY PREDICTED BY RF-SCORE:    0.00 PKD
ROOT
HETATM    1  C   UNL     1     -14.348   8.503  71.749  1.00  0.00    -0.437 C  
HETATM    2  N   UNL     1     -12.908   8.623  71.700  1.00  0.00    -0.333 NA 
HETATM    3  C   UNL     1     -12.151   9.746  71.438  1.00  0.00    -0.400 A  
HETATM    4  C   UNL     1     -12.047   7.565  71.907  1.00  0.00    -0.305 A  
HETATM    5  N   UNL     1     -10.864   9.459  71.496  1.00  0.00    -0.359 NA 
HETATM    6  C   UNL     1     -12.226   6.208  72.191  1.00  0.00    -0.202 A  
HETATM    7  C   UNL     1     -10.786   8.119  71.768  1.00  0.00    -0.256 A  
HETATM    8  C   UNL     1     -11.064   5.423  72.337  1.00  0.00    -0.289 A  
HETATM    9  C   UNL     1      -9.652   7.309  71.909  1.00  0.00    -0.164 A  
HETATM   10  C   UNL     1      -9.762   5.940  72.218  1.00  0.00    -0.160 A  
ENDROOT
BRANCH   3  11
HETATM   11  C   UNL     1     -12.656  11.115  71.102  1.00  0.00    -0.513 C  
BRANCH  11  12
HETATM   12  C   UNL     1     -11.883  11.673  69.900  1.00  0.00    -0.434 C  
BRANCH  12  13
HETATM   13  C   UNL     1     -11.953  13.193  69.809  1.00  0.00    -0.382 C  
HETATM   14  O   UNL     1     -10.098  13.464  68.312  1.00  0.00    -0.237 OA 
HETATM   15  O   UNL     1     -12.097  14.278  67.661  1.00  0.00    -0.376 OA 
HETATM   16  C   UNL     1     -11.416  13.693  68.490  1.00  0.00    -0.312 C  
ENDBRANCH  12  13
ENDBRANCH  11  12
ENDBRANCH   3  11
BRANCH  10  17
HETATM   17  N   UNL     1      -8.626   5.160  72.414  1.00  0.00    -0.124 NA 
BRANCH  17  18
HETATM   18  C   UNL     1      -7.839   4.594  71.303  1.00  0.00    -0.086 C  
HETATM   19 CL   UNL     1      -9.568   2.461  71.016  1.00  0.00    -0.218 Cl 
HETATM   20  C   UNL     1      -7.901   3.065  71.226  1.00  0.00    -0.051 C  
ENDBRANCH  17  18
BRANCH  17  21
HETATM   21  C   UNL     1      -8.249   4.733  73.779  1.00  0.00    -0.106 C  
HETATM   22 CL   UNL     1      -6.933   7.084  74.366  1.00  0.00    -0.093 Cl 
HETATM   23  C   UNL     1      -6.905   5.303  74.249  1.00  0.00    -0.077 C  
ENDBRANCH  17  21
ENDBRANCH  10  17
TORSDOF 6
ENDMDL
MODEL      129
REMARK 921   NORMALIZED FREE ENERGY PREDICTED BY IDOCK:   -4.35 KCAL/MOL
REMARK 922        TOTAL FREE ENERGY PREDICTED BY IDOCK:   -6.66 KCAL/MOL
REMARK 923 INTER-LIGAND FREE ENERGY PREDICTED BY IDOCK:   -5.84 KCAL/MOL
REMARK 924 INTRA-LIGAND FREE ENERGY PREDICTED BY IDOCK:   -0.81 KCAL/MOL
REMARK 927      BINDING AFFINITY PREDICTED BY RF-SCORE:    0.00 PKD
ROOT
HETATM    1  C   UNL     1      -8.408  12.954  67.453  1.00  0.00    -0.190 C  
HETATM    2  N   UNL     1      -9.555  12.100  67.665  1.00  0.00    -0.185 NA 
HETATM    3  C   UNL     1     -10.882  12.367  67.395  1.00  0.00    -0.238 A  
HETATM    4  C   UNL     1      -9.476  10.836  68.210  1.00  0.00    -0.164 A  
HETATM    5  N   UNL     1     -11.636  11.333  67.715  1.00  0.00    -0.531 NA 
HETATM    6  C   UNL     1      -8.424  10.047  68.683  1.00  0.00    -0.118 A  
HETATM    7  C   UNL     1     -10.787  10.391  68.231  1.00  0.00    -0.254 A  
HETATM    8  C   UNL     1      -8.752   8.768  69.180  1.00  0.00    -0.136 A  
HETATM    9  C   UNL     1     -11.080   9.119  68.740  1.00  0.00     0.100 A  
HETATM   10  C   UNL     1     -10.065   8.265  69.211  1.00  0.00    -0.199 A  
ENDROOT
BRANCH   3  11
HETATM   11  C   UNL     1     -11.452  13.640  66.845  1.00  0.00    -0.369 C  
BRANCH  11  12
HETATM   12  C   UNL     1     -12.151  14.421  67.965  1.00  0.00    -0.266 C  
BRANCH  12  13
HETATM   13  C   UNL     1     -11.430  14.305  69.302  1.00  0.00    -0.330 C  
HETATM   14  O   UNL     1     -13.108  15.408  70.615  1.00  0.00    -0.426 OA 
HETATM   15  O   UNL     1     -12.535  13.306  71.198  1.00  0.00    -0.363 OA 
HETATM   16  C   UNL     1     -12.405  14.267  70.455  1.00  0.00    -0.352 C  
ENDBRANCH  12  13
ENDBRANCH  11  12
ENDBRANCH   3  11
BRANCH  10  17
HETATM   17  N   UNL     1     -10.363   6.981  69.661  1.00  0.00    -0.202 NA 
BRANCH  17  18
HETATM   18  C   UNL     1      -9.490   5.820  69.412  1.00  0.00    -0.130 C  
HETATM   19 CL   UNL     1     -10.577   5.395  66.910  1.00  0.00    -0.329 Cl 
HETATM   20  C   UNL     1     -10.129   4.755  68.515  1.00  0.00    -0.044 C  
ENDBRANCH  17  18
BRANCH  17  21
HETATM   21  C   UNL     1     -11.675   6.705  70.285  1.00  0.00    -0.371 C  
HETATM   22 CL   UNL     1     -11.151   8.219  72.529  1.00  0.00    -0.442 Cl 
HETATM   23  C   UNL     1     -11.624   6.651  71.817  1.00  0.00    -0.304 C  
ENDBRANCH  17  21
ENDBRANCH  10  17
TORSDOF 6
ENDMDL
MODEL      130
REMARK 921   NORMALIZED FREE ENERGY PREDICTED BY IDOCK:   -4.35 KCAL/MOL
REMARK 922        TOTAL FREE ENERGY PREDICTED BY IDOCK:   -6.65 KCAL/MOL
REMARK 923 INTER-LIGAND FREE ENERGY PREDICTED BY IDOCK:   -5.93 KCAL/MOL
REMARK 924 INTRA-LIGAND FREE ENERGY PREDICTED BY IDOCK:   -0.72 KCAL/MOL
REMARK 927      BINDING AFFINITY PREDICTED BY RF-SCORE:    0.00 PKD
ROOT
HETATM    1  C   UNL     1      -9.182   6.744  68.374  1.00  0.00    -0.123 C  
HETATM    2  N   UNL     1      -9.542   8.076  68.803  1.00  0.00    -0.148 NA 
HETATM    3  C   UNL     1      -9.561   8.587  70.084  1.00  0.00    -0.169 A  
HETATM    4  C   UNL     1      -9.954   9.071  67.940  1.00  0.00    -0.178 A  
HETATM    5  N   UNL     1      -9.935   9.853  70.071  1.00  0.00    -0.255 NA 
HETATM    6  C   UNL     1     -10.144   9.139  66.557  1.00  0.00    -0.357 A  
HETATM    7  C   UNL     1     -10.193  10.158  68.762  1.00  0.00    -0.186 A  
HETATM    8  C   UNL     1     -10.586  10.369  66.029  1.00  0.00    -0.136 A  
HETATM    9  C   UNL     1     -10.642  11.364  68.206  1.00  0.00    -0.224 A  
HETATM   10  C   UNL     1     -10.832  11.506  66.819  1.00  0.00    -0.282 A  
ENDROOT
BRANCH   3  11
HETATM   11  C   UNL     1      -9.242   7.854  71.352  1.00  0.00    -0.165 C  
BRANCH  11  12
HETATM   12  C   UNL     1     -10.537   7.554  72.117  1.00  0.00    -0.262 C  
BRANCH  12  13
HETATM   13  C   UNL     1     -11.085   6.163  71.824  1.00  0.00    -0.327 C  
HETATM   14  O   UNL     1      -9.346   4.943  72.940  1.00  0.00    -0.130 OA 
HETATM   15  O   UNL     1     -11.468   4.602  73.622  1.00  0.00    -0.273 OA 
HETATM   16  C   UNL     1     -10.675   5.172  72.887  1.00  0.00    -0.248 C  
ENDBRANCH  12  13
ENDBRANCH  11  12
ENDBRANCH   3  11
BRANCH  10  17
HETATM   17  N   UNL     1     -11.222  12.726  66.274  1.00  0.00    -0.288 NA 
BRANCH  17  18
HETATM   18  C   UNL     1     -12.380  12.870  65.374  1.00  0.00    -0.485 C  
HETATM   19 CL   UNL     1     -10.830  12.455  63.128  1.00  0.00    -0.289 Cl 
HETATM   20  C   UNL     1     -12.021  13.455  64.003  1.00  0.00    -0.464 C  
ENDBRANCH  17  18
BRANCH  17  21
HETATM   21  C   UNL     1     -10.374  13.923  66.461  1.00  0.00    -0.286 C  
HETATM   22 CL   UNL     1     -11.572  14.645  68.838  1.00  0.00    -0.320 Cl 
HETATM   23  C   UNL     1     -11.093  15.077  67.173  1.00  0.00    -0.332 C  
ENDBRANCH  17  21
ENDBRANCH  10  17
TORSDOF 6
ENDMDL
MODEL      131
REMARK 921   NORMALIZED FREE ENERGY PREDICTED BY IDOCK:   -4.35 KCAL/MOL
REMARK 922        TOTAL FREE ENERGY PREDICTED BY IDOCK:   -6.65 KCAL/MOL
REMARK 923 INTER-LIGAND FREE ENERGY PREDICTED BY IDOCK:   -5.88 KCAL/MOL
REMARK 924 INTRA-LIGAND FREE ENERGY PREDICTED BY IDOCK:   -0.77 KCAL/MOL
REMARK 927      BINDING AFFINITY PREDICTED BY RF-SCORE:    0.00 PKD
ROOT
HETATM    1  C   UNL     1     -11.767  12.154  66.789  1.00  0.00    -0.305 C  
HETATM    2  N   UNL     1     -10.557  12.778  67.277  1.00  0.00    -0.232 NA 
HETATM    3  C   UNL     1      -9.405  12.170  67.732  1.00  0.00    -0.193 A  
HETATM    4  C   UNL     1     -10.387  14.143  67.372  1.00  0.00    -0.256 A  
HETATM    5  N   UNL     1      -8.512  13.077  68.081  1.00  0.00    -0.171 NA 
HETATM    6  C   UNL     1     -11.196  15.245  67.080  1.00  0.00    -0.291 A  
HETATM    7  C   UNL     1      -9.108  14.293  67.879  1.00  0.00    -0.190 A  
HETATM    8  C   UNL     1     -10.651  16.524  67.319  1.00  0.00    -0.285 A  
HETATM    9  C   UNL     1      -8.600  15.578  68.115  1.00  0.00    -0.152 A  
HETATM   10  C   UNL     1      -9.354  16.730  67.821  1.00  0.00    -0.233 A  
ENDROOT
BRANCH   3  11
HETATM   11  C   UNL     1      -9.152  10.699  67.861  1.00  0.00    -0.145 C  
BRANCH  11  12
HETATM   12  C   UNL     1      -9.597  10.217  69.248  1.00  0.00    -0.239 C  
BRANCH  12  13
HETATM   13  C   UNL     1      -8.445   9.663  70.076  1.00  0.00    -0.223 C  
HETATM   14  O   UNL     1      -9.749   9.075  72.003  1.00  0.00    -0.290 OA 
HETATM   15  O   UNL     1      -8.567   7.438  70.998  1.00  0.00    -0.131 OA 
HETATM   16  C   UNL     1      -8.918   8.608  71.047  1.00  0.00    -0.196 C  
ENDBRANCH  12  13
ENDBRANCH  11  12
ENDBRANCH   3  11
BRANCH  10  17
HETATM   17  N   UNL     1      -8.816  18.000  68.005  1.00  0.00    -0.268 NA 
BRANCH  17  18
HETATM   18  C   UNL     1      -9.579  19.119  68.587  1.00  0.00    -0.413 C  
HETATM   19 CL   UNL     1     -10.598  19.851  66.128  1.00  0.00    -0.566 Cl 
HETATM   20  C   UNL     1      -9.750  20.305  67.632  1.00  0.00    -0.417 C  
ENDBRANCH  17  18
BRANCH  17  21
HETATM   21  C   UNL     1      -7.476  18.319  67.467  1.00  0.00    -0.214 C  
HETATM   22 CL   UNL     1      -6.153  17.553  69.762  1.00  0.00    -0.245 Cl 
HETATM   23  C   UNL     1      -6.488  18.806  68.535  1.00  0.00    -0.224 C  
ENDBRANCH  17  21
ENDBRANCH  10  17
TORSDOF 6
ENDMDL
MODEL      132
REMARK 921   NORMALIZED FREE ENERGY PREDICTED BY IDOCK:   -4.35 KCAL/MOL
REMARK 922        TOTAL FREE ENERGY PREDICTED BY IDOCK:   -6.65 KCAL/MOL
REMARK 923 INTER-LIGAND FREE ENERGY PREDICTED BY IDOCK:   -6.19 KCAL/MOL
REMARK 924 INTRA-LIGAND FREE ENERGY PREDICTED BY IDOCK:   -0.46 KCAL/MOL
REMARK 927      BINDING AFFINITY PREDICTED BY RF-SCORE:    0.00 PKD
ROOT
HETATM    1  C   UNL     1      -9.572  10.153  67.625  1.00  0.00    -0.148 C  
HETATM    2  N   UNL     1     -10.115  11.329  68.267  1.00  0.00    -0.182 NA 
HETATM    3  C   UNL     1     -11.110  11.402  69.220  1.00  0.00    -0.254 A  
HETATM    4  C   UNL     1      -9.697  12.613  67.986  1.00  0.00    -0.215 A  
HETATM    5  N   UNL     1     -11.321  12.656  69.572  1.00  0.00    -0.202 NA 
HETATM    6  C   UNL     1      -8.749  13.157  67.114  1.00  0.00    -0.214 A  
HETATM    7  C   UNL     1     -10.470  13.412  68.810  1.00  0.00    -0.186 A  
HETATM    8  C   UNL     1      -8.606  14.560  67.113  1.00  0.00    -0.242 A  
HETATM    9  C   UNL     1     -10.310  14.803  68.778  1.00  0.00    -0.248 A  
HETATM   10  C   UNL     1      -9.357  15.413  67.940  1.00  0.00    -0.192 A  
ENDROOT
BRANCH   3  11
HETATM   11  C   UNL     1     -11.895  10.262  69.792  1.00  0.00    -0.217 C  
BRANCH  11  12
HETATM   12  C   UNL     1     -11.374   9.925  71.195  1.00  0.00    -0.443 C  
BRANCH  12  13
HETATM   13  C   UNL     1     -11.895   8.590  71.711  1.00  0.00    -0.395 C  
HETATM   14  O   UNL     1     -13.907   9.444  72.701  1.00  0.00    -0.411 OA 
HETATM   15  O   UNL     1     -14.112   7.841  71.129  1.00  0.00    -0.280 OA 
HETATM   16  C   UNL     1     -13.403   8.580  71.796  1.00  0.00    -0.367 C  
ENDBRANCH  12  13
ENDBRANCH  11  12
ENDBRANCH   3  11
BRANCH  10  17
HETATM   17  N   UNL     1      -9.168  16.793  67.961  1.00  0.00    -0.224 NA 
BRANCH  17  18
HETATM   18  C   UNL     1      -7.945  17.428  68.484  1.00  0.00    -0.266 C  
HETATM   19 CL   UNL     1      -6.844  17.642  65.961  1.00  0.00    -0.317 Cl 
HETATM   20  C   UNL     1      -6.692  17.112  67.659  1.00  0.00    -0.142 C  
ENDBRANCH  17  18
BRANCH  17  21
HETATM   21  C   UNL     1     -10.279  17.695  67.591  1.00  0.00    -0.351 C  
HETATM   22 CL   UNL     1     -10.722  16.479  65.156  1.00  0.00    -0.340 Cl 
HETATM   23  C   UNL     1     -10.373  17.964  66.084  1.00  0.00    -0.352 C  
ENDBRANCH  17  21
ENDBRANCH  10  17
TORSDOF 6
ENDMDL
MODEL      133
REMARK 921   NORMALIZED FREE ENERGY PREDICTED BY IDOCK:   -4.34 KCAL/MOL
REMARK 922        TOTAL FREE ENERGY PREDICTED BY IDOCK:   -6.64 KCAL/MOL
REMARK 923 INTER-LIGAND FREE ENERGY PREDICTED BY IDOCK:   -5.86 KCAL/MOL
REMARK 924 INTRA-LIGAND FREE ENERGY PREDICTED BY IDOCK:   -0.78 KCAL/MOL
REMARK 927      BINDING AFFINITY PREDICTED BY RF-SCORE:    0.00 PKD
ROOT
HETATM    1  C   UNL     1      -7.930  11.964  66.989  1.00  0.00    -0.158 C  
HETATM    2  N   UNL     1      -8.966  11.363  67.799  1.00  0.00    -0.143 NA 
HETATM    3  C   UNL     1     -10.224  11.854  68.083  1.00  0.00    -0.199 A  
HETATM    4  C   UNL     1      -8.823  10.154  68.447  1.00  0.00    -0.123 A  
HETATM    5  N   UNL     1     -10.887  11.009  68.849  1.00  0.00    -0.202 NA 
HETATM    6  C   UNL     1      -7.787   9.220  68.542  1.00  0.00    -0.090 A  
HETATM    7  C   UNL     1     -10.033   9.967  69.092  1.00  0.00    -0.204 A  
HETATM    8  C   UNL     1      -8.028   8.070  69.322  1.00  0.00    -0.116 A  
HETATM    9  C   UNL     1     -10.236   8.818  69.868  1.00  0.00    -0.206 A  
HETATM   10  C   UNL     1      -9.242   7.828  69.987  1.00  0.00    -0.153 A  
ENDROOT
BRANCH   3  11
HETATM   11  C   UNL     1     -10.802  13.163  67.639  1.00  0.00    -0.269 C  
BRANCH  11  12
HETATM   12  C   UNL     1     -11.697  12.946  66.413  1.00  0.00    -0.454 C  
BRANCH  12  13
HETATM   13  C   UNL     1     -11.116  13.558  65.144  1.00  0.00    -0.326 C  
HETATM   14  O   UNL     1     -12.852  12.816  63.662  1.00  0.00    -0.701 OA 
HETATM   15  O   UNL     1     -12.452  15.033  63.782  1.00  0.00    -0.745 OA 
HETATM   16  C   UNL     1     -12.199  13.894  64.146  1.00  0.00    -0.393 C  
ENDBRANCH  12  13
ENDBRANCH  11  12
ENDBRANCH   3  11
BRANCH  10  17
HETATM   17  N   UNL     1      -9.479   6.664  70.713  1.00  0.00    -0.168 NA 
BRANCH  17  18
HETATM   18  C   UNL     1      -8.805   6.362  71.989  1.00  0.00    -0.134 C  
HETATM   19 CL   UNL     1     -10.729   7.700  73.450  1.00  0.00    -0.407 Cl 
HETATM   20  C   UNL     1      -9.007   7.443  73.057  1.00  0.00    -0.147 C  
ENDBRANCH  17  18
BRANCH  17  21
HETATM   21  C   UNL     1     -10.321   5.593  70.137  1.00  0.00    -0.271 C  
HETATM   22 CL   UNL     1      -8.310   4.603  68.530  1.00  0.00    -0.086 Cl 
HETATM   23  C   UNL     1      -9.967   5.252  68.684  1.00  0.00    -0.168 C  
ENDBRANCH  17  21
ENDBRANCH  10  17
TORSDOF 6
ENDMDL
MODEL      134
REMARK 921   NORMALIZED FREE ENERGY PREDICTED BY IDOCK:   -4.32 KCAL/MOL
REMARK 922        TOTAL FREE ENERGY PREDICTED BY IDOCK:   -6.61 KCAL/MOL
REMARK 923 INTER-LIGAND FREE ENERGY PREDICTED BY IDOCK:   -5.83 KCAL/MOL
REMARK 924 INTRA-LIGAND FREE ENERGY PREDICTED BY IDOCK:   -0.78 KCAL/MOL
REMARK 927      BINDING AFFINITY PREDICTED BY RF-SCORE:    0.00 PKD
ROOT
HETATM    1  C   UNL     1     -11.022  11.702  64.615  1.00  0.00    -0.301 C  
HETATM    2  N   UNL     1     -10.468  12.128  65.880  1.00  0.00    -0.246 NA 
HETATM    3  C   UNL     1     -10.236  11.372  67.011  1.00  0.00    -0.213 A  
HETATM    4  C   UNL     1     -10.087  13.426  66.148  1.00  0.00    -0.302 A  
HETATM    5  N   UNL     1      -9.707  12.117  67.963  1.00  0.00    -0.198 NA 
HETATM    6  C   UNL     1     -10.099  14.613  65.410  1.00  0.00    -0.403 A  
HETATM    7  C   UNL     1      -9.624  13.384  67.452  1.00  0.00    -0.223 A  
HETATM    8  C   UNL     1      -9.612  15.773  66.049  1.00  0.00    -0.388 A  
HETATM    9  C   UNL     1      -9.155  14.556  68.061  1.00  0.00    -0.185 A  
HETATM   10  C   UNL     1      -9.119  15.780  67.366  1.00  0.00    -0.197 A  
ENDROOT
BRANCH   3  11
HETATM   11  C   UNL     1     -10.546   9.919  67.203  1.00  0.00    -0.295 C  
BRANCH  11  12
HETATM   12  C   UNL     1      -9.243   9.132  67.392  1.00  0.00    -0.150 C  
BRANCH  12  13
HETATM   13  C   UNL     1      -9.444   7.626  67.279  1.00  0.00    -0.185 C  
HETATM   14  O   UNL     1      -9.480   7.176  69.636  1.00  0.00    -0.153 OA 
HETATM   15  O   UNL     1     -11.277   6.554  68.423  1.00  0.00    -0.283 OA 
HETATM   16  C   UNL     1     -10.172   7.073  68.481  1.00  0.00    -0.172 C  
ENDBRANCH  12  13
ENDBRANCH  11  12
ENDBRANCH   3  11
BRANCH  10  17
HETATM   17  N   UNL     1      -8.597  16.924  67.964  1.00  0.00    -0.209 NA 
BRANCH  17  18
HETATM   18  C   UNL     1      -7.151  17.200  68.042  1.00  0.00    -0.175 C  
HETATM   19 CL   UNL     1      -7.136  18.417  65.563  1.00  0.00    -0.196 Cl 
HETATM   20  C   UNL     1      -6.454  17.200  66.677  1.00  0.00    -0.232 C  
ENDBRANCH  17  18
BRANCH  17  21
HETATM   21  C   UNL     1      -9.491  17.848  68.694  1.00  0.00    -0.298 C  
HETATM   22 CL   UNL     1     -10.236  19.235  66.430  1.00  0.00    -0.490 Cl 
HETATM   23  C   UNL     1      -9.552  19.253  68.080  1.00  0.00    -0.340 C  
ENDBRANCH  17  21
ENDBRANCH  10  17
TORSDOF 6
ENDMDL
MODEL      135
REMARK 921   NORMALIZED FREE ENERGY PREDICTED BY IDOCK:   -4.31 KCAL/MOL
REMARK 922        TOTAL FREE ENERGY PREDICTED BY IDOCK:   -6.60 KCAL/MOL
REMARK 923 INTER-LIGAND FREE ENERGY PREDICTED BY IDOCK:   -5.55 KCAL/MOL
REMARK 924 INTRA-LIGAND FREE ENERGY PREDICTED BY IDOCK:   -1.05 KCAL/MOL
REMARK 927      BINDING AFFINITY PREDICTED BY RF-SCORE:    0.00 PKD
ROOT
HETATM    1  C   UNL     1     -10.903   8.704  71.257  1.00  0.00    -0.260 C  
HETATM    2  N   UNL     1     -10.798   8.490  69.831  1.00  0.00    -0.230 NA 
HETATM    3  C   UNL     1     -10.733   7.294  69.147  1.00  0.00    -0.185 A  
HETATM    4  C   UNL     1     -10.729   9.514  68.909  1.00  0.00    -0.195 A  
HETATM    5  N   UNL     1     -10.655   7.508  67.848  1.00  0.00    -0.209 NA 
HETATM    6  C   UNL     1     -10.733  10.908  69.004  1.00  0.00    -0.262 A  
HETATM    7  C   UNL     1     -10.637   8.868  67.689  1.00  0.00    -0.224 A  
HETATM    8  C   UNL     1     -10.645  11.635  67.799  1.00  0.00    -0.227 A  
HETATM    9  C   UNL     1     -10.541   9.620  66.510  1.00  0.00    -0.142 A  
HETATM   10  C   UNL     1     -10.562  11.027  66.534  1.00  0.00    -0.254 A  
ENDROOT
BRANCH   3  11
HETATM   11  C   UNL     1     -10.720   5.917  69.739  1.00  0.00    -0.411 C  
BRANCH  11  12
HETATM   12  C   UNL     1      -9.374   5.241  69.449  1.00  0.00    -0.172 C  
BRANCH  12  13
HETATM   13  C   UNL     1      -8.630   4.845  70.718  1.00  0.00    -0.127 C  
HETATM   14  O   UNL     1      -7.698   7.008  71.177  1.00  0.00    -0.089 OA 
HETATM   15  O   UNL     1      -8.986   6.063  72.769  1.00  0.00    -0.125 OA 
HETATM   16  C   UNL     1      -8.477   6.016  71.659  1.00  0.00    -0.127 C  
ENDBRANCH  12  13
ENDBRANCH  11  12
ENDBRANCH   3  11
BRANCH  10  17
HETATM   17  N   UNL     1     -10.525  11.761  65.352  1.00  0.00    -0.262 NA 
BRANCH  17  18
HETATM   18  C   UNL     1     -10.682  11.148  64.021  1.00  0.00    -0.339 C  
HETATM   19 CL   UNL     1      -8.055  10.297  63.980  1.00  0.00    -0.155 Cl 
HETATM   20  C   UNL     1      -9.397  11.165  63.185  1.00  0.00    -0.328 C  
ENDBRANCH  17  18
BRANCH  17  21
HETATM   21  C   UNL     1     -10.164  13.195  65.384  1.00  0.00    -0.290 C  
HETATM   22 CL   UNL     1     -12.768  14.048  65.695  1.00  0.00    -0.555 Cl 
HETATM   23  C   UNL     1     -11.236  14.110  64.778  1.00  0.00    -0.378 C  
ENDBRANCH  17  21
ENDBRANCH  10  17
TORSDOF 6
ENDMDL
MODEL      136
REMARK 921   NORMALIZED FREE ENERGY PREDICTED BY IDOCK:   -4.31 KCAL/MOL
REMARK 922        TOTAL FREE ENERGY PREDICTED BY IDOCK:   -6.59 KCAL/MOL
REMARK 923 INTER-LIGAND FREE ENERGY PREDICTED BY IDOCK:   -5.86 KCAL/MOL
REMARK 924 INTRA-LIGAND FREE ENERGY PREDICTED BY IDOCK:   -0.74 KCAL/MOL
REMARK 927      BINDING AFFINITY PREDICTED BY RF-SCORE:    0.00 PKD
ROOT
HETATM    1  C   UNL     1     -11.303  12.558  68.076  1.00  0.00    -0.289 C  
HETATM    2  N   UNL     1     -10.646  13.495  67.193  1.00  0.00    -0.263 NA 
HETATM    3  C   UNL     1     -10.406  13.371  65.840  1.00  0.00    -0.290 A  
HETATM    4  C   UNL     1     -10.129  14.703  67.611  1.00  0.00    -0.228 A  
HETATM    5  N   UNL     1      -9.791  14.444  65.380  1.00  0.00    -0.294 NA 
HETATM    6  C   UNL     1     -10.060  15.355  68.845  1.00  0.00    -0.219 A  
HETATM    7  C   UNL     1      -9.601  15.264  66.460  1.00  0.00    -0.271 A  
HETATM    8  C   UNL     1      -9.433  16.618  68.871  1.00  0.00    -0.251 A  
HETATM    9  C   UNL     1      -8.976  16.516  66.522  1.00  0.00    -0.312 A  
HETATM   10  C   UNL     1      -8.893  17.236  67.729  1.00  0.00    -0.234 A  
ENDROOT
BRANCH   3  11
HETATM   11  C   UNL     1     -10.743  12.201  64.967  1.00  0.00    -0.338 C  
BRANCH  11  12
HETATM   12  C   UNL     1      -9.484  11.362  64.715  1.00  0.00    -0.176 C  
BRANCH  12  13
HETATM   13  C   UNL     1      -8.666  11.132  65.980  1.00  0.00    -0.185 C  
HETATM   14  O   UNL     1      -9.151   8.793  66.200  1.00  0.00    -0.174 OA 
HETATM   15  O   UNL     1      -6.986   9.404  66.046  1.00  0.00    -0.087 OA 
HETATM   16  C   UNL     1      -8.169   9.709  66.067  1.00  0.00    -0.119 C  
ENDBRANCH  12  13
ENDBRANCH  11  12
ENDBRANCH   3  11
BRANCH  10  17
HETATM   17  N   UNL     1      -8.321  18.505  67.765  1.00  0.00    -0.256 NA 
BRANCH  17  18
HETATM   18  C   UNL     1      -6.924  18.768  67.375  1.00  0.00    -0.205 C  
HETATM   19 CL   UNL     1      -5.938  17.359  69.535  1.00  0.00    -0.234 Cl 
HETATM   20  C   UNL     1      -5.964  18.858  68.566  1.00  0.00    -0.214 C  
ENDBRANCH  17  18
BRANCH  17  21
HETATM   21  C   UNL     1      -9.069  19.635  68.357  1.00  0.00    -0.328 C  
HETATM   22 CL   UNL     1     -10.953  19.703  66.344  1.00  0.00    -0.429 Cl 
HETATM   23  C   UNL     1      -9.717  20.554  67.313  1.00  0.00    -0.460 C  
ENDBRANCH  17  21
ENDBRANCH  10  17
TORSDOF 6
ENDMDL
MODEL      137
REMARK 921   NORMALIZED FREE ENERGY PREDICTED BY IDOCK:   -4.31 KCAL/MOL
REMARK 922        TOTAL FREE ENERGY PREDICTED BY IDOCK:   -6.59 KCAL/MOL
REMARK 923 INTER-LIGAND FREE ENERGY PREDICTED BY IDOCK:   -5.86 KCAL/MOL
REMARK 924 INTRA-LIGAND FREE ENERGY PREDICTED BY IDOCK:   -0.73 KCAL/MOL
REMARK 927      BINDING AFFINITY PREDICTED BY RF-SCORE:    0.00 PKD
ROOT
HETATM    1  C   UNL     1      -9.204  15.587  68.360  1.00  0.00    -0.191 C  
HETATM    2  N   UNL     1     -10.039  14.432  68.601  1.00  0.00    -0.239 NA 
HETATM    3  C   UNL     1     -11.352  14.399  69.027  1.00  0.00    -0.269 A  
HETATM    4  C   UNL     1      -9.608  13.132  68.443  1.00  0.00    -0.186 A  
HETATM    5  N   UNL     1     -11.776  13.153  69.119  1.00  0.00    -0.307 NA 
HETATM    6  C   UNL     1      -8.398  12.550  68.056  1.00  0.00    -0.171 A  
HETATM    7  C   UNL     1     -10.710  12.364  68.778  1.00  0.00    -0.209 A  
HETATM    8  C   UNL     1      -8.345  11.142  68.013  1.00  0.00    -0.134 A  
HETATM    9  C   UNL     1     -10.622  10.966  68.734  1.00  0.00    -0.231 A  
HETATM   10  C   UNL     1      -9.439  10.318  68.331  1.00  0.00    -0.146 A  
ENDROOT
BRANCH   3  11
HETATM   11  C   UNL     1     -12.215  15.572  69.378  1.00  0.00    -0.233 C  
BRANCH  11  12
HETATM   12  C   UNL     1     -12.756  15.410  70.804  1.00  0.00    -0.516 C  
BRANCH  12  13
HETATM   13  C   UNL     1     -11.671  15.034  71.806  1.00  0.00    -0.452 C  
HETATM   14  O   UNL     1     -11.912  16.965  73.210  1.00  0.00    -0.357 OA 
HETATM   15  O   UNL     1     -12.170  14.937  74.163  1.00  0.00    -0.546 OA 
HETATM   16  C   UNL     1     -11.951  15.616  73.171  1.00  0.00    -0.472 C  
ENDBRANCH  12  13
ENDBRANCH  11  12
ENDBRANCH   3  11
BRANCH  10  17
HETATM   17  N   UNL     1      -9.384   8.930  68.236  1.00  0.00    -0.142 NA 
BRANCH  17  18
HETATM   18  C   UNL     1     -10.297   8.037  68.973  1.00  0.00    -0.218 C  
HETATM   19 CL   UNL     1      -8.660   8.013  71.196  1.00  0.00    -0.133 Cl 
HETATM   20  C   UNL     1      -9.580   7.111  69.961  1.00  0.00    -0.164 C  
ENDBRANCH  17  18
BRANCH  17  21
HETATM   21  C   UNL     1      -8.279   8.285  67.494  1.00  0.00    -0.122 C  
HETATM   22 CL   UNL     1      -9.091   9.256  65.045  1.00  0.00    -0.262 Cl 
HETATM   23  C   UNL     1      -8.665   7.859  66.072  1.00  0.00    -0.158 C  
ENDBRANCH  17  21
ENDBRANCH  10  17
TORSDOF 6
ENDMDL
MODEL      138
REMARK 921   NORMALIZED FREE ENERGY PREDICTED BY IDOCK:   -4.29 KCAL/MOL
REMARK 922        TOTAL FREE ENERGY PREDICTED BY IDOCK:   -6.57 KCAL/MOL
REMARK 923 INTER-LIGAND FREE ENERGY PREDICTED BY IDOCK:   -5.65 KCAL/MOL
REMARK 924 INTRA-LIGAND FREE ENERGY PREDICTED BY IDOCK:   -0.92 KCAL/MOL
REMARK 927      BINDING AFFINITY PREDICTED BY RF-SCORE:    0.00 PKD
ROOT
HETATM    1  C   UNL     1     -10.556   7.323  69.168  1.00  0.00    -0.208 C  
HETATM    2  N   UNL     1     -10.304   8.128  67.993  1.00  0.00    -0.215 NA 
HETATM    3  C   UNL     1      -9.706   7.749  66.809  1.00  0.00    -0.227 A  
HETATM    4  C   UNL     1     -10.634   9.463  67.898  1.00  0.00    -0.237 A  
HETATM    5  N   UNL     1      -9.667   8.764  65.967  1.00  0.00    -0.242 NA 
HETATM    6  C   UNL     1     -11.235  10.379  68.767  1.00  0.00    -0.295 A  
HETATM    7  C   UNL     1     -10.220   9.827  66.629  1.00  0.00    -0.226 A  
HETATM    8  C   UNL     1     -11.408  11.696  68.292  1.00  0.00    -0.348 A  
HETATM    9  C   UNL     1     -10.398  11.147  66.192  1.00  0.00    -0.302 A  
HETATM   10  C   UNL     1     -11.017  12.113  67.008  1.00  0.00    -0.271 A  
ENDROOT
BRANCH   3  11
HETATM   11  C   UNL     1      -9.137   6.404  66.476  1.00  0.00    -0.162 C  
BRANCH  11  12
HETATM   12  C   UNL     1      -7.607   6.490  66.411  1.00  0.00    -0.090 C  
BRANCH  12  13
HETATM   13  C   UNL     1      -6.942   6.155  67.740  1.00  0.00    -0.072 C  
HETATM   14  O   UNL     1      -5.573   8.122  67.866  1.00  0.00    -0.033 OA 
HETATM   15  O   UNL     1      -7.005   7.732  69.564  1.00  0.00    -0.056 OA 
HETATM   16  C   UNL     1      -6.534   7.404  68.485  1.00  0.00    -0.041 C  
ENDBRANCH  12  13
ENDBRANCH  11  12
ENDBRANCH   3  11
BRANCH  10  17
HETATM   17  N   UNL     1     -11.240  13.405  66.540  1.00  0.00    -0.301 NA 
BRANCH  17  18
HETATM   18  C   UNL     1     -10.361  14.541  66.869  1.00  0.00    -0.264 C  
HETATM   19 CL   UNL     1     -11.976  15.328  68.966  1.00  0.00    -0.332 Cl 
HETATM   20  C   UNL     1     -11.109  15.741  67.461  1.00  0.00    -0.258 C  
ENDBRANCH  17  18
BRANCH  17  21
HETATM   21  C   UNL     1     -12.484  13.718  65.804  1.00  0.00    -0.485 C  
HETATM   22 CL   UNL     1     -11.547  12.738  63.403  1.00  0.00    -0.558 Cl 
HETATM   23  C   UNL     1     -12.248  14.091  64.335  1.00  0.00    -0.426 C  
ENDBRANCH  17  21
ENDBRANCH  10  17
TORSDOF 6
ENDMDL
MODEL      139
REMARK 921   NORMALIZED FREE ENERGY PREDICTED BY IDOCK:   -4.25 KCAL/MOL
REMARK 922        TOTAL FREE ENERGY PREDICTED BY IDOCK:   -6.52 KCAL/MOL
REMARK 923 INTER-LIGAND FREE ENERGY PREDICTED BY IDOCK:   -5.68 KCAL/MOL
REMARK 924 INTRA-LIGAND FREE ENERGY PREDICTED BY IDOCK:   -0.85 KCAL/MOL
REMARK 927      BINDING AFFINITY PREDICTED BY RF-SCORE:    0.00 PKD
ROOT
HETATM    1  C   UNL     1     -10.503   6.947  73.853  1.00  0.00    -0.318 C  
HETATM    2  N   UNL     1     -10.884   6.845  72.462  1.00  0.00    -0.233 NA 
HETATM    3  C   UNL     1     -11.846   7.564  71.783  1.00  0.00    -0.294 A  
HETATM    4  C   UNL     1     -10.313   5.953  71.578  1.00  0.00    -0.222 A  
HETATM    5  N   UNL     1     -11.892   7.193  70.517  1.00  0.00    -0.278 NA 
HETATM    6  C   UNL     1      -9.318   4.977  71.690  1.00  0.00    -0.188 A  
HETATM    7  C   UNL     1     -10.966   6.193  70.382  1.00  0.00    -0.337 A  
HETATM    8  C   UNL     1      -9.001   4.246  70.526  1.00  0.00    -0.149 A  
HETATM    9  C   UNL     1     -10.633   5.443  69.246  1.00  0.00    -0.271 A  
HETATM   10  C   UNL     1      -9.626   4.460  69.285  1.00  0.00    -0.191 A  
ENDROOT
BRANCH   3  11
HETATM   11  C   UNL     1     -12.758   8.608  72.349  1.00  0.00    -0.423 C  
BRANCH  11  12
HETATM   12  C   UNL     1     -13.289   9.501  71.221  1.00  0.00    -0.385 C  
BRANCH  12  13
HETATM   13  C   UNL     1     -12.697  10.905  71.253  1.00  0.00    -0.542 C  
HETATM   14  O   UNL     1     -10.732  10.404  69.971  1.00  0.00    -0.277 OA 
HETATM   15  O   UNL     1     -12.101  12.022  69.201  1.00  0.00    -0.274 OA 
HETATM   16  C   UNL     1     -11.839  11.172  70.039  1.00  0.00    -0.361 C  
ENDBRANCH  12  13
ENDBRANCH  11  12
ENDBRANCH   3  11
BRANCH  10  17
HETATM   17  N   UNL     1      -9.265   3.763  68.135  1.00  0.00    -0.148 NA 
BRANCH  17  18
HETATM   18  C   UNL     1      -9.380   2.298  68.016  1.00  0.00    -0.200 C  
HETATM   19 CL   UNL     1      -6.868   1.900  69.090  1.00  0.00    -0.033 Cl 
HETATM   20  C   UNL     1      -8.038   1.597  67.777  1.00  0.00    -0.059 C  
ENDBRANCH  17  18
BRANCH  17  21
HETATM   21  C   UNL     1      -8.593   4.469  67.024  1.00  0.00    -0.104 C  
HETATM   22 CL   UNL     1     -10.880   4.654  65.495  1.00  0.00    -0.239 Cl 
HETATM   23  C   UNL     1      -9.178   4.136  65.645  1.00  0.00    -0.149 C  
ENDBRANCH  17  21
ENDBRANCH  10  17
TORSDOF 6
ENDMDL
MODEL      140
REMARK 921   NORMALIZED FREE ENERGY PREDICTED BY IDOCK:   -4.23 KCAL/MOL
REMARK 922        TOTAL FREE ENERGY PREDICTED BY IDOCK:   -6.49 KCAL/MOL
REMARK 923 INTER-LIGAND FREE ENERGY PREDICTED BY IDOCK:   -5.73 KCAL/MOL
REMARK 924 INTRA-LIGAND FREE ENERGY PREDICTED BY IDOCK:   -0.76 KCAL/MOL
REMARK 927      BINDING AFFINITY PREDICTED BY RF-SCORE:    0.00 PKD
ROOT
HETATM    1  C   UNL     1     -11.181  16.407  68.695  1.00  0.00    -0.332 C  
HETATM    2  N   UNL     1     -10.027  15.546  68.558  1.00  0.00    -0.205 NA 
HETATM    3  C   UNL     1      -8.707  15.905  68.380  1.00  0.00    -0.183 A  
HETATM    4  C   UNL     1     -10.097  14.168  68.572  1.00  0.00    -0.243 A  
HETATM    5  N   UNL     1      -7.942  14.833  68.310  1.00  0.00    -0.123 NA 
HETATM    6  C   UNL     1     -11.143  13.250  68.701  1.00  0.00    -0.301 A  
HETATM    7  C   UNL     1      -8.785  13.759  68.411  1.00  0.00    -0.162 A  
HETATM    8  C   UNL     1     -10.805  11.881  68.666  1.00  0.00    -0.273 A  
HETATM    9  C   UNL     1      -8.484  12.391  68.371  1.00  0.00    -0.131 A  
HETATM   10  C   UNL     1      -9.488  11.414  68.518  1.00  0.00    -0.183 A  
ENDROOT
BRANCH   3  11
HETATM   11  C   UNL     1      -8.161  17.294  68.251  1.00  0.00    -0.246 C  
BRANCH  11  12
HETATM   12  C   UNL     1      -8.102  17.692  66.770  1.00  0.00    -0.264 C  
BRANCH  12  13
HETATM   13  C   UNL     1      -8.708  19.065  66.506  1.00  0.00    -0.327 C  
HETATM   14  O   UNL     1     -10.669  18.284  65.365  1.00  0.00    -0.610 OA 
HETATM   15  O   UNL     1     -10.964  19.555  67.204  1.00  0.00    -0.492 OA 
HETATM   16  C   UNL     1     -10.214  18.997  66.416  1.00  0.00    -0.437 C  
ENDBRANCH  12  13
ENDBRANCH  11  12
ENDBRANCH   3  11
BRANCH  10  17
HETATM   17  N   UNL     1      -9.168  10.059  68.534  1.00  0.00    -0.137 NA 
BRANCH  17  18
HETATM   18  C   UNL     1      -7.847   9.552  68.946  1.00  0.00    -0.080 C  
HETATM   19 CL   UNL     1      -8.825   8.642  71.362  1.00  0.00    -0.250 Cl 
HETATM   20  C   UNL     1      -7.618   9.600  70.461  1.00  0.00    -0.132 C  
ENDBRANCH  17  18
BRANCH  17  21
HETATM   21  C   UNL     1     -10.116   9.070  67.979  1.00  0.00    -0.190 C  
HETATM   22 CL   UNL     1      -8.689   8.713  65.647  1.00  0.00    -0.198 Cl 
HETATM   23  C   UNL     1     -10.230   9.123  66.450  1.00  0.00    -0.230 C  
ENDBRANCH  17  21
ENDBRANCH  10  17
TORSDOF 6
ENDMDL
MODEL      141
REMARK 921   NORMALIZED FREE ENERGY PREDICTED BY IDOCK:   -4.23 KCAL/MOL
REMARK 922        TOTAL FREE ENERGY PREDICTED BY IDOCK:   -6.49 KCAL/MOL
REMARK 923 INTER-LIGAND FREE ENERGY PREDICTED BY IDOCK:   -5.64 KCAL/MOL
REMARK 924 INTRA-LIGAND FREE ENERGY PREDICTED BY IDOCK:   -0.84 KCAL/MOL
REMARK 927      BINDING AFFINITY PREDICTED BY RF-SCORE:    0.00 PKD
ROOT
HETATM    1  C   UNL     1      -7.352   8.585  67.602  1.00  0.00    -0.089 C  
HETATM    2  N   UNL     1      -8.715   9.062  67.536  1.00  0.00    -0.120 NA 
HETATM    3  C   UNL     1      -9.881   8.353  67.739  1.00  0.00    -0.174 A  
HETATM    4  C   UNL     1      -9.054  10.364  67.230  1.00  0.00    -0.135 A  
HETATM    5  N   UNL     1     -10.931   9.142  67.604  1.00  0.00    -0.081 NA 
HETATM    6  C   UNL     1      -8.318  11.511  66.918  1.00  0.00    -0.166 A  
HETATM    7  C   UNL     1     -10.437  10.376  67.276  1.00  0.00    -0.252 A  
HETATM    8  C   UNL     1      -9.046  12.690  66.658  1.00  0.00    -0.193 A  
HETATM    9  C   UNL     1     -11.131  11.563  67.003  1.00  0.00    -0.365 A  
HETATM   10  C   UNL     1     -10.450  12.759  66.705  1.00  0.00    -0.257 A  
ENDROOT
BRANCH   3  11
HETATM   11  C   UNL     1     -10.006   6.892  68.044  1.00  0.00    -0.175 C  
BRANCH  11  12
HETATM   12  C   UNL     1     -10.667   6.170  66.862  1.00  0.00    -0.413 C  
BRANCH  12  13
HETATM   13  C   UNL     1     -10.060   4.799  66.596  1.00  0.00    -0.276 C  
HETATM   14  O   UNL     1      -8.710   5.454  64.724  1.00  0.00    -0.143 OA 
HETATM   15  O   UNL     1      -7.666   4.526  66.495  1.00  0.00    -0.092 OA 
HETATM   16  C   UNL     1      -8.695   4.912  65.960  1.00  0.00    -0.124 C  
ENDBRANCH  12  13
ENDBRANCH  11  12
ENDBRANCH   3  11
BRANCH  10  17
HETATM   17  N   UNL     1     -11.149  13.943  66.492  1.00  0.00    -0.304 NA 
BRANCH  17  18
HETATM   18  C   UNL     1     -10.693  15.248  67.006  1.00  0.00    -0.313 C  
HETATM   19 CL   UNL     1     -11.078  14.475  69.629  1.00  0.00    -0.278 Cl 
HETATM   20  C   UNL     1     -11.367  15.656  68.321  1.00  0.00    -0.356 C  
ENDBRANCH  17  18
BRANCH  17  21
HETATM   21  C   UNL     1     -12.485  13.909  65.860  1.00  0.00    -0.481 C  
HETATM   22 CL   UNL     1     -11.559  12.827  63.498  1.00  0.00    -0.562 Cl 
HETATM   23  C   UNL     1     -12.449  14.125  64.342  1.00  0.00    -0.293 C  
ENDBRANCH  17  21
ENDBRANCH  10  17
TORSDOF 6
ENDMDL
MODEL      142
REMARK 921   NORMALIZED FREE ENERGY PREDICTED BY IDOCK:   -4.18 KCAL/MOL
REMARK 922        TOTAL FREE ENERGY PREDICTED BY IDOCK:   -6.42 KCAL/MOL
REMARK 923 INTER-LIGAND FREE ENERGY PREDICTED BY IDOCK:   -5.61 KCAL/MOL
REMARK 924 INTRA-LIGAND FREE ENERGY PREDICTED BY IDOCK:   -0.81 KCAL/MOL
REMARK 927      BINDING AFFINITY PREDICTED BY RF-SCORE:    0.00 PKD
ROOT
HETATM    1  C   UNL     1     -11.196   5.415  72.847  1.00  0.00    -0.314 C  
HETATM    2  N   UNL     1     -11.399   5.972  71.529  1.00  0.00    -0.275 NA 
HETATM    3  C   UNL     1     -12.256   6.986  71.151  1.00  0.00    -0.382 A  
HETATM    4  C   UNL     1     -10.737   5.530  70.403  1.00  0.00    -0.251 A  
HETATM    5  N   UNL     1     -12.148   7.223  69.857  1.00  0.00     0.266 NA 
HETATM    6  C   UNL     1      -9.782   4.538  70.165  1.00  0.00    -0.287 A  
HETATM    7  C   UNL     1     -11.230   6.325  69.383  1.00  0.00    -0.420 A  
HETATM    8  C   UNL     1      -9.333   4.383  68.837  1.00  0.00    -0.216 A  
HETATM    9  C   UNL     1     -10.770   6.139  68.072  1.00  0.00    -0.370 A  
HETATM   10  C   UNL     1      -9.792   5.173  67.769  1.00  0.00    -0.156 A  
ENDROOT
BRANCH   3  11
HETATM   11  C   UNL     1     -13.215   7.730  72.029  1.00  0.00    -0.228 C  
BRANCH  11  12
HETATM   12  C   UNL     1     -13.475   9.125  71.447  1.00  0.00    -0.358 C  
BRANCH  12  13
HETATM   13  C   UNL     1     -12.295  10.070  71.634  1.00  0.00    -0.486 C  
HETATM   14  O   UNL     1     -12.226  10.873  69.374  1.00  0.00    -0.336 OA 
HETATM   15  O   UNL     1     -12.488  12.394  71.018  1.00  0.00    -0.368 OA 
HETATM   16  C   UNL     1     -12.357  11.230  70.669  1.00  0.00    -0.383 C  
ENDBRANCH  12  13
ENDBRANCH  11  12
ENDBRANCH   3  11
BRANCH  10  17
HETATM   17  N   UNL     1      -9.301   5.038  66.473  1.00  0.00    -0.133 NA 
BRANCH  17  18
HETATM   18  C   UNL     1      -9.998   4.268  65.427  1.00  0.00    -0.223 C  
HETATM   19 CL   UNL     1      -8.951   1.878  66.331  1.00  0.00    -0.121 Cl 
HETATM   20  C   UNL     1      -9.238   3.013  64.983  1.00  0.00    -0.149 C  
ENDBRANCH  17  18
BRANCH  17  21
HETATM   21  C   UNL     1      -7.954   5.547  66.137  1.00  0.00    -0.105 C  
HETATM   22 CL   UNL     1      -8.816   8.133  65.724  1.00  0.00    -0.186 Cl 
HETATM   23  C   UNL     1      -7.969   6.686  65.110  1.00  0.00    -0.124 C  
ENDBRANCH  17  21
ENDBRANCH  10  17
TORSDOF 6
ENDMDL
MODEL      143
REMARK 921   NORMALIZED FREE ENERGY PREDICTED BY IDOCK:   -4.17 KCAL/MOL
REMARK 922        TOTAL FREE ENERGY PREDICTED BY IDOCK:   -6.41 KCAL/MOL
REMARK 923 INTER-LIGAND FREE ENERGY PREDICTED BY IDOCK:   -5.92 KCAL/MOL
REMARK 924 INTRA-LIGAND FREE ENERGY PREDICTED BY IDOCK:   -0.49 KCAL/MOL
REMARK 927      BINDING AFFINITY PREDICTED BY RF-SCORE:    0.00 PKD
ROOT
HETATM    1  C   UNL     1     -13.376   9.453  72.215  1.00  0.00    -0.461 C  
HETATM    2  N   UNL     1     -12.372   9.434  71.175  1.00  0.00    -0.312 NA 
HETATM    3  C   UNL     1     -11.662   8.355  70.690  1.00  0.00    -0.147 A  
HETATM    4  C   UNL     1     -11.955  10.561  70.498  1.00  0.00    -0.342 A  
HETATM    5  N   UNL     1     -10.842   8.737  69.729  1.00  0.00    -0.223 NA 
HETATM    6  C   UNL     1     -12.295  11.915  70.563  1.00  0.00    -0.372 A  
HETATM    7  C   UNL     1     -11.001  10.091  69.611  1.00  0.00    -0.264 A  
HETATM    8  C   UNL     1     -11.628  12.788  69.679  1.00  0.00    -0.322 A  
HETATM    9  C   UNL     1     -10.350  10.987  68.753  1.00  0.00    -0.217 A  
HETATM   10  C   UNL     1     -10.662  12.360  68.751  1.00  0.00    -0.209 A  
ENDROOT
BRANCH   3  11
HETATM   11  C   UNL     1     -11.742   6.936  71.164  1.00  0.00    -0.381 C  
BRANCH  11  12
HETATM   12  C   UNL     1     -11.256   5.991  70.058  1.00  0.00    -0.425 C  
BRANCH  12  13
HETATM   13  C   UNL     1      -9.931   5.320  70.399  1.00  0.00    -0.303 C  
HETATM   14  O   UNL     1      -8.861   5.740  68.292  1.00  0.00    -0.110 OA 
HETATM   15  O   UNL     1      -7.857   6.526  70.152  1.00  0.00    -0.103 OA 
HETATM   16  C   UNL     1      -8.786   5.932  69.626  1.00  0.00    -0.131 C  
ENDBRANCH  12  13
ENDBRANCH  11  12
ENDBRANCH   3  11
BRANCH  10  17
HETATM   17  N   UNL     1     -10.050  13.230  67.853  1.00  0.00    -0.229 NA 
BRANCH  17  18
HETATM   18  C   UNL     1     -10.567  13.477  66.495  1.00  0.00    -0.281 C  
HETATM   19 CL   UNL     1     -10.746  16.196  66.937  1.00  0.00    -0.290 Cl 
HETATM   20  C   UNL     1     -11.519  14.675  66.412  1.00  0.00    -0.347 C  
ENDBRANCH  17  18
BRANCH  17  21
HETATM   21  C   UNL     1      -8.741  13.833  68.186  1.00  0.00    -0.183 C  
HETATM   22 CL   UNL     1      -7.284  11.796  67.032  1.00  0.00    -0.145 Cl 
HETATM   23  C   UNL     1      -7.644  12.798  68.466  1.00  0.00    -0.120 C  
ENDBRANCH  17  21
ENDBRANCH  10  17
TORSDOF 6
ENDMDL
MODEL      144
REMARK 921   NORMALIZED FREE ENERGY PREDICTED BY IDOCK:   -4.16 KCAL/MOL
REMARK 922        TOTAL FREE ENERGY PREDICTED BY IDOCK:   -6.40 KCAL/MOL
REMARK 923 INTER-LIGAND FREE ENERGY PREDICTED BY IDOCK:   -5.88 KCAL/MOL
REMARK 924 INTRA-LIGAND FREE ENERGY PREDICTED BY IDOCK:   -0.52 KCAL/MOL
REMARK 927      BINDING AFFINITY PREDICTED BY RF-SCORE:    0.00 PKD
ROOT
HETATM    1  C   UNL     1     -11.172  11.653  63.495  1.00  0.00    -0.373 C  
HETATM    2  N   UNL     1     -10.435  11.855  64.722  1.00  0.00    -0.275 NA 
HETATM    3  C   UNL     1      -9.550  10.996  65.341  1.00  0.00    -0.225 A  
HETATM    4  C   UNL     1     -10.532  12.995  65.492  1.00  0.00    -0.285 A  
HETATM    5  N   UNL     1      -9.067  11.543  66.441  1.00  0.00    -0.196 NA 
HETATM    6  C   UNL     1     -11.266  14.180  65.383  1.00  0.00    -0.325 A  
HETATM    7  C   UNL     1      -9.674  12.765  66.553  1.00  0.00    -0.255 A  
HETATM    8  C   UNL     1     -11.090  15.141  66.401  1.00  0.00    -0.312 A  
HETATM    9  C   UNL     1      -9.530  13.736  67.553  1.00  0.00    -0.220 A  
HETATM   10  C   UNL     1     -10.222  14.961  67.492  1.00  0.00    -0.233 A  
ENDROOT
BRANCH   3  11
HETATM   11  C   UNL     1      -9.173   9.616  64.896  1.00  0.00    -0.306 C  
BRANCH  11  12
HETATM   12  C   UNL     1      -9.318   8.635  66.066  1.00  0.00    -0.284 C  
BRANCH  12  13
HETATM   13  C   UNL     1     -10.482   8.984  66.985  1.00  0.00    -0.316 C  
HETATM   14  O   UNL     1     -10.549   6.887  68.151  1.00  0.00    -0.193 OA 
HETATM   15  O   UNL     1     -10.255   8.758  69.375  1.00  0.00    -0.199 OA 
HETATM   16  C   UNL     1     -10.406   8.223  68.287  1.00  0.00    -0.198 C  
ENDBRANCH  12  13
ENDBRANCH  11  12
ENDBRANCH   3  11
BRANCH  10  17
HETATM   17  N   UNL     1     -10.025  15.940  68.462  1.00  0.00    -0.212 NA 
BRANCH  17  18
HETATM   18  C   UNL     1     -11.135  16.648  69.124  1.00  0.00    -0.219 C  
HETATM   19 CL   UNL     1     -11.162  14.866  71.232  1.00  0.00    -0.257 Cl 
HETATM   20  C   UNL     1     -12.046  15.727  69.943  1.00  0.00    -0.297 C  
ENDBRANCH  17  18
BRANCH  17  21
HETATM   21  C   UNL     1      -8.659  16.424  68.755  1.00  0.00    -0.250 C  
HETATM   22 CL   UNL     1      -8.904  18.678  67.185  1.00  0.00    -0.273 Cl 
HETATM   23  C   UNL     1      -8.014  17.183  67.588  1.00  0.00    -0.178 C  
ENDBRANCH  17  21
ENDBRANCH  10  17
TORSDOF 6
ENDMDL
MODEL      145
REMARK 921   NORMALIZED FREE ENERGY PREDICTED BY IDOCK:   -4.16 KCAL/MOL
REMARK 922        TOTAL FREE ENERGY PREDICTED BY IDOCK:   -6.39 KCAL/MOL
REMARK 923 INTER-LIGAND FREE ENERGY PREDICTED BY IDOCK:   -5.63 KCAL/MOL
REMARK 924 INTRA-LIGAND FREE ENERGY PREDICTED BY IDOCK:   -0.77 KCAL/MOL
REMARK 927      BINDING AFFINITY PREDICTED BY RF-SCORE:    0.00 PKD
ROOT
HETATM    1  C   UNL     1     -12.552   8.876  71.835  1.00  0.00    -0.377 C  
HETATM    2  N   UNL     1     -11.649   8.837  70.707  1.00  0.00    -0.275 NA 
HETATM    3  C   UNL     1     -11.163   9.892  69.962  1.00  0.00    -0.276 A  
HETATM    4  C   UNL     1     -11.132   7.670  70.183  1.00  0.00    -0.218 A  
HETATM    5  N   UNL     1     -10.349   9.455  69.019  1.00  0.00    -0.205 NA 
HETATM    6  C   UNL     1     -11.274   6.316  70.502  1.00  0.00    -0.420 A  
HETATM    7  C   UNL     1     -10.334   8.091  69.134  1.00  0.00    -0.220 A  
HETATM    8  C   UNL     1     -10.562   5.391  69.710  1.00  0.00    -0.347 A  
HETATM    9  C   UNL     1      -9.647   7.145  68.361  1.00  0.00    -0.137 A  
HETATM   10  C   UNL     1      -9.729   5.768  68.642  1.00  0.00    -0.131 A  
ENDROOT
BRANCH   3  11
HETATM   11  C   UNL     1     -11.494  11.343  70.131  1.00  0.00    -0.302 C  
BRANCH  11  12
HETATM   12  C   UNL     1     -12.126  11.884  68.843  1.00  0.00    -0.213 C  
BRANCH  12  13
HETATM   13  C   UNL     1     -11.185  12.793  68.063  1.00  0.00    -0.310 C  
HETATM   14  O   UNL     1     -12.179  12.435  65.909  1.00  0.00    -0.629 OA 
HETATM   15  O   UNL     1     -12.068  14.554  66.671  1.00  0.00    -0.393 OA 
HETATM   16  C   UNL     1     -11.856  13.361  66.835  1.00  0.00    -0.403 C  
ENDBRANCH  12  13
ENDBRANCH  11  12
ENDBRANCH   3  11
BRANCH  10  17
HETATM   17  N   UNL     1      -8.996   4.844  67.903  1.00  0.00    -0.107 NA 
BRANCH  17  18
HETATM   18  C   UNL     1      -9.624   3.785  67.092  1.00  0.00    -0.179 C  
HETATM   19 CL   UNL     1      -8.984   5.060  64.728  1.00  0.00    -0.132 Cl 
HETATM   20  C   UNL     1     -10.213   4.295  65.772  1.00  0.00    -0.186 C  
ENDBRANCH  17  18
BRANCH  17  21
HETATM   21  C   UNL     1      -7.524   4.797  68.031  1.00  0.00    -0.074 C  
HETATM   22 CL   UNL     1      -7.563   2.975  70.101  1.00  0.00    -0.044 Cl 
HETATM   23  C   UNL     1      -7.042   4.562  69.469  1.00  0.00    -0.050 C  
ENDBRANCH  17  21
ENDBRANCH  10  17
TORSDOF 6
ENDMDL
MODEL      146
REMARK 921   NORMALIZED FREE ENERGY PREDICTED BY IDOCK:   -4.15 KCAL/MOL
REMARK 922        TOTAL FREE ENERGY PREDICTED BY IDOCK:   -6.38 KCAL/MOL
REMARK 923 INTER-LIGAND FREE ENERGY PREDICTED BY IDOCK:   -6.02 KCAL/MOL
REMARK 924 INTRA-LIGAND FREE ENERGY PREDICTED BY IDOCK:   -0.36 KCAL/MOL
REMARK 927      BINDING AFFINITY PREDICTED BY RF-SCORE:    0.00 PKD
ROOT
HETATM    1  C   UNL     1      -8.037   8.961  69.814  1.00  0.00    -0.109 C  
HETATM    2  N   UNL     1      -9.310   9.580  69.517  1.00  0.00    -0.177 NA 
HETATM    3  C   UNL     1     -10.576   9.062  69.693  1.00  0.00    -0.224 A  
HETATM    4  C   UNL     1      -9.436  10.842  68.974  1.00  0.00    -0.166 A  
HETATM    5  N   UNL     1     -11.490   9.936  69.317  1.00  0.00    -0.068 NA 
HETATM    6  C   UNL     1      -8.524  11.822  68.574  1.00  0.00    -0.125 A  
HETATM    7  C   UNL     1     -10.803  11.028  68.859  1.00  0.00    -0.217 A  
HETATM    8  C   UNL     1      -9.055  13.019  68.049  1.00  0.00    -0.210 A  
HETATM    9  C   UNL     1     -11.298  12.225  68.325  1.00  0.00    -0.339 A  
HETATM   10  C   UNL     1     -10.434  13.262  67.923  1.00  0.00    -0.240 A  
ENDROOT
BRANCH   3  11
HETATM   11  C   UNL     1     -10.929   7.699  70.206  1.00  0.00    -0.261 C  
BRANCH  11  12
HETATM   12  C   UNL     1     -11.458   7.806  71.642  1.00  0.00    -0.299 C  
BRANCH  12  13
HETATM   13  C   UNL     1     -12.251   9.084  71.883  1.00  0.00    -0.451 C  
HETATM   14  O   UNL     1     -14.383   8.217  71.204  1.00  0.00    -0.298 OA 
HETATM   15  O   UNL     1     -14.209   9.055  73.290  1.00  0.00    -0.244 OA 
HETATM   16  C   UNL     1     -13.694   8.786  72.215  1.00  0.00    -0.440 C  
ENDBRANCH  12  13
ENDBRANCH  11  12
ENDBRANCH   3  11
BRANCH  10  17
HETATM   17  N   UNL     1     -10.941  14.469  67.449  1.00  0.00    -0.295 NA 
BRANCH  17  18
HETATM   18  C   UNL     1     -11.628  15.446  68.312  1.00  0.00    -0.348 C  
HETATM   19 CL   UNL     1      -9.246  16.343  69.382  1.00  0.00    -0.147 Cl 
HETATM   20  C   UNL     1     -10.897  15.714  69.633  1.00  0.00    -0.287 C  
ENDBRANCH  17  18
BRANCH  17  21
HETATM   21  C   UNL     1     -10.944  14.748  65.997  1.00  0.00    -0.328 C  
HETATM   22 CL   UNL     1      -8.688  16.331  66.095  1.00  0.00    -0.367 Cl 
HETATM   23  C   UNL     1     -10.404  16.140  65.641  1.00  0.00    -0.382 C  
ENDBRANCH  17  21
ENDBRANCH  10  17
TORSDOF 6
ENDMDL
MODEL      147
REMARK 921   NORMALIZED FREE ENERGY PREDICTED BY IDOCK:   -4.15 KCAL/MOL
REMARK 922        TOTAL FREE ENERGY PREDICTED BY IDOCK:   -6.37 KCAL/MOL
REMARK 923 INTER-LIGAND FREE ENERGY PREDICTED BY IDOCK:   -5.38 KCAL/MOL
REMARK 924 INTRA-LIGAND FREE ENERGY PREDICTED BY IDOCK:   -0.99 KCAL/MOL
REMARK 927      BINDING AFFINITY PREDICTED BY RF-SCORE:    0.00 PKD
ROOT
HETATM    1  C   UNL     1     -10.642   8.819  70.901  1.00  0.00    -0.220 C  
HETATM    2  N   UNL     1     -10.616   8.520  69.486  1.00  0.00    -0.224 NA 
HETATM    3  C   UNL     1     -10.684   7.288  68.870  1.00  0.00    -0.150 A  
HETATM    4  C   UNL     1     -10.500   9.483  68.505  1.00  0.00    -0.217 A  
HETATM    5  N   UNL     1     -10.643   7.424  67.558  1.00  0.00    -0.265 NA 
HETATM    6  C   UNL     1     -10.380  10.875  68.521  1.00  0.00    -0.203 A  
HETATM    7  C   UNL     1     -10.515   8.767  67.321  1.00  0.00    -0.283 A  
HETATM    8  C   UNL     1     -10.281  11.526  67.273  1.00  0.00    -0.229 A  
HETATM    9  C   UNL     1     -10.405   9.443  66.099  1.00  0.00    -0.162 A  
HETATM   10  C   UNL     1     -10.305  10.846  66.043  1.00  0.00    -0.245 A  
ENDROOT
BRANCH   3  11
HETATM   11  C   UNL     1     -10.763   5.949  69.538  1.00  0.00    -0.414 C  
BRANCH  11  12
HETATM   12  C   UNL     1      -9.350   5.435  69.840  1.00  0.00    -0.184 C  
BRANCH  12  13
HETATM   13  C   UNL     1      -8.639   4.906  68.600  1.00  0.00    -0.099 C  
HETATM   14  O   UNL     1      -9.602   2.709  68.648  1.00  0.00    -0.165 OA 
HETATM   15  O   UNL     1      -9.906   3.946  66.787  1.00  0.00    -0.206 OA 
HETATM   16  C   UNL     1      -9.449   3.831  67.915  1.00  0.00    -0.170 C  
ENDBRANCH  12  13
ENDBRANCH  11  12
ENDBRANCH   3  11
BRANCH  10  17
HETATM   17  N   UNL     1     -10.255  11.510  64.820  1.00  0.00    -0.265 NA 
BRANCH  17  18
HETATM   18  C   UNL     1     -10.197  10.806  63.526  1.00  0.00    -0.250 C  
HETATM   19 CL   UNL     1      -7.486  10.344  63.773  1.00  0.00    -0.070 Cl 
HETATM   20  C   UNL     1      -8.853  10.962  62.806  1.00  0.00    -0.282 C  
ENDBRANCH  17  18
BRANCH  17  21
HETATM   21  C   UNL     1     -10.100  12.980  64.784  1.00  0.00    -0.218 C  
HETATM   22 CL   UNL     1     -12.774  13.473  65.243  1.00  0.00    -0.511 Cl 
HETATM   23  C   UNL     1     -11.327  13.711  64.224  1.00  0.00    -0.350 C  
ENDBRANCH  17  21
ENDBRANCH  10  17
TORSDOF 6
ENDMDL
MODEL      148
REMARK 921   NORMALIZED FREE ENERGY PREDICTED BY IDOCK:   -4.14 KCAL/MOL
REMARK 922        TOTAL FREE ENERGY PREDICTED BY IDOCK:   -6.37 KCAL/MOL
REMARK 923 INTER-LIGAND FREE ENERGY PREDICTED BY IDOCK:   -5.63 KCAL/MOL
REMARK 924 INTRA-LIGAND FREE ENERGY PREDICTED BY IDOCK:   -0.74 KCAL/MOL
REMARK 927      BINDING AFFINITY PREDICTED BY RF-SCORE:    0.00 PKD
ROOT
HETATM    1  C   UNL     1     -12.591   8.669  72.214  1.00  0.00    -0.395 C  
HETATM    2  N   UNL     1     -11.781   8.686  71.016  1.00  0.00    -0.283 NA 
HETATM    3  C   UNL     1     -11.448   9.765  70.223  1.00  0.00    -0.255 A  
HETATM    4  C   UNL     1     -11.211   7.558  70.464  1.00  0.00    -0.269 A  
HETATM    5  N   UNL     1     -10.679   9.382  69.221  1.00  0.00    -0.227 NA 
HETATM    6  C   UNL     1     -11.211   6.203  70.807  1.00  0.00    -0.373 A  
HETATM    7  C   UNL     1     -10.538   8.027  69.349  1.00  0.00    -0.205 A  
HETATM    8  C   UNL     1     -10.489   5.328  69.970  1.00  0.00    -0.351 A  
HETATM    9  C   UNL     1      -9.838   7.129  68.532  1.00  0.00    -0.155 A  
HETATM   10  C   UNL     1      -9.780   5.755  68.834  1.00  0.00    -0.136 A  
ENDROOT
BRANCH   3  11
HETATM   11  C   UNL     1     -11.888  11.186  70.404  1.00  0.00    -0.462 C  
BRANCH  11  12
HETATM   12  C   UNL     1     -12.114  11.838  69.033  1.00  0.00    -0.276 C  
BRANCH  12  13
HETATM   13  C   UNL     1     -11.167  13.002  68.772  1.00  0.00    -0.325 C  
HETATM   14  O   UNL     1     -12.272  13.819  66.806  1.00  0.00    -0.425 OA 
HETATM   15  O   UNL     1     -12.028  15.243  68.538  1.00  0.00    -0.310 OA 
HETATM   16  C   UNL     1     -11.865  14.132  68.053  1.00  0.00    -0.365 C  
ENDBRANCH  12  13
ENDBRANCH  11  12
ENDBRANCH   3  11
BRANCH  10  17
HETATM   17  N   UNL     1      -9.032   4.883  68.047  1.00  0.00    -0.107 NA 
BRANCH  17  18
HETATM   18  C   UNL     1      -9.621   3.725  67.350  1.00  0.00    -0.161 C  
HETATM   19 CL   UNL     1      -9.183   2.062  69.510  1.00  0.00    -0.170 Cl 
HETATM   20  C   UNL     1      -9.004   2.384  67.764  1.00  0.00    -0.155 C  
ENDBRANCH  17  18
BRANCH  17  21
HETATM   21  C   UNL     1      -7.559   5.004  68.006  1.00  0.00    -0.083 C  
HETATM   22 CL   UNL     1      -7.557   6.673  65.811  1.00  0.00    -0.082 Cl 
HETATM   23  C   UNL     1      -6.998   5.165  66.588  1.00  0.00    -0.064 C  
ENDBRANCH  17  21
ENDBRANCH  10  17
TORSDOF 6
ENDMDL
MODEL      149
REMARK 921   NORMALIZED FREE ENERGY PREDICTED BY IDOCK:   -4.08 KCAL/MOL
REMARK 922        TOTAL FREE ENERGY PREDICTED BY IDOCK:   -6.29 KCAL/MOL
REMARK 923 INTER-LIGAND FREE ENERGY PREDICTED BY IDOCK:   -5.56 KCAL/MOL
REMARK 924 INTRA-LIGAND FREE ENERGY PREDICTED BY IDOCK:   -0.74 KCAL/MOL
REMARK 927      BINDING AFFINITY PREDICTED BY RF-SCORE:    0.00 PKD
ROOT
HETATM    1  C   UNL     1     -12.124  14.364  66.401  1.00  0.00    -0.369 C  
HETATM    2  N   UNL     1     -11.499  13.471  67.351  1.00  0.00    -0.318 NA 
HETATM    3  C   UNL     1     -11.722  13.376  68.710  1.00  0.00    -0.340 A  
HETATM    4  C   UNL     1     -10.530  12.551  67.011  1.00  0.00    -0.231 A  
HETATM    5  N   UNL     1     -10.967  12.430  69.236  1.00  0.00    -0.147 NA 
HETATM    6  C   UNL     1      -9.898  12.204  65.814  1.00  0.00    -0.264 A  
HETATM    7  C   UNL     1     -10.219  11.925  68.206  1.00  0.00    -0.204 A  
HETATM    8  C   UNL     1      -8.930  11.180  65.871  1.00  0.00    -0.210 A  
HETATM    9  C   UNL     1      -9.245  10.918  68.230  1.00  0.00    -0.161 A  
HETATM   10  C   UNL     1      -8.587  10.505  67.056  1.00  0.00    -0.127 A  
ENDROOT
BRANCH   3  11
HETATM   11  C   UNL     1     -12.651  14.215  69.532  1.00  0.00    -0.011 C  
BRANCH  11  12
HETATM   12  C   UNL     1     -12.532  13.824  71.011  1.00  0.00    -0.458 C  
BRANCH  12  13
HETATM   13  C   UNL     1     -11.833  14.889  71.847  1.00  0.00    -0.416 C  
HETATM   14  O   UNL     1     -13.822  15.870  72.762  1.00  0.00    -0.584 OA 
HETATM   15  O   UNL     1     -12.286  15.075  74.208  1.00  0.00    -0.604 OA 
HETATM   16  C   UNL     1     -12.652  15.268  73.058  1.00  0.00    -0.430 C  
ENDBRANCH  12  13
ENDBRANCH  11  12
ENDBRANCH   3  11
BRANCH  10  17
HETATM   17  N   UNL     1      -7.664   9.464  67.084  1.00  0.00    -0.092 NA 
BRANCH  17  18
HETATM   18  C   UNL     1      -8.056   8.045  67.143  1.00  0.00    -0.117 C  
HETATM   19 CL   UNL     1      -8.137   7.836  64.391  1.00  0.00    -0.124 Cl 
HETATM   20  C   UNL     1      -8.938   7.605  65.970  1.00  0.00    -0.139 C  
ENDBRANCH  17  18
BRANCH  17  21
HETATM   21  C   UNL     1      -6.221   9.761  67.214  1.00  0.00    -0.067 C  
HETATM   22 CL   UNL     1      -5.948  10.572  64.592  1.00  0.00    -0.103 Cl 
HETATM   23  C   UNL     1      -5.426   9.506  65.927  1.00  0.00    -0.040 C  
ENDBRANCH  17  21
ENDBRANCH  10  17
TORSDOF 6
ENDMDL
MODEL      150
REMARK 921   NORMALIZED FREE ENERGY PREDICTED BY IDOCK:   -4.08 KCAL/MOL
REMARK 922        TOTAL FREE ENERGY PREDICTED BY IDOCK:   -6.28 KCAL/MOL
REMARK 923 INTER-LIGAND FREE ENERGY PREDICTED BY IDOCK:   -5.64 KCAL/MOL
REMARK 924 INTRA-LIGAND FREE ENERGY PREDICTED BY IDOCK:   -0.64 KCAL/MOL
REMARK 927      BINDING AFFINITY PREDICTED BY RF-SCORE:    0.00 PKD
ROOT
HETATM    1  C   UNL     1      -7.932   7.942  69.506  1.00  0.00    -0.116 C  
HETATM    2  N   UNL     1      -9.221   8.586  69.623  1.00  0.00    -0.156 NA 
HETATM    3  C   UNL     1     -10.402   8.056  70.103  1.00  0.00    -0.215 A  
HETATM    4  C   UNL     1      -9.463   9.887  69.235  1.00  0.00    -0.209 A  
HETATM    5  N   UNL     1     -11.363   8.960  70.064  1.00  0.00    -0.115 NA 
HETATM    6  C   UNL     1      -8.674  10.895  68.674  1.00  0.00    -0.154 A  
HETATM    7  C   UNL     1     -10.803  10.084  69.518  1.00  0.00    -0.253 A  
HETATM    8  C   UNL     1      -9.301  12.131  68.412  1.00  0.00    -0.170 A  
HETATM    9  C   UNL     1     -11.398  11.321  69.237  1.00  0.00    -0.354 A  
HETATM   10  C   UNL     1     -10.655  12.386  68.693  1.00  0.00    -0.218 A  
ENDROOT
BRANCH   3  11
HETATM   11  C   UNL     1     -10.631   6.657  70.587  1.00  0.00    -0.268 C  
BRANCH  11  12
HETATM   12  C   UNL     1     -10.472   5.672  69.422  1.00  0.00    -0.367 C  
BRANCH  12  13
HETATM   13  C   UNL     1     -10.968   6.242  68.099  1.00  0.00    -0.412 C  
HETATM   14  O   UNL     1      -8.967   5.808  66.847  1.00  0.00    -0.113 OA 
HETATM   15  O   UNL     1     -10.891   4.904  66.093  1.00  0.00    -0.289 OA 
HETATM   16  C   UNL     1     -10.294   5.575  66.923  1.00  0.00    -0.265 C  
ENDBRANCH  12  13
ENDBRANCH  11  12
ENDBRANCH   3  11
BRANCH  10  17
HETATM   17  N   UNL     1     -11.245  13.627  68.472  1.00  0.00    -0.264 NA 
BRANCH  17  18
HETATM   18  C   UNL     1     -11.094  14.764  69.399  1.00  0.00    -0.281 C  
HETATM   19 CL   UNL     1     -13.338  14.035  70.834  1.00  0.00    -0.252 Cl 
HETATM   20  C   UNL     1     -12.427  15.287  69.946  1.00  0.00    -0.240 C  
ENDBRANCH  17  18
BRANCH  17  21
HETATM   21  C   UNL     1     -12.191  13.806  67.350  1.00  0.00    -0.254 C  
HETATM   22 CL   UNL     1     -10.220  13.792  65.422  1.00  0.00    -0.343 Cl 
HETATM   23  C   UNL     1     -11.611  14.614  66.183  1.00  0.00    -0.332 C  
ENDBRANCH  17  21
ENDBRANCH  10  17
TORSDOF 6
ENDMDL
MODEL      151
REMARK 921   NORMALIZED FREE ENERGY PREDICTED BY IDOCK:   -4.07 KCAL/MOL
REMARK 922        TOTAL FREE ENERGY PREDICTED BY IDOCK:   -6.27 KCAL/MOL
REMARK 923 INTER-LIGAND FREE ENERGY PREDICTED BY IDOCK:   -5.64 KCAL/MOL
REMARK 924 INTRA-LIGAND FREE ENERGY PREDICTED BY IDOCK:   -0.63 KCAL/MOL
REMARK 927      BINDING AFFINITY PREDICTED BY RF-SCORE:    0.00 PKD
ROOT
HETATM    1  C   UNL     1      -9.422  11.472  67.859  1.00  0.00    -0.178 C  
HETATM    2  N   UNL     1      -9.598  12.865  68.204  1.00  0.00    -0.220 NA 
HETATM    3  C   UNL     1     -10.721  13.486  68.708  1.00  0.00    -0.238 A  
HETATM    4  C   UNL     1      -8.613  13.818  68.052  1.00  0.00    -0.177 A  
HETATM    5  N   UNL     1     -10.489  14.770  68.908  1.00  0.00    -0.243 NA 
HETATM    6  C   UNL     1      -7.297  13.789  67.582  1.00  0.00    -0.182 A  
HETATM    7  C   UNL     1      -9.202  14.990  68.494  1.00  0.00    -0.192 A  
HETATM    8  C   UNL     1      -6.587  15.008  67.582  1.00  0.00    -0.193 A  
HETATM    9  C   UNL     1      -8.472  16.186  68.472  1.00  0.00    -0.197 A  
HETATM   10  C   UNL     1      -7.135  16.222  68.032  1.00  0.00    -0.133 A  
ENDROOT
BRANCH   3  11
HETATM   11  C   UNL     1     -12.052  12.856  68.985  1.00  0.00    -0.198 C  
BRANCH  11  12
HETATM   12  C   UNL     1     -11.982  12.047  70.286  1.00  0.00    -0.398 C  
BRANCH  12  13
HETATM   13  C   UNL     1     -12.657  10.686  70.169  1.00  0.00    -0.283 C  
HETATM   14  O   UNL     1     -10.903   9.419  71.206  1.00  0.00    -0.314 OA 
HETATM   15  O   UNL     1     -12.960   9.305  72.123  1.00  0.00    -0.380 OA 
HETATM   16  C   UNL     1     -12.210   9.750  71.267  1.00  0.00    -0.374 C  
ENDBRANCH  12  13
ENDBRANCH  11  12
ENDBRANCH   3  11
BRANCH  10  17
HETATM   17  N   UNL     1      -6.403  17.405  68.071  1.00  0.00    -0.152 NA 
BRANCH  17  18
HETATM   18  C   UNL     1      -5.591  17.884  66.937  1.00  0.00    -0.143 C  
HETATM   19 CL   UNL     1      -7.714  19.286  65.864  1.00  0.00    -0.288 Cl 
HETATM   20  C   UNL     1      -6.400  18.096  65.653  1.00  0.00    -0.253 C  
ENDBRANCH  17  18
BRANCH  17  21
HETATM   21  C   UNL     1      -6.290  18.163  69.335  1.00  0.00    -0.248 C  
HETATM   22 CL   UNL     1      -8.664  19.518  68.969  1.00  0.00    -0.313 Cl 
HETATM   23  C   UNL     1      -6.903  19.567  69.264  1.00  0.00    -0.346 C  
ENDBRANCH  17  21
ENDBRANCH  10  17
TORSDOF 6
ENDMDL
MODEL      152
REMARK 921   NORMALIZED FREE ENERGY PREDICTED BY IDOCK:   -4.07 KCAL/MOL
REMARK 922        TOTAL FREE ENERGY PREDICTED BY IDOCK:   -6.27 KCAL/MOL
REMARK 923 INTER-LIGAND FREE ENERGY PREDICTED BY IDOCK:   -6.16 KCAL/MOL
REMARK 924 INTRA-LIGAND FREE ENERGY PREDICTED BY IDOCK:   -0.11 KCAL/MOL
REMARK 927      BINDING AFFINITY PREDICTED BY RF-SCORE:    0.00 PKD
ROOT
HETATM    1  C   UNL     1     -12.706   6.940  72.050  1.00  0.00    -0.193 C  
HETATM    2  N   UNL     1     -11.997   7.789  71.119  1.00  0.00    -0.299 NA 
HETATM    3  C   UNL     1     -11.074   7.425  70.160  1.00  0.00    -0.246 A  
HETATM    4  C   UNL     1     -12.145   9.159  71.072  1.00  0.00    -0.263 A  
HETATM    5  N   UNL     1     -10.656   8.485  69.496  1.00  0.00    -0.224 NA 
HETATM    6  C   UNL     1     -12.911  10.079  71.793  1.00  0.00    -0.546 A  
HETATM    7  C   UNL     1     -11.294   9.559  70.055  1.00  0.00    -0.166 A  
HETATM    8  C   UNL     1     -12.786  11.438  71.439  1.00  0.00    -0.502 A  
HETATM    9  C   UNL     1     -11.186  10.919  69.734  1.00  0.00    -0.351 A  
HETATM   10  C   UNL     1     -11.947  11.894  70.407  1.00  0.00    -0.311 A  
ENDROOT
BRANCH   3  11
HETATM   11  C   UNL     1     -10.559   6.045  69.883  1.00  0.00    -0.345 C  
BRANCH  11  12
HETATM   12  C   UNL     1      -9.143   5.896  70.454  1.00  0.00    -0.157 C  
BRANCH  12  13
HETATM   13  C   UNL     1      -9.099   6.059  71.968  1.00  0.00    -0.144 C  
HETATM   14  O   UNL     1      -7.220   7.550  72.030  1.00  0.00    -0.065 OA 
HETATM   15  O   UNL     1      -9.150   8.257  72.958  1.00  0.00    -0.254 OA 
HETATM   16  C   UNL     1      -8.518   7.395  72.364  1.00  0.00    -0.112 C  
ENDBRANCH  12  13
ENDBRANCH  11  12
ENDBRANCH   3  11
BRANCH  10  17
HETATM   17  N   UNL     1     -11.874  13.235  70.039  1.00  0.00    -0.316 NA 
BRANCH  17  18
HETATM   18  C   UNL     1     -10.727  13.806  69.309  1.00  0.00    -0.055 C  
HETATM   19 CL   UNL     1     -12.111  13.820  66.920  1.00  0.00    -0.458 Cl 
HETATM   20  C   UNL     1     -10.653  13.363  67.844  1.00  0.00    -0.245 C  
ENDBRANCH  17  18
BRANCH  17  21
HETATM   21  C   UNL     1     -12.900  14.188  70.514  1.00  0.00    -0.247 C  
HETATM   22 CL   UNL     1     -11.281  15.264  72.469  1.00  0.00    -0.322 Cl 
HETATM   23  C   UNL     1     -12.818  14.475  72.018  1.00  0.00    -0.337 C  
ENDBRANCH  17  21
ENDBRANCH  10  17
TORSDOF 6
ENDMDL
MODEL      153
REMARK 921   NORMALIZED FREE ENERGY PREDICTED BY IDOCK:   -4.06 KCAL/MOL
REMARK 922        TOTAL FREE ENERGY PREDICTED BY IDOCK:   -6.26 KCAL/MOL
REMARK 923 INTER-LIGAND FREE ENERGY PREDICTED BY IDOCK:   -5.52 KCAL/MOL
REMARK 924 INTRA-LIGAND FREE ENERGY PREDICTED BY IDOCK:   -0.75 KCAL/MOL
REMARK 927      BINDING AFFINITY PREDICTED BY RF-SCORE:    0.00 PKD
ROOT
HETATM    1  C   UNL     1     -10.772  16.745  69.571  1.00  0.00    -0.273 C  
HETATM    2  N   UNL     1      -9.847  15.929  68.816  1.00  0.00    -0.207 NA 
HETATM    3  C   UNL     1      -8.490  16.110  68.645  1.00  0.00    -0.216 A  
HETATM    4  C   UNL     1     -10.221  14.803  68.112  1.00  0.00    -0.228 A  
HETATM    5  N   UNL     1      -7.987  15.146  67.897  1.00  0.00    -0.128 NA 
HETATM    6  C   UNL     1     -11.438  14.148  67.904  1.00  0.00    -0.340 A  
HETATM    7  C   UNL     1      -9.042  14.345  67.550  1.00  0.00    -0.195 A  
HETATM    8  C   UNL     1     -11.415  12.990  67.099  1.00  0.00    -0.379 A  
HETATM    9  C   UNL     1      -9.055  13.197  66.747  1.00  0.00    -0.214 A  
HETATM   10  C   UNL     1     -10.243  12.477  66.516  1.00  0.00    -0.240 A  
ENDROOT
BRANCH   3  11
HETATM   11  C   UNL     1      -7.655  17.232  69.181  1.00  0.00    -0.103 C  
BRANCH  11  12
HETATM   12  C   UNL     1      -6.519  17.549  68.199  1.00  0.00    -0.178 C  
BRANCH  12  13
HETATM   13  C   UNL     1      -5.319  18.197  68.878  1.00  0.00    -0.190 C  
HETATM   14  O   UNL     1      -6.322  20.350  69.216  1.00  0.00    -0.311 OA 
HETATM   15  O   UNL     1      -5.561  19.252  71.033  1.00  0.00    -0.230 OA 
HETATM   16  C   UNL     1      -5.744  19.294  69.825  1.00  0.00    -0.241 C  
ENDBRANCH  12  13
ENDBRANCH  11  12
ENDBRANCH   3  11
BRANCH  10  17
HETATM   17  N   UNL     1     -10.232  11.306  65.764  1.00  0.00    -0.242 NA 
BRANCH  17  18
HETATM   18  C   UNL     1     -10.532   9.981  66.337  1.00  0.00    -0.129 C  
HETATM   19 CL   UNL     1      -7.877   9.515  66.936  1.00  0.00    -0.101 Cl 
HETATM   20  C   UNL     1      -9.393   8.970  66.167  1.00  0.00    -0.232 C  
ENDBRANCH  17  18
BRANCH  17  21
HETATM   21  C   UNL     1      -9.757  11.332  64.364  1.00  0.00    -0.254 C  
HETATM   22 CL   UNL     1     -11.878  12.845  63.462  1.00  0.00    -0.587 Cl 
HETATM   23  C   UNL     1     -10.892  11.362  63.333  1.00  0.00    -0.297 C  
ENDBRANCH  17  21
ENDBRANCH  10  17
TORSDOF 6
ENDMDL
MODEL      154
REMARK 921   NORMALIZED FREE ENERGY PREDICTED BY IDOCK:   -4.06 KCAL/MOL
REMARK 922        TOTAL FREE ENERGY PREDICTED BY IDOCK:   -6.26 KCAL/MOL
REMARK 923 INTER-LIGAND FREE ENERGY PREDICTED BY IDOCK:   -5.41 KCAL/MOL
REMARK 924 INTRA-LIGAND FREE ENERGY PREDICTED BY IDOCK:   -0.85 KCAL/MOL
REMARK 927      BINDING AFFINITY PREDICTED BY RF-SCORE:    0.00 PKD
ROOT
HETATM    1  C   UNL     1     -10.513   7.798  69.419  1.00  0.00    -0.220 C  
HETATM    2  N   UNL     1      -9.932   8.853  68.618  1.00  0.00    -0.172 NA 
HETATM    3  C   UNL     1      -8.707   8.871  67.984  1.00  0.00    -0.133 A  
HETATM    4  C   UNL     1     -10.555  10.060  68.379  1.00  0.00    -0.220 A  
HETATM    5  N   UNL     1      -8.538  10.009  67.338  1.00  0.00    -0.125 NA 
HETATM    6  C   UNL     1     -11.779  10.615  68.764  1.00  0.00    -0.259 A  
HETATM    7  C   UNL     1      -9.659  10.755  67.585  1.00  0.00    -0.158 A  
HETATM    8  C   UNL     1     -12.069  11.916  68.304  1.00  0.00    -0.061 A  
HETATM    9  C   UNL     1      -9.974  12.050  67.152  1.00  0.00    -0.208 A  
HETATM   10  C   UNL     1     -11.199  12.658  67.486  1.00  0.00    -0.288 A  
ENDROOT
BRANCH   3  11
HETATM   11  C   UNL     1      -7.663   7.797  68.010  1.00  0.00    -0.126 C  
BRANCH  11  12
HETATM   12  C   UNL     1      -6.445   8.276  68.811  1.00  0.00    -0.053 C  
BRANCH  12  13
HETATM   13  C   UNL     1      -6.522   7.893  70.283  1.00  0.00    -0.037 C  
HETATM   14  O   UNL     1      -6.430  10.128  71.153  1.00  0.00    -0.324 OA 
HETATM   15  O   UNL     1      -8.212   8.861  71.706  1.00  0.00    -0.318 OA 
HETATM   16  C   UNL     1      -7.154   8.990  71.108  1.00  0.00    -0.098 C  
ENDBRANCH  12  13
ENDBRANCH  11  12
ENDBRANCH   3  11
BRANCH  10  17
HETATM   17  N   UNL     1     -11.523  13.922  67.001  1.00  0.00    -0.329 NA 
BRANCH  17  18
HETATM   18  C   UNL     1     -12.524  14.143  65.942  1.00  0.00    -0.453 C  
HETATM   19 CL   UNL     1     -10.988  12.830  64.060  1.00  0.00    -0.420 Cl 
HETATM   20  C   UNL     1     -11.913  14.278  64.542  1.00  0.00    -0.462 C  
ENDBRANCH  17  18
BRANCH  17  21
HETATM   21  C   UNL     1     -10.744  15.101  67.435  1.00  0.00    -0.286 C  
HETATM   22 CL   UNL     1     -11.813  15.120  69.977  1.00  0.00    -0.331 Cl 
HETATM   23  C   UNL     1     -11.484  15.984  68.449  1.00  0.00    -0.331 C  
ENDBRANCH  17  21
ENDBRANCH  10  17
TORSDOF 6
ENDMDL
MODEL      155
REMARK 921   NORMALIZED FREE ENERGY PREDICTED BY IDOCK:   -4.04 KCAL/MOL
REMARK 922        TOTAL FREE ENERGY PREDICTED BY IDOCK:   -6.23 KCAL/MOL
REMARK 923 INTER-LIGAND FREE ENERGY PREDICTED BY IDOCK:   -5.48 KCAL/MOL
REMARK 924 INTRA-LIGAND FREE ENERGY PREDICTED BY IDOCK:   -0.75 KCAL/MOL
REMARK 927      BINDING AFFINITY PREDICTED BY RF-SCORE:    0.00 PKD
ROOT
HETATM    1  C   UNL     1      -7.237   9.181  70.008  1.00  0.00    -0.066 C  
HETATM    2  N   UNL     1      -8.588   9.580  69.678  1.00  0.00    -0.165 NA 
HETATM    3  C   UNL     1      -9.774   9.049  70.141  1.00  0.00    -0.188 A  
HETATM    4  C   UNL     1      -8.889  10.594  68.793  1.00  0.00    -0.161 A  
HETATM    5  N   UNL     1     -10.802   9.690  69.618  1.00  0.00    -0.238 NA 
HETATM    6  C   UNL     1      -8.121  11.465  68.016  1.00  0.00    -0.134 A  
HETATM    7  C   UNL     1     -10.273  10.632  68.777  1.00  0.00    -0.190 A  
HETATM    8  C   UNL     1      -8.815  12.394  67.214  1.00  0.00    -0.192 A  
HETATM    9  C   UNL     1     -10.932  11.560  67.961  1.00  0.00    -0.284 A  
HETATM   10  C   UNL     1     -10.218  12.481  67.171  1.00  0.00    -0.217 A  
ENDROOT
BRANCH   3  11
HETATM   11  C   UNL     1      -9.939   7.893  71.080  1.00  0.00    -0.200 C  
BRANCH  11  12
HETATM   12  C   UNL     1     -10.078   8.408  72.518  1.00  0.00    -0.362 C  
BRANCH  12  13
HETATM   13  C   UNL     1      -8.871   8.070  73.384  1.00  0.00    -0.334 C  
HETATM   14  O   UNL     1      -9.213   5.695  73.414  1.00  0.00    -0.135 OA 
HETATM   15  O   UNL     1      -7.243   6.460  72.626  1.00  0.00    -0.081 OA 
HETATM   16  C   UNL     1      -8.352   6.682  73.090  1.00  0.00    -0.116 C  
ENDBRANCH  12  13
ENDBRANCH  11  12
ENDBRANCH   3  11
BRANCH  10  17
HETATM   17  N   UNL     1     -10.885  13.437  66.410  1.00  0.00    -0.288 NA 
BRANCH  17  18
HETATM   18  C   UNL     1     -12.115  14.110  66.865  1.00  0.00    -0.432 C  
HETATM   19 CL   UNL     1     -10.770  16.467  67.373  1.00  0.00    -0.296 Cl 
HETATM   20  C   UNL     1     -11.867  15.177  67.937  1.00  0.00    -0.170 C  
ENDBRANCH  17  18
BRANCH  17  21
HETATM   21  C   UNL     1     -10.458  13.703  65.019  1.00  0.00    -0.391 C  
HETATM   22 CL   UNL     1     -12.161  11.830  63.925  1.00  0.00    -0.451 Cl 
HETATM   23  C   UNL     1     -10.502  12.463  64.117  1.00  0.00    -0.389 C  
ENDBRANCH  17  21
ENDBRANCH  10  17
TORSDOF 6
ENDMDL
MODEL      156
REMARK 921   NORMALIZED FREE ENERGY PREDICTED BY IDOCK:   -4.04 KCAL/MOL
REMARK 922        TOTAL FREE ENERGY PREDICTED BY IDOCK:   -6.23 KCAL/MOL
REMARK 923 INTER-LIGAND FREE ENERGY PREDICTED BY IDOCK:   -5.73 KCAL/MOL
REMARK 924 INTRA-LIGAND FREE ENERGY PREDICTED BY IDOCK:   -0.50 KCAL/MOL
REMARK 927      BINDING AFFINITY PREDICTED BY RF-SCORE:    0.00 PKD
ROOT
HETATM    1  C   UNL     1     -11.889  12.424  67.928  1.00  0.00    -0.308 C  
HETATM    2  N   UNL     1     -11.258  11.150  68.190  1.00  0.00    -0.267 NA 
HETATM    3  C   UNL     1     -11.216  10.443  69.375  1.00  0.00    -0.259 A  
HETATM    4  C   UNL     1     -10.561  10.433  67.240  1.00  0.00    -0.267 A  
HETATM    5  N   UNL     1     -10.556   9.312  69.215  1.00  0.00    -0.224 NA 
HETATM    6  C   UNL     1     -10.257  10.647  65.893  1.00  0.00    -0.314 A  
HETATM    7  C   UNL     1     -10.135   9.300  67.912  1.00  0.00    -0.200 A  
HETATM    8  C   UNL     1      -9.499   9.653  65.240  1.00  0.00    -0.342 A  
HETATM    9  C   UNL     1      -9.375   8.336  67.236  1.00  0.00    -0.181 A  
HETATM   10  C   UNL     1      -9.053   8.479  65.873  1.00  0.00    -0.183 A  
ENDROOT
BRANCH   3  11
HETATM   11  C   UNL     1     -11.793  10.860  70.694  1.00  0.00    -0.453 C  
BRANCH  11  12
HETATM   12  C   UNL     1     -13.155  10.185  70.901  1.00  0.00    -0.412 C  
BRANCH  12  13
HETATM   13  C   UNL     1     -13.213   9.356  72.177  1.00  0.00    -0.541 C  
HETATM   14  O   UNL     1     -12.595   7.265  71.175  1.00  0.00    -0.351 OA 
HETATM   15  O   UNL     1     -11.312   8.039  72.861  1.00  0.00    -0.408 OA 
HETATM   16  C   UNL     1     -12.271   8.178  72.115  1.00  0.00    -0.350 C  
ENDBRANCH  12  13
ENDBRANCH  11  12
ENDBRANCH   3  11
BRANCH  10  17
HETATM   17  N   UNL     1      -8.347   7.487  65.199  1.00  0.00    -0.120 NA 
BRANCH  17  18
HETATM   18  C   UNL     1      -7.876   6.252  65.853  1.00  0.00    -0.104 C  
HETATM   19 CL   UNL     1      -9.383   4.657  64.177  1.00  0.00    -0.079 Cl 
HETATM   20  C   UNL     1      -8.908   5.119  65.835  1.00  0.00    -0.142 C  
ENDBRANCH  17  18
BRANCH  17  21
HETATM   21  C   UNL     1      -7.903   7.713  63.807  1.00  0.00    -0.117 C  
HETATM   22 CL   UNL     1      -5.220   7.610  64.437  1.00  0.00    -0.029 Cl 
HETATM   23  C   UNL     1      -6.587   8.496  63.705  1.00  0.00    -0.084 C  
ENDBRANCH  17  21
ENDBRANCH  10  17
TORSDOF 6
ENDMDL
MODEL      157
REMARK 921   NORMALIZED FREE ENERGY PREDICTED BY IDOCK:   -4.03 KCAL/MOL
REMARK 922        TOTAL FREE ENERGY PREDICTED BY IDOCK:   -6.23 KCAL/MOL
REMARK 923 INTER-LIGAND FREE ENERGY PREDICTED BY IDOCK:   -5.51 KCAL/MOL
REMARK 924 INTRA-LIGAND FREE ENERGY PREDICTED BY IDOCK:   -0.71 KCAL/MOL
REMARK 927      BINDING AFFINITY PREDICTED BY RF-SCORE:    0.00 PKD
ROOT
HETATM    1  C   UNL     1     -11.821  10.889  70.931  1.00  0.00    -0.258 C  
HETATM    2  N   UNL     1     -11.402  10.620  69.574  1.00  0.00    -0.256 NA 
HETATM    3  C   UNL     1     -11.395  11.479  68.494  1.00  0.00    -0.277 A  
HETATM    4  C   UNL     1     -10.940   9.393  69.147  1.00  0.00    -0.090 A  
HETATM    5  N   UNL     1     -10.928  10.868  67.421  1.00  0.00    -0.278 NA 
HETATM    6  C   UNL     1     -10.742   8.159  69.772  1.00  0.00    -0.229 A  
HETATM    7  C   UNL     1     -10.660   9.582  67.805  1.00  0.00    -0.261 A  
HETATM    8  C   UNL     1     -10.238   7.108  68.978  1.00  0.00    -0.191 A  
HETATM    9  C   UNL     1     -10.168   8.515  67.041  1.00  0.00    -0.371 A  
HETATM   10  C   UNL     1      -9.925   7.252  67.614  1.00  0.00    -0.162 A  
ENDROOT
BRANCH   3  11
HETATM   11  C   UNL     1     -11.862  12.902  68.471  1.00  0.00    -0.350 C  
BRANCH  11  12
HETATM   12  C   UNL     1     -11.924  13.405  67.023  1.00  0.00    -0.429 C  
BRANCH  12  13
HETATM   13  C   UNL     1     -11.579  14.883  66.898  1.00  0.00    -0.286 C  
HETATM   14  O   UNL     1      -9.355  14.575  66.051  1.00  0.00    -0.259 OA 
HETATM   15  O   UNL     1     -10.795  15.777  64.799  1.00  0.00    -0.465 OA 
HETATM   16  C   UNL     1     -10.563  15.124  65.806  1.00  0.00    -0.351 C  
ENDBRANCH  12  13
ENDBRANCH  11  12
ENDBRANCH   3  11
BRANCH  10  17
HETATM   17  N   UNL     1      -9.382   6.217  66.858  1.00  0.00    -0.131 NA 
BRANCH  17  18
HETATM   18  C   UNL     1     -10.165   5.048  66.417  1.00  0.00    -0.273 C  
HETATM   19 CL   UNL     1      -9.737   3.724  68.802  1.00  0.00    -0.167 Cl 
HETATM   20  C   UNL     1      -9.677   3.725  67.018  1.00  0.00    -0.109 C  
ENDBRANCH  17  18
BRANCH  17  21
HETATM   21  C   UNL     1      -7.928   6.181  66.595  1.00  0.00    -0.105 C  
HETATM   22 CL   UNL     1      -8.090   7.784  64.357  1.00  0.00    -0.124 Cl 
HETATM   23  C   UNL     1      -7.574   6.246  65.103  1.00  0.00    -0.092 C  
ENDBRANCH  17  21
ENDBRANCH  10  17
TORSDOF 6
ENDMDL
MODEL      158
REMARK 921   NORMALIZED FREE ENERGY PREDICTED BY IDOCK:   -4.02 KCAL/MOL
REMARK 922        TOTAL FREE ENERGY PREDICTED BY IDOCK:   -6.20 KCAL/MOL
REMARK 923 INTER-LIGAND FREE ENERGY PREDICTED BY IDOCK:   -5.90 KCAL/MOL
REMARK 924 INTRA-LIGAND FREE ENERGY PREDICTED BY IDOCK:   -0.30 KCAL/MOL
REMARK 927      BINDING AFFINITY PREDICTED BY RF-SCORE:    0.00 PKD
ROOT
HETATM    1  C   UNL     1      -7.041  13.321  69.152  1.00  0.00     0.005 C  
HETATM    2  N   UNL     1      -7.704  14.072  68.109  1.00  0.00    -0.129 NA 
HETATM    3  C   UNL     1      -8.494  13.596  67.082  1.00  0.00    -0.174 A  
HETATM    4  C   UNL     1      -7.621  15.443  67.984  1.00  0.00    -0.127 A  
HETATM    5  N   UNL     1      -8.932  14.593  66.337  1.00  0.00    -0.212 NA 
HETATM    6  C   UNL     1      -6.966  16.445  68.705  1.00  0.00    -0.172 A  
HETATM    7  C   UNL     1      -8.391  15.732  66.871  1.00  0.00    -0.248 A  
HETATM    8  C   UNL     1      -7.128  17.772  68.254  1.00  0.00    -0.230 A  
HETATM    9  C   UNL     1      -8.523  17.059  66.443  1.00  0.00    -0.318 A  
HETATM   10  C   UNL     1      -7.908  18.119  67.138  1.00  0.00    -0.218 A  
ENDROOT
BRANCH   3  11
HETATM   11  C   UNL     1      -8.820  12.164  66.785  1.00  0.00    -0.198 C  
BRANCH  11  12
HETATM   12  C   UNL     1     -10.033  11.726  67.616  1.00  0.00    -0.204 C  
BRANCH  12  13
HETATM   13  C   UNL     1     -11.351  12.233  67.045  1.00  0.00    -0.395 C  
HETATM   14  O   UNL     1     -12.154  13.246  69.067  1.00  0.00    -0.307 OA 
HETATM   15  O   UNL     1     -11.950  14.560  67.246  1.00  0.00    -0.405 OA 
HETATM   16  C   UNL     1     -11.833  13.464  67.774  1.00  0.00    -0.358 C  
ENDBRANCH  12  13
ENDBRANCH  11  12
ENDBRANCH   3  11
BRANCH  10  17
HETATM   17  N   UNL     1      -8.095  19.439  66.736  1.00  0.00    -0.272 NA 
BRANCH  17  18
HETATM   18  C   UNL     1      -9.411  19.983  66.357  1.00  0.00    -0.403 C  
HETATM   19 CL   UNL     1     -10.279  20.016  68.978  1.00  0.00    -0.425 Cl 
HETATM   20  C   UNL     1     -10.549  19.534  67.280  1.00  0.00    -0.490 C  
ENDBRANCH  17  18
BRANCH  17  21
HETATM   21  C   UNL     1      -6.926  20.318  66.524  1.00  0.00    -0.247 C  
HETATM   22 CL   UNL     1      -6.022  18.921  64.325  1.00  0.00    -0.212 Cl 
HETATM   23  C   UNL     1      -5.705  19.586  65.952  1.00  0.00    -0.163 C  
ENDBRANCH  17  21
ENDBRANCH  10  17
TORSDOF 6
ENDMDL
MODEL      159
REMARK 921   NORMALIZED FREE ENERGY PREDICTED BY IDOCK:   -4.01 KCAL/MOL
REMARK 922        TOTAL FREE ENERGY PREDICTED BY IDOCK:   -6.19 KCAL/MOL
REMARK 923 INTER-LIGAND FREE ENERGY PREDICTED BY IDOCK:   -5.13 KCAL/MOL
REMARK 924 INTRA-LIGAND FREE ENERGY PREDICTED BY IDOCK:   -1.07 KCAL/MOL
REMARK 927      BINDING AFFINITY PREDICTED BY RF-SCORE:    0.00 PKD
ROOT
HETATM    1  C   UNL     1     -10.661   7.117  73.223  1.00  0.00    -0.361 C  
HETATM    2  N   UNL     1     -10.940   6.878  71.825  1.00  0.00    -0.226 NA 
HETATM    3  C   UNL     1     -12.164   6.853  71.188  1.00  0.00    -0.379 A  
HETATM    4  C   UNL     1      -9.965   6.613  70.887  1.00  0.00    -0.187 A  
HETATM    5  N   UNL     1     -12.009   6.614  69.899  1.00  0.00    -0.204 NA 
HETATM    6  C   UNL     1      -8.573   6.495  70.940  1.00  0.00    -0.135 A  
HETATM    7  C   UNL     1     -10.664   6.450  69.704  1.00  0.00    -0.282 A  
HETATM    8  C   UNL     1      -7.905   6.208  69.731  1.00  0.00    -0.106 A  
HETATM    9  C   UNL     1      -9.971   6.155  68.522  1.00  0.00    -0.173 A  
HETATM   10  C   UNL     1      -8.568   6.046  68.502  1.00  0.00    -0.111 A  
ENDROOT
BRANCH   3  11
HETATM   11  C   UNL     1     -13.512   7.035  71.817  1.00  0.00    -0.307 C  
BRANCH  11  12
HETATM   12  C   UNL     1     -14.029   8.451  71.536  1.00  0.00    -0.407 C  
BRANCH  12  13
HETATM   13  C   UNL     1     -13.270   9.519  72.314  1.00  0.00    -0.507 C  
HETATM   14  O   UNL     1     -11.757  10.120  70.550  1.00  0.00    -0.277 OA 
HETATM   15  O   UNL     1     -13.050  11.749  71.421  1.00  0.00    -0.364 OA 
HETATM   16  C   UNL     1     -12.706  10.577  71.395  1.00  0.00    -0.442 C  
ENDBRANCH  12  13
ENDBRANCH  11  12
ENDBRANCH   3  11
BRANCH  10  17
HETATM   17  N   UNL     1      -7.887   5.810  67.310  1.00  0.00    -0.101 NA 
BRANCH  17  18
HETATM   18  C   UNL     1      -8.103   6.611  66.091  1.00  0.00    -0.118 C  
HETATM   19 CL   UNL     1      -6.160   8.436  66.812  1.00  0.00    -0.053 Cl 
HETATM   20  C   UNL     1      -7.834   8.107  66.288  1.00  0.00    -0.095 C  
ENDBRANCH  17  18
BRANCH  17  21
HETATM   21  C   UNL     1      -7.017   4.623  67.180  1.00  0.00    -0.060 C  
HETATM   22 CL   UNL     1      -9.039   2.995  66.248  1.00  0.00    -0.154 Cl 
HETATM   23  C   UNL     1      -7.745   3.298  67.441  1.00  0.00    -0.077 C  
ENDBRANCH  17  21
ENDBRANCH  10  17
TORSDOF 6
ENDMDL
MODEL      160
REMARK 921   NORMALIZED FREE ENERGY PREDICTED BY IDOCK:   -4.00 KCAL/MOL
REMARK 922        TOTAL FREE ENERGY PREDICTED BY IDOCK:   -6.18 KCAL/MOL
REMARK 923 INTER-LIGAND FREE ENERGY PREDICTED BY IDOCK:   -5.57 KCAL/MOL
REMARK 924 INTRA-LIGAND FREE ENERGY PREDICTED BY IDOCK:   -0.61 KCAL/MOL
REMARK 927      BINDING AFFINITY PREDICTED BY RF-SCORE:    0.00 PKD
ROOT
HETATM    1  C   UNL     1     -12.005  14.535  66.783  1.00  0.00    -0.342 C  
HETATM    2  N   UNL     1     -10.878  13.795  67.305  1.00  0.00    -0.283 NA 
HETATM    3  C   UNL     1      -9.537  14.105  67.219  1.00  0.00    -0.234 A  
HETATM    4  C   UNL     1     -10.999  12.603  67.988  1.00  0.00    -0.235 A  
HETATM    5  N   UNL     1      -8.811  13.189  67.832  1.00  0.00    -0.186 NA 
HETATM    6  C   UNL     1     -12.082  11.803  68.361  1.00  0.00    -0.098 A  
HETATM    7  C   UNL     1      -9.695  12.253  68.296  1.00  0.00    -0.219 A  
HETATM    8  C   UNL     1     -11.794  10.620  69.073  1.00  0.00    -0.256 A  
HETATM    9  C   UNL     1      -9.442  11.066  68.996  1.00  0.00    -0.123 A  
HETATM   10  C   UNL     1     -10.489  10.227  69.421  1.00  0.00    -0.236 A  
ENDROOT
BRANCH   3  11
HETATM   11  C   UNL     1      -8.926  15.281  66.520  1.00  0.00    -0.340 C  
BRANCH  11  12
HETATM   12  C   UNL     1      -8.469  16.319  67.553  1.00  0.00    -0.183 C  
BRANCH  12  13
HETATM   13  C   UNL     1      -8.616  17.751  67.053  1.00  0.00    -0.248 C  
HETATM   14  O   UNL     1      -9.946  18.545  68.886  1.00  0.00    -0.384 OA 
HETATM   15  O   UNL     1      -7.998  19.603  68.468  1.00  0.00    -0.338 OA 
HETATM   16  C   UNL     1      -8.798  18.720  68.197  1.00  0.00    -0.306 C  
ENDBRANCH  12  13
ENDBRANCH  11  12
ENDBRANCH   3  11
BRANCH  10  17
HETATM   17  N   UNL     1     -10.227   9.081  70.167  1.00  0.00    -0.188 NA 
BRANCH  17  18
HETATM   18  C   UNL     1     -10.564   7.724  69.699  1.00  0.00    -0.242 C  
HETATM   19 CL   UNL     1     -12.871   7.653  71.213  1.00  0.00    -0.325 Cl 
HETATM   20  C   UNL     1     -11.329   6.893  70.734  1.00  0.00    -0.310 C  
ENDBRANCH  17  18
BRANCH  17  21
HETATM   21  C   UNL     1      -9.730   9.201  71.554  1.00  0.00    -0.243 C  
HETATM   22 CL   UNL     1      -7.073   9.184  70.816  1.00  0.00    -0.091 Cl 
HETATM   23  C   UNL     1      -8.395   8.482  71.790  1.00  0.00    -0.163 C  
ENDBRANCH  17  21
ENDBRANCH  10  17
TORSDOF 6
ENDMDL
MODEL      161
REMARK 921   NORMALIZED FREE ENERGY PREDICTED BY IDOCK:   -3.98 KCAL/MOL
REMARK 922        TOTAL FREE ENERGY PREDICTED BY IDOCK:   -6.16 KCAL/MOL
REMARK 923 INTER-LIGAND FREE ENERGY PREDICTED BY IDOCK:   -5.42 KCAL/MOL
REMARK 924 INTRA-LIGAND FREE ENERGY PREDICTED BY IDOCK:   -0.74 KCAL/MOL
REMARK 927      BINDING AFFINITY PREDICTED BY RF-SCORE:    0.00 PKD
ROOT
HETATM    1  C   UNL     1      -8.770  12.027  68.053  1.00  0.00    -0.175 C  
HETATM    2  N   UNL     1      -9.131  10.957  67.151  1.00  0.00    -0.144 NA 
HETATM    3  C   UNL     1      -9.768  11.045  65.929  1.00  0.00    -0.224 A  
HETATM    4  C   UNL     1      -8.888   9.625  67.410  1.00  0.00    -0.128 A  
HETATM    5  N   UNL     1      -9.912   9.847  65.396  1.00  0.00    -0.316 NA 
HETATM    6  C   UNL     1      -8.298   8.935  68.474  1.00  0.00    -0.125 A  
HETATM    7  C   UNL     1      -9.390   8.964  66.303  1.00  0.00    -0.219 A  
HETATM    8  C   UNL     1      -8.229   7.530  68.369  1.00  0.00    -0.125 A  
HETATM    9  C   UNL     1      -9.314   7.566  66.235  1.00  0.00    -0.176 A  
HETATM   10  C   UNL     1      -8.713   6.813  67.261  1.00  0.00    -0.119 A  
ENDROOT
BRANCH   3  11
HETATM   11  C   UNL     1     -10.272  12.289  65.263  1.00  0.00    -0.305 C  
BRANCH  11  12
HETATM   12  C   UNL     1     -11.256  11.917  64.147  1.00  0.00    -0.446 C  
BRANCH  12  13
HETATM   13  C   UNL     1     -11.864  13.138  63.468  1.00  0.00    -0.539 C  
HETATM   14  O   UNL     1     -13.212  13.843  65.324  1.00  0.00    -0.774 OA 
HETATM   15  O   UNL     1     -11.709  15.311  64.504  1.00  0.00    -0.402 OA 
HETATM   16  C   UNL     1     -12.230  14.205  64.472  1.00  0.00    -0.445 C  
ENDBRANCH  12  13
ENDBRANCH  11  12
ENDBRANCH   3  11
BRANCH  10  17
HETATM   17  N   UNL     1      -8.592   5.430  67.154  1.00  0.00    -0.109 NA 
BRANCH  17  18
HETATM   18  C   UNL     1      -9.751   4.519  67.175  1.00  0.00    -0.197 C  
HETATM   19 CL   UNL     1      -9.786   4.447  69.934  1.00  0.00    -0.291 Cl 
HETATM   20  C   UNL     1      -9.761   3.571  68.379  1.00  0.00     0.020 C  
ENDBRANCH  17  18
BRANCH  17  21
HETATM   21  C   UNL     1      -7.254   4.802  67.170  1.00  0.00    -0.077 C  
HETATM   22 CL   UNL     1      -6.822   5.183  64.473  1.00  0.00    -0.047 Cl 
HETATM   23  C   UNL     1      -6.905   4.071  65.867  1.00  0.00    -0.054 C  
ENDBRANCH  17  21
ENDBRANCH  10  17
TORSDOF 6
ENDMDL
MODEL      162
REMARK 921   NORMALIZED FREE ENERGY PREDICTED BY IDOCK:   -3.98 KCAL/MOL
REMARK 922        TOTAL FREE ENERGY PREDICTED BY IDOCK:   -6.15 KCAL/MOL
REMARK 923 INTER-LIGAND FREE ENERGY PREDICTED BY IDOCK:   -5.58 KCAL/MOL
REMARK 924 INTRA-LIGAND FREE ENERGY PREDICTED BY IDOCK:   -0.57 KCAL/MOL
REMARK 927      BINDING AFFINITY PREDICTED BY RF-SCORE:    0.00 PKD
ROOT
HETATM    1  C   UNL     1     -11.467  12.062  68.298  1.00  0.00    -0.303 C  
HETATM    2  N   UNL     1     -11.435  11.217  69.471  1.00  0.00    -0.274 NA 
HETATM    3  C   UNL     1     -12.239  11.277  70.591  1.00  0.00    -0.393 A  
HETATM    4  C   UNL     1     -10.535  10.186  69.645  1.00  0.00    -0.252 A  
HETATM    5  N   UNL     1     -11.912  10.325  71.445  1.00  0.00    -0.359 NA 
HETATM    6  C   UNL     1      -9.491   9.668  68.873  1.00  0.00    -0.157 A  
HETATM    7  C   UNL     1     -10.857   9.657  70.883  1.00  0.00    -0.339 A  
HETATM    8  C   UNL     1      -8.778   8.575  69.407  1.00  0.00    -0.136 A  
HETATM    9  C   UNL     1     -10.123   8.577  71.389  1.00  0.00    -0.302 A  
HETATM   10  C   UNL     1      -9.074   7.994  70.653  1.00  0.00    -0.153 A  
ENDROOT
BRANCH   3  11
HETATM   11  C   UNL     1     -13.324  12.271  70.870  1.00  0.00     0.506 C  
BRANCH  11  12
HETATM   12  C   UNL     1     -13.125  12.878  72.265  1.00  0.00    -0.421 C  
BRANCH  12  13
HETATM   13  C   UNL     1     -13.673  14.296  72.374  1.00  0.00    -0.616 C  
HETATM   14  O   UNL     1     -12.215  15.020  74.136  1.00  0.00    -0.595 OA 
HETATM   15  O   UNL     1     -12.190  16.190  72.209  1.00  0.00    -0.472 OA 
HETATM   16  C   UNL     1     -12.622  15.259  72.872  1.00  0.00    -0.408 C  
ENDBRANCH  12  13
ENDBRANCH  11  12
ENDBRANCH   3  11
BRANCH  10  17
HETATM   17  N   UNL     1      -8.390   6.884  71.142  1.00  0.00    -0.119 NA 
BRANCH  17  18
HETATM   18  C   UNL     1      -6.994   6.578  70.782  1.00  0.00    -0.068 C  
HETATM   19 CL   UNL     1      -6.071   7.329  73.274  1.00  0.00    -0.056 Cl 
HETATM   20  C   UNL     1      -5.970   7.468  71.498  1.00  0.00    -0.036 C  
ENDBRANCH  17  18
BRANCH  17  21
HETATM   21  C   UNL     1      -9.110   5.865  71.936  1.00  0.00    -0.138 C  
HETATM   22 CL   UNL     1      -9.617   4.242  69.765  1.00  0.00    -0.265 Cl 
HETATM   23  C   UNL     1     -10.235   5.168  71.161  1.00  0.00    -0.221 C  
ENDBRANCH  17  21
ENDBRANCH  10  17
TORSDOF 6
ENDMDL
MODEL      163
REMARK 921   NORMALIZED FREE ENERGY PREDICTED BY IDOCK:   -3.97 KCAL/MOL
REMARK 922        TOTAL FREE ENERGY PREDICTED BY IDOCK:   -6.14 KCAL/MOL
REMARK 923 INTER-LIGAND FREE ENERGY PREDICTED BY IDOCK:   -5.37 KCAL/MOL
REMARK 924 INTRA-LIGAND FREE ENERGY PREDICTED BY IDOCK:   -0.77 KCAL/MOL
REMARK 927      BINDING AFFINITY PREDICTED BY RF-SCORE:    0.00 PKD
ROOT
HETATM    1  C   UNL     1     -12.399   9.716  71.597  1.00  0.00    -0.404 C  
HETATM    2  N   UNL     1     -11.616  10.234  70.497  1.00  0.00    -0.314 NA 
HETATM    3  C   UNL     1     -11.536  11.533  70.040  1.00  0.00    -0.282 A  
HETATM    4  C   UNL     1     -10.807   9.450  69.701  1.00  0.00    -0.228 A  
HETATM    5  N   UNL     1     -10.702  11.614  69.020  1.00  0.00    -0.202 NA 
HETATM    6  C   UNL     1     -10.502   8.087  69.672  1.00  0.00    -0.224 A  
HETATM    7  C   UNL     1     -10.259  10.339  68.792  1.00  0.00    -0.192 A  
HETATM    8  C   UNL     1      -9.602   7.650  68.676  1.00  0.00    -0.152 A  
HETATM    9  C   UNL     1      -9.376   9.871  67.809  1.00  0.00    -0.154 A  
HETATM   10  C   UNL     1      -9.009   8.514  67.739  1.00  0.00    -0.136 A  
ENDROOT
BRANCH   3  11
HETATM   11  C   UNL     1     -12.284  12.721  70.564  1.00  0.00    -0.389 C  
BRANCH  11  12
HETATM   12  C   UNL     1     -12.384  13.794  69.473  1.00  0.00    -0.258 C  
BRANCH  12  13
HETATM   13  C   UNL     1     -11.906  15.161  69.946  1.00  0.00    -0.363 C  
HETATM   14  O   UNL     1     -13.918  15.771  71.103  1.00  0.00    -0.508 OA 
HETATM   15  O   UNL     1     -11.998  15.740  72.286  1.00  0.00    -0.399 OA 
HETATM   16  C   UNL     1     -12.589  15.573  71.229  1.00  0.00    -0.447 C  
ENDBRANCH  12  13
ENDBRANCH  11  12
ENDBRANCH   3  11
BRANCH  10  17
HETATM   17  N   UNL     1      -8.086   8.073  66.794  1.00  0.00    -0.106 NA 
BRANCH  17  18
HETATM   18  C   UNL     1      -6.635   8.033  67.048  1.00  0.00    -0.057 C  
HETATM   19 CL   UNL     1      -6.356  10.729  66.522  1.00  0.00    -0.104 Cl 
HETATM   20  C   UNL     1      -5.841   9.047  66.217  1.00  0.00    -0.058 C  
ENDBRANCH  17  18
BRANCH  17  21
HETATM   21  C   UNL     1      -8.528   7.767  65.417  1.00  0.00    -0.110 C  
HETATM   22 CL   UNL     1      -9.196   5.155  65.999  1.00  0.00    -0.151 Cl 
HETATM   23  C   UNL     1      -8.271   6.312  65.001  1.00  0.00    -0.132 C  
ENDBRANCH  17  21
ENDBRANCH  10  17
TORSDOF 6
ENDMDL
MODEL      164
REMARK 921   NORMALIZED FREE ENERGY PREDICTED BY IDOCK:   -3.96 KCAL/MOL
REMARK 922        TOTAL FREE ENERGY PREDICTED BY IDOCK:   -6.13 KCAL/MOL
REMARK 923 INTER-LIGAND FREE ENERGY PREDICTED BY IDOCK:   -6.09 KCAL/MOL
REMARK 924 INTRA-LIGAND FREE ENERGY PREDICTED BY IDOCK:   -0.04 KCAL/MOL
REMARK 927      BINDING AFFINITY PREDICTED BY RF-SCORE:    0.00 PKD
ROOT
HETATM    1  C   UNL     1     -11.876  12.918  69.513  1.00  0.00    -0.320 C  
HETATM    2  N   UNL     1     -10.944  12.130  68.738  1.00  0.00    -0.224 NA 
HETATM    3  C   UNL     1     -10.400  12.417  67.503  1.00  0.00    -0.215 A  
HETATM    4  C   UNL     1     -10.456  10.906  69.147  1.00  0.00    -0.221 A  
HETATM    5  N   UNL     1      -9.577  11.456  67.126  1.00  0.00    -0.178 NA 
HETATM    6  C   UNL     1     -10.655  10.110  70.277  1.00  0.00    -0.324 A  
HETATM    7  C   UNL     1      -9.614  10.515  68.120  1.00  0.00    -0.154 A  
HETATM    8  C   UNL     1      -9.956   8.886  70.334  1.00  0.00    -0.230 A  
HETATM    9  C   UNL     1      -8.941   9.289  68.202  1.00  0.00    -0.128 A  
HETATM   10  C   UNL     1      -9.080   8.450  69.324  1.00  0.00    -0.150 A  
ENDROOT
BRANCH   3  11
HETATM   11  C   UNL     1     -10.683  13.615  66.650  1.00  0.00    -0.280 C  
BRANCH  11  12
HETATM   12  C   UNL     1     -12.080  13.490  66.027  1.00  0.00    -0.489 C  
BRANCH  12  13
HETATM   13  C   UNL     1     -12.068  13.674  64.515  1.00  0.00    -0.459 C  
HETATM   14  O   UNL     1     -11.095  11.545  63.986  1.00  0.00    -0.365 OA 
HETATM   15  O   UNL     1     -13.102  12.034  63.081  1.00  0.00    -0.624 OA 
HETATM   16  C   UNL     1     -12.162  12.350  63.795  1.00  0.00    -0.533 C  
ENDBRANCH  12  13
ENDBRANCH  11  12
ENDBRANCH   3  11
BRANCH  10  17
HETATM   17  N   UNL     1      -8.361   7.261  69.420  1.00  0.00    -0.131 NA 
BRANCH  17  18
HETATM   18  C   UNL     1      -8.694   6.056  68.639  1.00  0.00    -0.110 C  
HETATM   19 CL   UNL     1     -11.264   5.977  69.646  1.00  0.00    -0.478 Cl 
HETATM   20  C   UNL     1      -9.717   5.145  69.327  1.00  0.00    -0.172 C  
ENDBRANCH  17  18
BRANCH  17  21
HETATM   21  C   UNL     1      -7.307   7.117  70.447  1.00  0.00    -0.079 C  
HETATM   22 CL   UNL     1      -9.047   6.228  72.393  1.00  0.00    -0.139 Cl 
HETATM   23  C   UNL     1      -7.801   7.396  71.873  1.00  0.00    -0.090 C  
ENDBRANCH  17  21
ENDBRANCH  10  17
TORSDOF 6
ENDMDL
MODEL      165
REMARK 921   NORMALIZED FREE ENERGY PREDICTED BY IDOCK:   -3.96 KCAL/MOL
REMARK 922        TOTAL FREE ENERGY PREDICTED BY IDOCK:   -6.13 KCAL/MOL
REMARK 923 INTER-LIGAND FREE ENERGY PREDICTED BY IDOCK:   -5.48 KCAL/MOL
REMARK 924 INTRA-LIGAND FREE ENERGY PREDICTED BY IDOCK:   -0.65 KCAL/MOL
REMARK 927      BINDING AFFINITY PREDICTED BY RF-SCORE:    0.00 PKD
ROOT
HETATM    1  C   UNL     1     -12.124  14.364  66.401  1.00  0.00    -0.369 C  
HETATM    2  N   UNL     1     -11.499  13.471  67.351  1.00  0.00    -0.318 NA 
HETATM    3  C   UNL     1     -11.722  13.376  68.710  1.00  0.00    -0.340 A  
HETATM    4  C   UNL     1     -10.530  12.551  67.011  1.00  0.00    -0.231 A  
HETATM    5  N   UNL     1     -10.967  12.430  69.236  1.00  0.00    -0.147 NA 
HETATM    6  C   UNL     1      -9.898  12.204  65.814  1.00  0.00    -0.264 A  
HETATM    7  C   UNL     1     -10.219  11.925  68.206  1.00  0.00    -0.204 A  
HETATM    8  C   UNL     1      -8.930  11.180  65.871  1.00  0.00    -0.210 A  
HETATM    9  C   UNL     1      -9.245  10.918  68.230  1.00  0.00    -0.161 A  
HETATM   10  C   UNL     1      -8.587  10.505  67.056  1.00  0.00    -0.127 A  
ENDROOT
BRANCH   3  11
HETATM   11  C   UNL     1     -12.651  14.215  69.532  1.00  0.00    -0.011 C  
BRANCH  11  12
HETATM   12  C   UNL     1     -12.532  13.824  71.011  1.00  0.00    -0.458 C  
BRANCH  12  13
HETATM   13  C   UNL     1     -11.833  14.889  71.847  1.00  0.00    -0.416 C  
HETATM   14  O   UNL     1     -13.822  15.870  72.762  1.00  0.00    -0.584 OA 
HETATM   15  O   UNL     1     -12.286  15.075  74.208  1.00  0.00    -0.604 OA 
HETATM   16  C   UNL     1     -12.652  15.268  73.058  1.00  0.00    -0.430 C  
ENDBRANCH  12  13
ENDBRANCH  11  12
ENDBRANCH   3  11
BRANCH  10  17
HETATM   17  N   UNL     1      -7.664   9.464  67.084  1.00  0.00    -0.092 NA 
BRANCH  17  18
HETATM   18  C   UNL     1      -6.227   9.658  66.820  1.00  0.00    -0.065 C  
HETATM   19 CL   UNL     1      -5.688  10.147  69.483  1.00  0.00    -0.037 Cl 
HETATM   20  C   UNL     1      -5.558  10.652  67.776  1.00  0.00    -0.043 C  
ENDBRANCH  17  18
BRANCH  17  21
HETATM   21  C   UNL     1      -8.129   8.068  67.232  1.00  0.00    -0.121 C  
HETATM   22 CL   UNL     1      -8.651   8.319  69.929  1.00  0.00    -0.124 Cl 
HETATM   23  C   UNL     1      -7.813   7.461  68.605  1.00  0.00    -0.122 C  
ENDBRANCH  17  21
ENDBRANCH  10  17
TORSDOF 6
ENDMDL
MODEL      166
REMARK 921   NORMALIZED FREE ENERGY PREDICTED BY IDOCK:   -3.96 KCAL/MOL
REMARK 922        TOTAL FREE ENERGY PREDICTED BY IDOCK:   -6.12 KCAL/MOL
REMARK 923 INTER-LIGAND FREE ENERGY PREDICTED BY IDOCK:   -5.54 KCAL/MOL
REMARK 924 INTRA-LIGAND FREE ENERGY PREDICTED BY IDOCK:   -0.59 KCAL/MOL
REMARK 927      BINDING AFFINITY PREDICTED BY RF-SCORE:    0.00 PKD
ROOT
HETATM    1  C   UNL     1     -10.893   7.102  68.770  1.00  0.00    -0.120 C  
HETATM    2  N   UNL     1     -10.441   7.986  67.719  1.00  0.00    -0.228 NA 
HETATM    3  C   UNL     1      -9.670   7.680  66.616  1.00  0.00    -0.213 A  
HETATM    4  C   UNL     1     -10.724   9.335  67.682  1.00  0.00    -0.209 A  
HETATM    5  N   UNL     1      -9.476   8.755  65.876  1.00  0.00    -0.231 NA 
HETATM    6  C   UNL     1     -11.435  10.201  68.517  1.00  0.00    -0.098 A  
HETATM    7  C   UNL     1     -10.105   9.782  66.527  1.00  0.00    -0.239 A  
HETATM    8  C   UNL     1     -11.504  11.555  68.130  1.00  0.00    -0.385 A  
HETATM    9  C   UNL     1     -10.184  11.136  66.176  1.00  0.00    -0.293 A  
HETATM   10  C   UNL     1     -10.904  12.057  66.962  1.00  0.00    -0.253 A  
ENDROOT
BRANCH   3  11
HETATM   11  C   UNL     1      -9.083   6.346  66.267  1.00  0.00    -0.167 C  
BRANCH  11  12
HETATM   12  C   UNL     1      -8.197   6.478  65.022  1.00  0.00    -0.115 C  
BRANCH  12  13
HETATM   13  C   UNL     1      -8.217   5.228  64.151  1.00  0.00    -0.132 C  
HETATM   14  O   UNL     1      -7.091   3.791  65.708  1.00  0.00    -0.063 OA 
HETATM   15  O   UNL     1      -9.139   3.168  64.999  1.00  0.00    -0.134 OA 
HETATM   16  C   UNL     1      -8.218   3.971  64.988  1.00  0.00    -0.101 C  
ENDBRANCH  12  13
ENDBRANCH  11  12
ENDBRANCH   3  11
BRANCH  10  17
HETATM   17  N   UNL     1     -11.024  13.388  66.571  1.00  0.00    -0.288 NA 
BRANCH  17  18
HETATM   18  C   UNL     1     -12.227  13.926  65.911  1.00  0.00    -0.467 C  
HETATM   19 CL   UNL     1     -11.677  12.581  63.563  1.00  0.00    -0.570 Cl 
HETATM   20  C   UNL     1     -12.063  14.111  64.398  1.00  0.00    -0.463 C  
ENDBRANCH  17  18
BRANCH  17  21
HETATM   21  C   UNL     1      -9.858  14.293  66.669  1.00  0.00    -0.281 C  
HETATM   22 CL   UNL     1     -10.341  14.954  69.302  1.00  0.00    -0.244 Cl 
HETATM   23  C   UNL     1     -10.083  15.479  67.615  1.00  0.00    -0.243 C  
ENDBRANCH  17  21
ENDBRANCH  10  17
TORSDOF 6
ENDMDL
MODEL      167
REMARK 921   NORMALIZED FREE ENERGY PREDICTED BY IDOCK:   -3.96 KCAL/MOL
REMARK 922        TOTAL FREE ENERGY PREDICTED BY IDOCK:   -6.12 KCAL/MOL
REMARK 923 INTER-LIGAND FREE ENERGY PREDICTED BY IDOCK:   -5.86 KCAL/MOL
REMARK 924 INTRA-LIGAND FREE ENERGY PREDICTED BY IDOCK:   -0.26 KCAL/MOL
REMARK 927      BINDING AFFINITY PREDICTED BY RF-SCORE:    0.00 PKD
ROOT
HETATM    1  C   UNL     1      -6.614  12.461  69.017  1.00  0.00    -0.100 C  
HETATM    2  N   UNL     1      -7.553  13.102  68.123  1.00  0.00    -0.128 NA 
HETATM    3  C   UNL     1      -8.606  12.533  67.437  1.00  0.00    -0.187 A  
HETATM    4  C   UNL     1      -7.511  14.444  67.806  1.00  0.00    -0.170 A  
HETATM    5  N   UNL     1      -9.243  13.447  66.729  1.00  0.00    -0.247 NA 
HETATM    6  C   UNL     1      -6.676  15.503  68.174  1.00  0.00    -0.135 A  
HETATM    7  C   UNL     1      -8.572  14.622  66.935  1.00  0.00    -0.204 A  
HETATM    8  C   UNL     1      -6.963  16.769  67.623  1.00  0.00    -0.156 A  
HETATM    9  C   UNL     1      -8.824  15.891  66.398  1.00  0.00    -0.368 A  
HETATM   10  C   UNL     1      -8.035  17.005  66.745  1.00  0.00    -0.239 A  
ENDROOT
BRANCH   3  11
HETATM   11  C   UNL     1      -9.004  11.089  67.431  1.00  0.00    -0.141 C  
BRANCH  11  12
HETATM   12  C   UNL     1      -9.518  10.687  68.819  1.00  0.00    -0.186 C  
BRANCH  12  13
HETATM   13  C   UNL     1     -11.029  10.490  68.852  1.00  0.00    -0.291 C  
HETATM   14  O   UNL     1     -11.046   8.790  70.546  1.00  0.00    -0.241 OA 
HETATM   15  O   UNL     1     -12.235  10.668  70.933  1.00  0.00    -0.327 OA 
HETATM   16  C   UNL     1     -11.496  10.018  70.209  1.00  0.00    -0.300 C  
ENDBRANCH  12  13
ENDBRANCH  11  12
ENDBRANCH   3  11
BRANCH  10  17
HETATM   17  N   UNL     1      -8.332  18.272  66.250  1.00  0.00    -0.433 NA 
BRANCH  17  18
HETATM   18  C   UNL     1      -7.297  19.227  65.816  1.00  0.00    -0.235 C  
HETATM   19 CL   UNL     1      -6.789  20.027  68.409  1.00  0.00    -0.333 Cl 
HETATM   20  C   UNL     1      -7.183  20.458  66.722  1.00  0.00    -0.279 C  
ENDBRANCH  17  18
BRANCH  17  21
HETATM   21  C   UNL     1      -9.723  18.771  66.287  1.00  0.00    -0.330 C  
HETATM   22 CL   UNL     1      -9.804  18.926  69.040  1.00  0.00    -0.417 Cl 
HETATM   23  C   UNL     1     -10.508  18.304  67.521  1.00  0.00    -0.411 C  
ENDBRANCH  17  21
ENDBRANCH  10  17
TORSDOF 6
ENDMDL
MODEL      168
REMARK 921   NORMALIZED FREE ENERGY PREDICTED BY IDOCK:   -3.95 KCAL/MOL
REMARK 922        TOTAL FREE ENERGY PREDICTED BY IDOCK:   -6.11 KCAL/MOL
REMARK 923 INTER-LIGAND FREE ENERGY PREDICTED BY IDOCK:   -5.35 KCAL/MOL
REMARK 924 INTRA-LIGAND FREE ENERGY PREDICTED BY IDOCK:   -0.76 KCAL/MOL
REMARK 927      BINDING AFFINITY PREDICTED BY RF-SCORE:    0.00 PKD
ROOT
HETATM    1  C   UNL     1     -10.743   7.283  66.840  1.00  0.00    -0.276 C  
HETATM    2  N   UNL     1     -10.596   7.879  68.149  1.00  0.00    -0.165 NA 
HETATM    3  C   UNL     1     -10.765   9.199  68.513  1.00  0.00    -0.116 A  
HETATM    4  C   UNL     1     -10.233   7.169  69.274  1.00  0.00    -0.190 A  
HETATM    5  N   UNL     1     -10.554   9.352  69.807  1.00  0.00    -0.221 NA 
HETATM    6  C   UNL     1      -9.921   5.828  69.518  1.00  0.00    -0.250 A  
HETATM    7  C   UNL     1     -10.212   8.115  70.284  1.00  0.00    -0.200 A  
HETATM    8  C   UNL     1      -9.588   5.475  70.842  1.00  0.00    -0.219 A  
HETATM    9  C   UNL     1      -9.867   7.734  71.587  1.00  0.00    -0.201 A  
HETATM   10  C   UNL     1      -9.565   6.396  71.904  1.00  0.00    -0.151 A  
ENDROOT
BRANCH   3  11
HETATM   11  C   UNL     1     -11.109  10.345  67.612  1.00  0.00    -0.361 C  
BRANCH  11  12
HETATM   12  C   UNL     1     -10.997  11.665  68.385  1.00  0.00    -0.265 C  
BRANCH  12  13
HETATM   13  C   UNL     1     -11.880  12.763  67.806  1.00  0.00    -0.387 C  
HETATM   14  O   UNL     1     -10.457  13.313  65.954  1.00  0.00    -0.275 OA 
HETATM   15  O   UNL     1     -12.572  12.678  65.498  1.00  0.00    -0.634 OA 
HETATM   16  C   UNL     1     -11.689  12.898  66.314  1.00  0.00    -0.399 C  
ENDBRANCH  12  13
ENDBRANCH  11  12
ENDBRANCH   3  11
BRANCH  10  17
HETATM   17  N   UNL     1      -9.281   6.020  73.214  1.00  0.00    -0.133 NA 
BRANCH  17  18
HETATM   18  C   UNL     1     -10.326   5.675  74.195  1.00  0.00    -0.281 C  
HETATM   19 CL   UNL     1     -10.401   3.045  73.359  1.00  0.00    -0.213 Cl 
HETATM   20  C   UNL     1     -11.267   4.563  73.719  1.00  0.00    -0.197 C  
ENDBRANCH  17  18
BRANCH  17  21
HETATM   21  C   UNL     1      -7.895   6.105  73.723  1.00  0.00    -0.097 C  
HETATM   22 CL   UNL     1      -7.125   3.706  72.600  1.00  0.00    -0.043 Cl 
HETATM   23  C   UNL     1      -7.279   4.738  74.050  1.00  0.00    -0.078 C  
ENDBRANCH  17  21
ENDBRANCH  10  17
TORSDOF 6
ENDMDL
MODEL      169
REMARK 921   NORMALIZED FREE ENERGY PREDICTED BY IDOCK:   -3.94 KCAL/MOL
REMARK 922        TOTAL FREE ENERGY PREDICTED BY IDOCK:   -6.10 KCAL/MOL
REMARK 923 INTER-LIGAND FREE ENERGY PREDICTED BY IDOCK:   -5.19 KCAL/MOL
REMARK 924 INTRA-LIGAND FREE ENERGY PREDICTED BY IDOCK:   -0.92 KCAL/MOL
REMARK 927      BINDING AFFINITY PREDICTED BY RF-SCORE:    0.00 PKD
ROOT
HETATM    1  C   UNL     1      -7.897  15.620  69.265  1.00  0.00    -0.230 C  
HETATM    2  N   UNL     1      -9.034  14.978  68.644  1.00  0.00    -0.179 NA 
HETATM    3  C   UNL     1     -10.320  15.459  68.508  1.00  0.00    -0.226 A  
HETATM    4  C   UNL     1      -8.987  13.718  68.084  1.00  0.00    -0.190 A  
HETATM    5  N   UNL     1     -11.075  14.584  67.871  1.00  0.00    -0.269 NA 
HETATM    6  C   UNL     1      -7.983  12.757  67.939  1.00  0.00    -0.158 A  
HETATM    7  C   UNL     1     -10.273  13.504  67.618  1.00  0.00    -0.239 A  
HETATM    8  C   UNL     1      -8.332  11.555  67.288  1.00  0.00    -0.154 A  
HETATM    9  C   UNL     1     -10.590  12.295  66.985  1.00  0.00    -0.248 A  
HETATM   10  C   UNL     1      -9.619  11.295  66.786  1.00  0.00    -0.193 A  
ENDROOT
BRANCH   3  11
HETATM   11  C   UNL     1     -10.853  16.764  69.015  1.00  0.00    -0.291 C  
BRANCH  11  12
HETATM   12  C   UNL     1     -10.637  17.857  67.960  1.00  0.00    -0.366 C  
BRANCH  12  13
HETATM   13  C   UNL     1      -9.691  18.954  68.434  1.00  0.00    -0.432 C  
HETATM   14  O   UNL     1      -7.923  18.481  66.883  1.00  0.00    -0.227 OA 
HETATM   15  O   UNL     1      -8.803  20.557  66.866  1.00  0.00    -0.283 OA 
HETATM   16  C   UNL     1      -8.785  19.422  67.320  1.00  0.00    -0.296 C  
ENDBRANCH  12  13
ENDBRANCH  11  12
ENDBRANCH   3  11
BRANCH  10  17
HETATM   17  N   UNL     1      -9.933  10.122  66.104  1.00  0.00    -0.233 NA 
BRANCH  17  18
HETATM   18  C   UNL     1      -9.990  10.040  64.633  1.00  0.00    -0.136 C  
HETATM   19 CL   UNL     1      -7.267   9.624  64.440  1.00  0.00    -0.116 Cl 
HETATM   20  C   UNL     1      -8.716  10.541  63.943  1.00  0.00    -0.171 C  
ENDBRANCH  17  18
BRANCH  17  21
HETATM   21  C   UNL     1     -10.381   8.929  66.854  1.00  0.00    -0.262 C  
HETATM   22 CL   UNL     1      -7.823   8.129  67.502  1.00  0.00    -0.109 Cl 
HETATM   23  C   UNL     1      -9.405   7.749  66.766  1.00  0.00    -0.180 C  
ENDBRANCH  17  21
ENDBRANCH  10  17
TORSDOF 6
ENDMDL
MODEL      170
REMARK 921   NORMALIZED FREE ENERGY PREDICTED BY IDOCK:   -3.93 KCAL/MOL
REMARK 922        TOTAL FREE ENERGY PREDICTED BY IDOCK:   -6.09 KCAL/MOL
REMARK 923 INTER-LIGAND FREE ENERGY PREDICTED BY IDOCK:   -5.25 KCAL/MOL
REMARK 924 INTRA-LIGAND FREE ENERGY PREDICTED BY IDOCK:   -0.83 KCAL/MOL
REMARK 927      BINDING AFFINITY PREDICTED BY RF-SCORE:    0.00 PKD
ROOT
HETATM    1  C   UNL     1     -11.966  13.704  69.858  1.00  0.00    -0.348 C  
HETATM    2  N   UNL     1     -11.080  12.711  69.292  1.00  0.00    -0.181 NA 
HETATM    3  C   UNL     1     -10.186  12.856  68.250  1.00  0.00    -0.245 A  
HETATM    4  C   UNL     1     -11.015  11.406  69.733  1.00  0.00    -0.051 A  
HETATM    5  N   UNL     1      -9.546  11.723  68.031  1.00  0.00    -0.181 NA 
HETATM    6  C   UNL     1     -11.680  10.683  70.728  1.00  0.00    -0.435 A  
HETATM    7  C   UNL     1     -10.056  10.820  68.925  1.00  0.00    -0.205 A  
HETATM    8  C   UNL     1     -11.327   9.326  70.881  1.00  0.00    -0.373 A  
HETATM    9  C   UNL     1      -9.736   9.467  69.097  1.00  0.00    -0.178 A  
HETATM   10  C   UNL     1     -10.351   8.688  70.095  1.00  0.00    -0.207 A  
ENDROOT
BRANCH   3  11
HETATM   11  C   UNL     1      -9.951  14.086  67.428  1.00  0.00    -0.243 C  
BRANCH  11  12
HETATM   12  C   UNL     1      -8.691  14.808  67.924  1.00  0.00    -0.167 C  
BRANCH  12  13
HETATM   13  C   UNL     1      -8.945  15.644  69.172  1.00  0.00    -0.257 C  
HETATM   14  O   UNL     1      -9.574  17.658  68.030  1.00  0.00    -0.272 OA 
HETATM   15  O   UNL     1     -11.057  16.767  69.477  1.00  0.00    -0.240 OA 
HETATM   16  C   UNL     1      -9.971  16.722  68.917  1.00  0.00    -0.271 C  
ENDBRANCH  12  13
ENDBRANCH  11  12
ENDBRANCH   3  11
BRANCH  10  17
HETATM   17  N   UNL     1      -9.982   7.361  70.293  1.00  0.00    -0.187 NA 
BRANCH  17  18
HETATM   18  C   UNL     1      -8.684   6.966  70.870  1.00  0.00    -0.141 C  
HETATM   19 CL   UNL     1      -9.605   7.300  73.452  1.00  0.00    -0.243 Cl 
HETATM   20  C   UNL     1      -8.376   7.652  72.206  1.00  0.00    -0.108 C  
ENDBRANCH  17  18
BRANCH  17  21
HETATM   21  C   UNL     1     -10.838   6.271  69.776  1.00  0.00    -0.336 C  
HETATM   22 CL   UNL     1      -9.544   6.140  67.344  1.00  0.00    -0.117 Cl 
HETATM   23  C   UNL     1     -11.064   6.339  68.260  1.00  0.00    -0.269 C  
ENDBRANCH  17  21
ENDBRANCH  10  17
TORSDOF 6
ENDMDL
MODEL      171
REMARK 921   NORMALIZED FREE ENERGY PREDICTED BY IDOCK:   -3.91 KCAL/MOL
REMARK 922        TOTAL FREE ENERGY PREDICTED BY IDOCK:   -6.06 KCAL/MOL
REMARK 923 INTER-LIGAND FREE ENERGY PREDICTED BY IDOCK:   -5.37 KCAL/MOL
REMARK 924 INTRA-LIGAND FREE ENERGY PREDICTED BY IDOCK:   -0.68 KCAL/MOL
REMARK 927      BINDING AFFINITY PREDICTED BY RF-SCORE:    0.00 PKD
ROOT
HETATM    1  C   UNL     1      -5.198  17.167  68.084  1.00  0.00    -0.120 C  
HETATM    2  N   UNL     1      -6.588  16.778  68.161  1.00  0.00    -0.141 NA 
HETATM    3  C   UNL     1      -7.686  17.572  68.420  1.00  0.00    -0.260 A  
HETATM    4  C   UNL     1      -7.028  15.482  67.990  1.00  0.00    -0.132 A  
HETATM    5  N   UNL     1      -8.792  16.853  68.394  1.00  0.00    -0.235 NA 
HETATM    6  C   UNL     1      -6.391  14.267  67.724  1.00  0.00    -0.168 A  
HETATM    7  C   UNL     1      -8.401  15.565  68.145  1.00  0.00    -0.145 A  
HETATM    8  C   UNL     1      -7.208  13.122  67.615  1.00  0.00    -0.160 A  
HETATM    9  C   UNL     1      -9.183  14.407  68.041  1.00  0.00    -0.193 A  
HETATM   10  C   UNL     1      -8.607  13.155  67.753  1.00  0.00    -0.188 A  
ENDROOT
BRANCH   3  11
HETATM   11  C   UNL     1      -7.686  19.039  68.723  1.00  0.00    -0.382 C  
BRANCH  11  12
HETATM   12  C   UNL     1      -8.183  19.822  67.500  1.00  0.00    -0.347 C  
BRANCH  12  13
HETATM   13  C   UNL     1      -9.645  20.233  67.619  1.00  0.00    -0.530 C  
HETATM   14  O   UNL     1     -10.396  19.161  65.608  1.00  0.00    -0.511 OA 
HETATM   15  O   UNL     1     -11.388  18.567  67.545  1.00  0.00     0.046 OA 
HETATM   16  C   UNL     1     -10.557  19.235  66.946  1.00  0.00    -0.459 C  
ENDBRANCH  12  13
ENDBRANCH  11  12
ENDBRANCH   3  11
BRANCH  10  17
HETATM   17  N   UNL     1      -9.401  12.023  67.593  1.00  0.00    -0.180 NA 
BRANCH  17  18
HETATM   18  C   UNL     1      -9.728  11.109  68.703  1.00  0.00    -0.198 C  
HETATM   19 CL   UNL     1      -7.556   9.494  68.159  1.00  0.00    -0.079 Cl 
HETATM   20  C   UNL     1      -9.311   9.658  68.441  1.00  0.00    -0.133 C  
ENDBRANCH  17  18
BRANCH  17  21
HETATM   21  C   UNL     1      -9.828  11.606  66.241  1.00  0.00    -0.219 C  
HETATM   22 CL   UNL     1     -11.754  13.569  66.025  1.00  0.00    -0.366 Cl 
HETATM   23  C   UNL     1     -11.321  11.837  65.972  1.00  0.00    -0.273 C  
ENDBRANCH  17  21
ENDBRANCH  10  17
TORSDOF 6
ENDMDL
MODEL      172
REMARK 921   NORMALIZED FREE ENERGY PREDICTED BY IDOCK:   -3.87 KCAL/MOL
REMARK 922        TOTAL FREE ENERGY PREDICTED BY IDOCK:   -6.01 KCAL/MOL
REMARK 923 INTER-LIGAND FREE ENERGY PREDICTED BY IDOCK:   -5.20 KCAL/MOL
REMARK 924 INTRA-LIGAND FREE ENERGY PREDICTED BY IDOCK:   -0.81 KCAL/MOL
REMARK 927      BINDING AFFINITY PREDICTED BY RF-SCORE:    0.00 PKD
ROOT
HETATM    1  C   UNL     1      -9.845   7.423  67.538  1.00  0.00    -0.158 C  
HETATM    2  N   UNL     1      -9.645   8.702  68.181  1.00  0.00    -0.144 NA 
HETATM    3  C   UNL     1      -9.311   8.956  69.495  1.00  0.00    -0.155 A  
HETATM    4  C   UNL     1      -9.784   9.912  67.533  1.00  0.00    -0.160 A  
HETATM    5  N   UNL     1      -9.205  10.255  69.702  1.00  0.00    -0.174 NA 
HETATM    6  C   UNL     1     -10.118  10.281  66.228  1.00  0.00    -0.300 A  
HETATM    7  C   UNL     1      -9.509  10.854  68.509  1.00  0.00    -0.185 A  
HETATM    8  C   UNL     1     -10.158  11.661  65.940  1.00  0.00    -0.267 A  
HETATM    9  C   UNL     1      -9.566  12.218  68.192  1.00  0.00    -0.213 A  
HETATM   10  C   UNL     1      -9.874  12.657  66.891  1.00  0.00    -0.234 A  
ENDROOT
BRANCH   3  11
HETATM   11  C   UNL     1      -9.110   7.949  70.586  1.00  0.00    -0.153 C  
BRANCH  11  12
HETATM   12  C   UNL     1     -10.117   8.200  71.716  1.00  0.00    -0.267 C  
BRANCH  12  13
HETATM   13  C   UNL     1     -11.548   8.332  71.210  1.00  0.00    -0.318 C  
HETATM   14  O   UNL     1     -11.740   6.102  70.345  1.00  0.00    -0.298 OA 
HETATM   15  O   UNL     1     -13.235   6.754  71.903  1.00  0.00    -0.291 OA 
HETATM   16  C   UNL     1     -12.260   7.000  71.208  1.00  0.00    -0.377 C  
ENDBRANCH  12  13
ENDBRANCH  11  12
ENDBRANCH   3  11
BRANCH  10  17
HETATM   17  N   UNL     1      -9.870  14.013  66.576  1.00  0.00    -0.281 NA 
BRANCH  17  18
HETATM   18  C   UNL     1     -11.056  14.721  66.061  1.00  0.00    -0.330 C  
HETATM   19 CL   UNL     1     -12.299  14.664  68.526  1.00  0.00    -0.098 Cl 
HETATM   20  C   UNL     1     -12.357  14.332  66.773  1.00  0.00    -0.245 C  
ENDBRANCH  17  18
BRANCH  17  21
HETATM   21  C   UNL     1      -8.603  14.774  66.602  1.00  0.00    -0.135 C  
HETATM   22 CL   UNL     1      -9.245  16.150  68.904  1.00  0.00    -0.223 Cl 
HETATM   23  C   UNL     1      -8.748  16.184  67.189  1.00  0.00    -0.194 C  
ENDBRANCH  17  21
ENDBRANCH  10  17
TORSDOF 6
ENDMDL
MODEL      173
REMARK 921   NORMALIZED FREE ENERGY PREDICTED BY IDOCK:   -3.87 KCAL/MOL
REMARK 922        TOTAL FREE ENERGY PREDICTED BY IDOCK:   -6.00 KCAL/MOL
REMARK 923 INTER-LIGAND FREE ENERGY PREDICTED BY IDOCK:   -5.51 KCAL/MOL
REMARK 924 INTRA-LIGAND FREE ENERGY PREDICTED BY IDOCK:   -0.49 KCAL/MOL
REMARK 927      BINDING AFFINITY PREDICTED BY RF-SCORE:    0.00 PKD
ROOT
HETATM    1  C   UNL     1     -12.014  12.667  67.952  1.00  0.00    -0.249 C  
HETATM    2  N   UNL     1     -11.255  11.436  67.971  1.00  0.00    -0.257 NA 
HETATM    3  C   UNL     1     -10.580  10.831  66.931  1.00  0.00    -0.258 A  
HETATM    4  C   UNL     1     -11.106  10.648  69.093  1.00  0.00    -0.255 A  
HETATM    5  N   UNL     1      -9.994   9.723  67.343  1.00  0.00    -0.180 NA 
HETATM    6  C   UNL     1     -11.565  10.738  70.410  1.00  0.00    -0.431 A  
HETATM    7  C   UNL     1     -10.322   9.591  68.666  1.00  0.00    -0.205 A  
HETATM    8  C   UNL     1     -11.190   9.705  71.293  1.00  0.00    -0.446 A  
HETATM    9  C   UNL     1      -9.975   8.575  69.566  1.00  0.00    -0.193 A  
HETATM   10  C   UNL     1     -10.385   8.617  70.913  1.00  0.00    -0.211 A  
ENDROOT
BRANCH   3  11
HETATM   11  C   UNL     1     -10.508  11.299  65.509  1.00  0.00    -0.323 C  
BRANCH  11  12
HETATM   12  C   UNL     1      -9.238  10.751  64.846  1.00  0.00    -0.243 C  
BRANCH  12  13
HETATM   13  C   UNL     1      -9.421  10.483  63.357  1.00  0.00    -0.354 C  
HETATM   14  O   UNL     1      -7.136   9.909  62.900  1.00  0.00    -0.113 OA 
HETATM   15  O   UNL     1      -8.719   8.381  62.404  1.00  0.00    -0.153 OA 
HETATM   16  C   UNL     1      -8.414   9.478  62.848  1.00  0.00    -0.192 C  
ENDBRANCH  12  13
ENDBRANCH  11  12
ENDBRANCH   3  11
BRANCH  10  17
HETATM   17  N   UNL     1      -9.985   7.631  71.811  1.00  0.00    -0.171 NA 
BRANCH  17  18
HETATM   18  C   UNL     1     -10.373   6.216  71.676  1.00  0.00    -0.216 C  
HETATM   19 CL   UNL     1     -13.049   6.856  71.445  1.00  0.00    -0.365 Cl 
HETATM   20  C   UNL     1     -11.764   5.907  72.241  1.00  0.00    -0.252 C  
ENDBRANCH  17  18
BRANCH  17  21
HETATM   21  C   UNL     1      -9.265   8.008  73.047  1.00  0.00    -0.270 C  
HETATM   22 CL   UNL     1      -6.886   6.866  72.247  1.00  0.00    -0.062 Cl 
HETATM   23  C   UNL     1      -8.190   6.995  73.461  1.00  0.00    -0.112 C  
ENDBRANCH  17  21
ENDBRANCH  10  17
TORSDOF 6
ENDMDL
MODEL      174
REMARK 921   NORMALIZED FREE ENERGY PREDICTED BY IDOCK:   -3.87 KCAL/MOL
REMARK 922        TOTAL FREE ENERGY PREDICTED BY IDOCK:   -6.00 KCAL/MOL
REMARK 923 INTER-LIGAND FREE ENERGY PREDICTED BY IDOCK:   -5.13 KCAL/MOL
REMARK 924 INTRA-LIGAND FREE ENERGY PREDICTED BY IDOCK:   -0.87 KCAL/MOL
REMARK 927      BINDING AFFINITY PREDICTED BY RF-SCORE:    0.00 PKD
ROOT
HETATM    1  C   UNL     1      -8.651   6.460  65.695  1.00  0.00    -0.133 C  
HETATM    2  N   UNL     1      -8.837   7.455  66.727  1.00  0.00    -0.131 NA 
HETATM    3  C   UNL     1      -8.738   7.299  68.094  1.00  0.00    -0.128 A  
HETATM    4  C   UNL     1      -9.174   8.767  66.470  1.00  0.00    -0.179 A  
HETATM    5  N   UNL     1      -8.966   8.445  68.707  1.00  0.00    -0.140 NA 
HETATM    6  C   UNL     1      -9.420   9.495  65.302  1.00  0.00    -0.326 A  
HETATM    7  C   UNL     1      -9.250   9.352  67.722  1.00  0.00    -0.128 A  
HETATM    8  C   UNL     1      -9.746  10.860  65.452  1.00  0.00    -0.287 A  
HETATM    9  C   UNL     1      -9.585  10.707  67.837  1.00  0.00    -0.174 A  
HETATM   10  C   UNL     1      -9.823  11.503  66.700  1.00  0.00    -0.202 A  
ENDROOT
BRANCH   3  11
HETATM   11  C   UNL     1      -8.444   6.032  68.838  1.00  0.00    -0.116 C  
BRANCH  11  12
HETATM   12  C   UNL     1      -9.712   5.173  68.921  1.00  0.00    -0.220 C  
BRANCH  12  13
HETATM   13  C   UNL     1     -10.829   5.848  69.707  1.00  0.00    -0.447 C  
HETATM   14  O   UNL     1     -10.254   4.926  71.847  1.00  0.00    -0.192 OA 
HETATM   15  O   UNL     1     -10.318   7.172  71.656  1.00  0.00    -0.198 OA 
HETATM   16  C   UNL     1     -10.437   6.067  71.149  1.00  0.00    -0.230 C  
ENDBRANCH  12  13
ENDBRANCH  11  12
ENDBRANCH   3  11
BRANCH  10  17
HETATM   17  N   UNL     1     -10.098  12.862  66.825  1.00  0.00    -0.234 NA 
BRANCH  17  18
HETATM   18  C   UNL     1      -9.172  13.914  66.368  1.00  0.00    -0.152 C  
HETATM   19 CL   UNL     1      -7.570  13.629  68.598  1.00  0.00    -0.127 Cl 
HETATM   20  C   UNL     1      -8.513  14.688  67.515  1.00  0.00    -0.188 C  
ENDBRANCH  17  18
BRANCH  17  21
HETATM   21  C   UNL     1     -11.289  13.308  67.579  1.00  0.00    -0.296 C  
HETATM   22 CL   UNL     1     -12.843  13.630  65.324  1.00  0.00    -0.480 Cl 
HETATM   23  C   UNL     1     -12.151  14.323  66.817  1.00  0.00    -0.417 C  
ENDBRANCH  17  21
ENDBRANCH  10  17
TORSDOF 6
ENDMDL
MODEL      175
REMARK 921   NORMALIZED FREE ENERGY PREDICTED BY IDOCK:   -3.81 KCAL/MOL
REMARK 922        TOTAL FREE ENERGY PREDICTED BY IDOCK:   -5.92 KCAL/MOL
REMARK 923 INTER-LIGAND FREE ENERGY PREDICTED BY IDOCK:   -4.91 KCAL/MOL
REMARK 924 INTRA-LIGAND FREE ENERGY PREDICTED BY IDOCK:   -1.01 KCAL/MOL
REMARK 927      BINDING AFFINITY PREDICTED BY RF-SCORE:    0.00 PKD
ROOT
HETATM    1  C   UNL     1      -7.803   6.933  64.293  1.00  0.00    -0.104 C  
HETATM    2  N   UNL     1      -8.077   7.865  65.364  1.00  0.00    -0.123 NA 
HETATM    3  C   UNL     1      -7.829   7.715  66.713  1.00  0.00    -0.107 A  
HETATM    4  C   UNL     1      -8.672   9.094  65.173  1.00  0.00    -0.195 A  
HETATM    5  N   UNL     1      -8.209   8.792  67.375  1.00  0.00    -0.109 NA 
HETATM    6  C   UNL     1      -9.151   9.777  64.051  1.00  0.00    -0.280 A  
HETATM    7  C   UNL     1      -8.743   9.641  66.442  1.00  0.00    -0.134 A  
HETATM    8  C   UNL     1      -9.708  11.055  64.265  1.00  0.00    -0.333 A  
HETATM    9  C   UNL     1      -9.311  10.909  66.622  1.00  0.00    -0.191 A  
HETATM   10  C   UNL     1      -9.792  11.659  65.532  1.00  0.00    -0.234 A  
ENDROOT
BRANCH   3  11
HETATM   11  C   UNL     1      -7.242   6.517  67.394  1.00  0.00    -0.085 C  
BRANCH  11  12
HETATM   12  C   UNL     1      -8.297   5.863  68.296  1.00  0.00    -0.112 C  
BRANCH  12  13
HETATM   13  C   UNL     1      -9.442   5.242  67.506  1.00  0.00    -0.136 C  
HETATM   14  O   UNL     1     -11.207   5.986  68.952  1.00  0.00    -0.344 OA 
HETATM   15  O   UNL     1     -11.300   6.601  66.785  1.00  0.00    -0.270 OA 
HETATM   16  C   UNL     1     -10.726   6.017  67.692  1.00  0.00    -0.296 C  
ENDBRANCH  12  13
ENDBRANCH  11  12
ENDBRANCH   3  11
BRANCH  10  17
HETATM   17  N   UNL     1     -10.301  12.941  65.717  1.00  0.00    -0.280 NA 
BRANCH  17  18
HETATM   18  C   UNL     1     -11.725  13.209  65.988  1.00  0.00    -0.379 C  
HETATM   19 CL   UNL     1     -12.371  13.090  63.306  1.00  0.00    -0.525 Cl 
HETATM   20  C   UNL     1     -12.429  13.970  64.859  1.00  0.00    -0.396 C  
ENDBRANCH  17  18
BRANCH  17  21
HETATM   21  C   UNL     1      -9.435  14.118  65.491  1.00  0.00     0.140 C  
HETATM   22 CL   UNL     1      -8.258  13.981  67.982  1.00  0.00    -0.143 Cl 
HETATM   23  C   UNL     1      -9.159  14.928  66.764  1.00  0.00    -0.270 C  
ENDBRANCH  17  21
ENDBRANCH  10  17
TORSDOF 6
ENDMDL
MODEL      176
REMARK 921   NORMALIZED FREE ENERGY PREDICTED BY IDOCK:   -3.81 KCAL/MOL
REMARK 922        TOTAL FREE ENERGY PREDICTED BY IDOCK:   -5.92 KCAL/MOL
REMARK 923 INTER-LIGAND FREE ENERGY PREDICTED BY IDOCK:   -5.44 KCAL/MOL
REMARK 924 INTRA-LIGAND FREE ENERGY PREDICTED BY IDOCK:   -0.48 KCAL/MOL
REMARK 927      BINDING AFFINITY PREDICTED BY RF-SCORE:    0.00 PKD
ROOT
HETATM    1  C   UNL     1     -11.765  12.028  68.308  1.00  0.00    -0.334 C  
HETATM    2  N   UNL     1     -11.630  11.203  69.488  1.00  0.00    -0.290 NA 
HETATM    3  C   UNL     1     -12.266  11.340  70.705  1.00  0.00    -0.393 A  
HETATM    4  C   UNL     1     -10.788  10.114  69.565  1.00  0.00    -0.255 A  
HETATM    5  N   UNL     1     -11.892  10.382  71.531  1.00  0.00    -0.240 NA 
HETATM    6  C   UNL     1      -9.898   9.509  68.673  1.00  0.00    -0.173 A  
HETATM    7  C   UNL     1     -10.972   9.631  70.849  1.00  0.00    -0.342 A  
HETATM    8  C   UNL     1      -9.196   8.377  69.134  1.00  0.00    -0.150 A  
HETATM    9  C   UNL     1     -10.251   8.509  71.279  1.00  0.00    -0.287 A  
HETATM   10  C   UNL     1      -9.356   7.840  70.423  1.00  0.00    -0.160 A  
ENDROOT
BRANCH   3  11
HETATM   11  C   UNL     1     -13.232  12.414  71.102  1.00  0.00     0.034 C  
BRANCH  11  12
HETATM   12  C   UNL     1     -12.574  13.351  72.124  1.00  0.00    -0.076 C  
BRANCH  12  13
HETATM   13  C   UNL     1     -13.150  14.760  72.086  1.00  0.00    -0.426 C  
HETATM   14  O   UNL     1     -12.107  15.537  74.103  1.00  0.00    -0.543 OA 
HETATM   15  O   UNL     1     -11.689  16.676  72.201  1.00  0.00    -0.444 OA 
HETATM   16  C   UNL     1     -12.240  15.749  72.776  1.00  0.00    -0.473 C  
ENDBRANCH  12  13
ENDBRANCH  11  12
ENDBRANCH   3  11
BRANCH  10  17
HETATM   17  N   UNL     1      -8.690   6.692  70.844  1.00  0.00    -0.138 NA 
BRANCH  17  18
HETATM   18  C   UNL     1      -9.144   5.872  71.982  1.00  0.00    -0.144 C  
HETATM   19 CL   UNL     1      -9.676   3.707  70.354  1.00  0.00    -0.249 Cl 
HETATM   20  C   UNL     1     -10.225   4.852  71.608  1.00  0.00    -0.197 C  
ENDBRANCH  17  18
BRANCH  17  21
HETATM   21  C   UNL     1      -7.386   6.334  70.246  1.00  0.00    -0.089 C  
HETATM   22 CL   UNL     1      -5.919   7.311  72.367  1.00  0.00    -0.041 Cl 
HETATM   23  C   UNL     1      -6.257   7.306  70.614  1.00  0.00    -0.035 C  
ENDBRANCH  17  21
ENDBRANCH  10  17
TORSDOF 6
ENDMDL
MODEL      177
REMARK 921   NORMALIZED FREE ENERGY PREDICTED BY IDOCK:   -3.79 KCAL/MOL
REMARK 922        TOTAL FREE ENERGY PREDICTED BY IDOCK:   -5.90 KCAL/MOL
REMARK 923 INTER-LIGAND FREE ENERGY PREDICTED BY IDOCK:   -6.06 KCAL/MOL
REMARK 924 INTRA-LIGAND FREE ENERGY PREDICTED BY IDOCK:    0.17 KCAL/MOL
REMARK 927      BINDING AFFINITY PREDICTED BY RF-SCORE:    0.00 PKD
ROOT
HETATM    1  C   UNL     1     -10.122  11.063  68.387  1.00  0.00    -0.184 C  
HETATM    2  N   UNL     1     -10.486  10.450  69.644  1.00  0.00    -0.243 NA 
HETATM    3  C   UNL     1     -11.571  10.727  70.450  1.00  0.00    -0.339 A  
HETATM    4  C   UNL     1      -9.746   9.456  70.251  1.00  0.00    -0.246 A  
HETATM    5  N   UNL     1     -11.569   9.946  71.513  1.00  0.00    -0.354 NA 
HETATM    6  C   UNL     1      -8.563   8.789  69.922  1.00  0.00    -0.133 A  
HETATM    7  C   UNL     1     -10.445   9.170  71.411  1.00  0.00    -0.344 A  
HETATM    8  C   UNL     1      -8.109   7.803  70.823  1.00  0.00    -0.102 A  
HETATM    9  C   UNL     1      -9.962   8.192  72.290  1.00  0.00    -0.332 A  
HETATM   10  C   UNL     1      -8.788   7.467  72.007  1.00  0.00    -0.124 A  
ENDROOT
BRANCH   3  11
HETATM   11  C   UNL     1     -12.620  11.772  70.221  1.00  0.00    -0.131 C  
BRANCH  11  12
HETATM   12  C   UNL     1     -12.420  12.933  71.205  1.00  0.00    -0.344 C  
BRANCH  12  13
HETATM   13  C   UNL     1     -13.680  13.256  71.997  1.00  0.00    -0.519 C  
HETATM   14  O   UNL     1     -12.618  14.626  73.656  1.00  0.00    -0.463 OA 
HETATM   15  O   UNL     1     -14.282  15.548  72.446  1.00  0.00    -0.553 OA 
HETATM   16  C   UNL     1     -13.567  14.589  72.697  1.00  0.00    -0.478 C  
ENDBRANCH  12  13
ENDBRANCH  11  12
ENDBRANCH   3  11
BRANCH  10  17
HETATM   17  N   UNL     1      -8.351   6.457  72.860  1.00  0.00    -0.117 NA 
BRANCH  17  18
HETATM   18  C   UNL     1      -7.384   5.423  72.450  1.00  0.00    -0.094 C  
HETATM   19 CL   UNL     1      -9.078   4.452  70.498  1.00  0.00    -0.159 Cl 
HETATM   20  C   UNL     1      -8.043   4.145  71.920  1.00  0.00    -0.088 C  
ENDBRANCH  17  18
BRANCH  17  21
HETATM   21  C   UNL     1      -8.975   6.293  74.190  1.00  0.00    -0.139 C  
HETATM   22 CL   UNL     1     -10.946   4.594  73.277  1.00  0.00    -0.347 Cl 
HETATM   23  C   UNL     1     -10.496   6.095  74.133  1.00  0.00    -0.231 C  
ENDBRANCH  17  21
ENDBRANCH  10  17
TORSDOF 6
ENDMDL
MODEL      178
REMARK 921   NORMALIZED FREE ENERGY PREDICTED BY IDOCK:   -3.79 KCAL/MOL
REMARK 922        TOTAL FREE ENERGY PREDICTED BY IDOCK:   -5.90 KCAL/MOL
REMARK 923 INTER-LIGAND FREE ENERGY PREDICTED BY IDOCK:   -5.47 KCAL/MOL
REMARK 924 INTRA-LIGAND FREE ENERGY PREDICTED BY IDOCK:   -0.43 KCAL/MOL
REMARK 927      BINDING AFFINITY PREDICTED BY RF-SCORE:    0.00 PKD
ROOT
HETATM    1  C   UNL     1     -11.863  12.176  68.047  1.00  0.00    -0.285 C  
HETATM    2  N   UNL     1     -11.300  10.885  68.375  1.00  0.00    -0.281 NA 
HETATM    3  C   UNL     1     -11.332  10.220  69.584  1.00  0.00    -0.257 A  
HETATM    4  C   UNL     1     -10.602  10.106  67.476  1.00  0.00    -0.273 A  
HETATM    5  N   UNL     1     -10.718   9.056  69.486  1.00  0.00    -0.227 NA 
HETATM    6  C   UNL     1     -10.241  10.258  66.135  1.00  0.00    -0.285 A  
HETATM    7  C   UNL     1     -10.251   8.980  68.201  1.00  0.00    -0.204 A  
HETATM    8  C   UNL     1      -9.505   9.210  65.544  1.00  0.00    -0.276 A  
HETATM    9  C   UNL     1      -9.512   7.961  67.587  1.00  0.00    -0.170 A  
HETATM   10  C   UNL     1      -9.135   8.042  66.233  1.00  0.00    -0.186 A  
ENDROOT
BRANCH   3  11
HETATM   11  C   UNL     1     -11.936  10.707  70.865  1.00  0.00    -0.469 C  
BRANCH  11  12
HETATM   12  C   UNL     1     -13.343  10.120  71.032  1.00  0.00    -0.333 C  
BRANCH  12  13
HETATM   13  C   UNL     1     -13.498   9.318  72.318  1.00  0.00    -0.548 C  
HETATM   14  O   UNL     1     -12.911   7.187  71.386  1.00  0.00    -0.376 OA 
HETATM   15  O   UNL     1     -11.686   7.944  73.122  1.00  0.00    -0.264 OA 
HETATM   16  C   UNL     1     -12.600   8.104  72.325  1.00  0.00    -0.273 C  
ENDBRANCH  12  13
ENDBRANCH  11  12
ENDBRANCH   3  11
BRANCH  10  17
HETATM   17  N   UNL     1      -8.451   6.996  65.619  1.00  0.00    -0.149 NA 
BRANCH  17  18
HETATM   18  C   UNL     1      -7.946   7.069  64.236  1.00  0.00    -0.091 C  
HETATM   19 CL   UNL     1      -5.375   7.611  65.084  1.00  0.00    -0.029 Cl 
HETATM   20  C   UNL     1      -6.775   8.042  64.064  1.00  0.00    -0.066 C  
ENDBRANCH  17  18
BRANCH  17  21
HETATM   21  C   UNL     1      -8.340   5.687  66.298  1.00  0.00    -0.114 C  
HETATM   22 CL   UNL     1      -9.562   4.297  64.254  1.00  0.00    -0.149 Cl 
HETATM   23  C   UNL     1      -9.501   4.734  65.984  1.00  0.00    -0.165 C  
ENDBRANCH  17  21
ENDBRANCH  10  17
TORSDOF 6
ENDMDL
MODEL      179
REMARK 921   NORMALIZED FREE ENERGY PREDICTED BY IDOCK:   -3.77 KCAL/MOL
REMARK 922        TOTAL FREE ENERGY PREDICTED BY IDOCK:   -5.87 KCAL/MOL
REMARK 923 INTER-LIGAND FREE ENERGY PREDICTED BY IDOCK:   -5.41 KCAL/MOL
REMARK 924 INTRA-LIGAND FREE ENERGY PREDICTED BY IDOCK:   -0.47 KCAL/MOL
REMARK 927      BINDING AFFINITY PREDICTED BY RF-SCORE:    0.00 PKD
ROOT
HETATM    1  C   UNL     1      -6.292  13.574  69.852  1.00  0.00    -0.071 C  
HETATM    2  N   UNL     1      -6.912  14.235  68.726  1.00  0.00    -0.096 NA 
HETATM    3  C   UNL     1      -7.603  13.668  67.675  1.00  0.00    -0.179 A  
HETATM    4  C   UNL     1      -6.884  15.600  68.533  1.00  0.00    -0.115 A  
HETATM    5  N   UNL     1      -8.033  14.603  66.848  1.00  0.00    -0.060 NA 
HETATM    6  C   UNL     1      -6.330  16.670  69.242  1.00  0.00    -0.202 A  
HETATM    7  C   UNL     1      -7.585  15.793  67.355  1.00  0.00    -0.191 A  
HETATM    8  C   UNL     1      -6.520  17.962  68.708  1.00  0.00    -0.230 A  
HETATM    9  C   UNL     1      -7.747  17.088  66.847  1.00  0.00    -0.251 A  
HETATM   10  C   UNL     1      -7.234  18.212  67.523  1.00  0.00    -0.200 A  
ENDROOT
BRANCH   3  11
HETATM   11  C   UNL     1      -7.841  12.209  67.435  1.00  0.00    -0.168 C  
BRANCH  11  12
HETATM   12  C   UNL     1      -9.347  11.941  67.318  1.00  0.00    -0.177 C  
BRANCH  12  13
HETATM   13  C   UNL     1      -9.996  11.634  68.661  1.00  0.00    -0.192 C  
HETATM   14  O   UNL     1     -11.808  13.193  68.452  1.00  0.00    -0.332 OA 
HETATM   15  O   UNL     1     -12.326  11.022  68.776  1.00  0.00    -0.533 OA 
HETATM   16  C   UNL     1     -11.483  11.895  68.630  1.00  0.00    -0.294 C  
ENDBRANCH  12  13
ENDBRANCH  11  12
ENDBRANCH   3  11
BRANCH  10  17
HETATM   17  N   UNL     1      -7.453  19.498  67.038  1.00  0.00    -0.225 NA 
BRANCH  17  18
HETATM   18  C   UNL     1      -6.570  20.636  67.353  1.00  0.00    -0.294 C  
HETATM   19 CL   UNL     1      -5.820  20.929  64.712  1.00  0.00    -0.281 Cl 
HETATM   20  C   UNL     1      -5.355  20.741  66.425  1.00  0.00    -0.186 C  
ENDBRANCH  17  18
BRANCH  17  21
HETATM   21  C   UNL     1      -8.695  19.806  66.297  1.00  0.00    -0.363 C  
HETATM   22 CL   UNL     1     -10.178  20.263  68.577  1.00  0.00    -0.403 Cl 
HETATM   23  C   UNL     1      -9.970  19.382  67.037  1.00  0.00    -0.364 C  
ENDBRANCH  17  21
ENDBRANCH  10  17
TORSDOF 6
ENDMDL
MODEL      180
REMARK 921   NORMALIZED FREE ENERGY PREDICTED BY IDOCK:   -3.74 KCAL/MOL
REMARK 922        TOTAL FREE ENERGY PREDICTED BY IDOCK:   -5.83 KCAL/MOL
REMARK 923 INTER-LIGAND FREE ENERGY PREDICTED BY IDOCK:   -5.31 KCAL/MOL
REMARK 924 INTRA-LIGAND FREE ENERGY PREDICTED BY IDOCK:   -0.52 KCAL/MOL
REMARK 927      BINDING AFFINITY PREDICTED BY RF-SCORE:    0.00 PKD
ROOT
HETATM    1  C   UNL     1     -12.319  10.241  71.361  1.00  0.00    -0.401 C  
HETATM    2  N   UNL     1     -11.518  10.638  70.225  1.00  0.00    -0.318 NA 
HETATM    3  C   UNL     1     -11.418  11.884  69.640  1.00  0.00    -0.266 A  
HETATM    4  C   UNL     1     -10.708   9.770  69.522  1.00  0.00    -0.233 A  
HETATM    5  N   UNL     1     -10.572  11.853  68.628  1.00  0.00    -0.230 NA 
HETATM    6  C   UNL     1     -10.418   8.407  69.633  1.00  0.00    -0.221 A  
HETATM    7  C   UNL     1     -10.140  10.557  68.535  1.00  0.00    -0.173 A  
HETATM    8  C   UNL     1      -9.512   7.864  68.699  1.00  0.00    -0.149 A  
HETATM    9  C   UNL     1      -9.252   9.984  67.616  1.00  0.00    -0.148 A  
HETATM   10  C   UNL     1      -8.899   8.622  67.686  1.00  0.00    -0.136 A  
ENDROOT
BRANCH   3  11
HETATM   11  C   UNL     1     -12.158  13.125  70.033  1.00  0.00    -0.375 C  
BRANCH  11  12
HETATM   12  C   UNL     1     -11.904  14.230  69.000  1.00  0.00    -0.370 C  
BRANCH  12  13
HETATM   13  C   UNL     1     -11.501  15.553  69.639  1.00  0.00    -0.337 C  
HETATM   14  O   UNL     1     -13.381  15.726  71.120  1.00  0.00    -0.564 OA 
HETATM   15  O   UNL     1     -11.321  15.741  72.037  1.00  0.00    -0.371 OA 
HETATM   16  C   UNL     1     -12.035  15.672  71.047  1.00  0.00    -0.400 C  
ENDBRANCH  12  13
ENDBRANCH  11  12
ENDBRANCH   3  11
BRANCH  10  17
HETATM   17  N   UNL     1      -7.970   8.079  66.803  1.00  0.00    -0.102 NA 
BRANCH  17  18
HETATM   18  C   UNL     1      -8.316   7.048  65.809  1.00  0.00    -0.143 C  
HETATM   19 CL   UNL     1      -7.745   5.000  67.571  1.00  0.00    -0.091 Cl 
HETATM   20  C   UNL     1      -7.513   5.752  65.968  1.00  0.00    -0.082 C  
ENDBRANCH  17  18
BRANCH  17  21
HETATM   21  C   UNL     1      -6.537   8.417  66.939  1.00  0.00    -0.058 C  
HETATM   22 CL   UNL     1      -6.684  10.592  65.249  1.00  0.00    -0.091 Cl 
HETATM   23  C   UNL     1      -5.929   9.029  65.670  1.00  0.00    -0.051 C  
ENDBRANCH  17  21
ENDBRANCH  10  17
TORSDOF 6
ENDMDL
MODEL      181
REMARK 921   NORMALIZED FREE ENERGY PREDICTED BY IDOCK:   -3.73 KCAL/MOL
REMARK 922        TOTAL FREE ENERGY PREDICTED BY IDOCK:   -5.82 KCAL/MOL
REMARK 923 INTER-LIGAND FREE ENERGY PREDICTED BY IDOCK:   -5.02 KCAL/MOL
REMARK 924 INTRA-LIGAND FREE ENERGY PREDICTED BY IDOCK:   -0.80 KCAL/MOL
REMARK 927      BINDING AFFINITY PREDICTED BY RF-SCORE:    0.00 PKD
ROOT
HETATM    1  C   UNL     1      -5.200  16.724  68.133  1.00  0.00    -0.117 C  
HETATM    2  N   UNL     1      -6.598  16.564  67.800  1.00  0.00    -0.132 NA 
HETATM    3  C   UNL     1      -7.542  17.545  67.577  1.00  0.00    -0.197 A  
HETATM    4  C   UNL     1      -7.215  15.338  67.667  1.00  0.00    -0.180 A  
HETATM    5  N   UNL     1      -8.709  17.004  67.285  1.00  0.00    -0.197 NA 
HETATM    6  C   UNL     1      -6.782  14.015  67.789  1.00  0.00    -0.188 A  
HETATM    7  C   UNL     1      -8.526  15.649  67.352  1.00  0.00    -0.172 A  
HETATM    8  C   UNL     1      -7.740  13.002  67.571  1.00  0.00    -0.168 A  
HETATM    9  C   UNL     1      -9.455  14.619  67.150  1.00  0.00    -0.234 A  
HETATM   10  C   UNL     1      -9.080  13.265  67.236  1.00  0.00    -0.221 A  
ENDROOT
BRANCH   3  11
HETATM   11  C   UNL     1      -7.341  19.027  67.666  1.00  0.00    -0.245 C  
BRANCH  11  12
HETATM   12  C   UNL     1      -8.057  19.719  66.500  1.00  0.00    -0.351 C  
BRANCH  12  13
HETATM   13  C   UNL     1      -9.066  20.762  66.964  1.00  0.00    -0.274 C  
HETATM   14  O   UNL     1     -10.943  19.275  67.126  1.00  0.00    -0.476 OA 
HETATM   15  O   UNL     1     -10.341  20.407  68.981  1.00  0.00    -0.200 OA 
HETATM   16  C   UNL     1     -10.158  20.140  67.802  1.00  0.00    -0.400 C  
ENDBRANCH  12  13
ENDBRANCH  11  12
ENDBRANCH   3  11
BRANCH  10  17
HETATM   17  N   UNL     1      -9.999  12.252  66.976  1.00  0.00    -0.209 NA 
BRANCH  17  18
HETATM   18  C   UNL     1     -10.415  11.266  67.990  1.00  0.00    -0.188 C  
HETATM   19 CL   UNL     1     -12.344  12.960  69.007  1.00  0.00    -0.029 Cl 
HETATM   20  C   UNL     1     -10.932  11.902  69.285  1.00  0.00    -0.151 C  
ENDBRANCH  17  18
BRANCH  17  21
HETATM   21  C   UNL     1     -10.484  12.032  65.597  1.00  0.00    -0.256 C  
HETATM   22 CL   UNL     1      -9.137   9.645  65.290  1.00  0.00    -0.246 Cl 
HETATM   23  C   UNL     1      -9.476  11.297  64.703  1.00  0.00    -0.188 C  
ENDBRANCH  17  21
ENDBRANCH  10  17
TORSDOF 6
ENDMDL
MODEL      182
REMARK 921   NORMALIZED FREE ENERGY PREDICTED BY IDOCK:   -3.73 KCAL/MOL
REMARK 922        TOTAL FREE ENERGY PREDICTED BY IDOCK:   -5.82 KCAL/MOL
REMARK 923 INTER-LIGAND FREE ENERGY PREDICTED BY IDOCK:   -4.90 KCAL/MOL
REMARK 924 INTRA-LIGAND FREE ENERGY PREDICTED BY IDOCK:   -0.92 KCAL/MOL
REMARK 927      BINDING AFFINITY PREDICTED BY RF-SCORE:    0.00 PKD
ROOT
HETATM    1  C   UNL     1     -10.555   7.028  66.835  1.00  0.00    -0.301 C  
HETATM    2  N   UNL     1      -9.755   8.133  66.356  1.00  0.00    -0.226 NA 
HETATM    3  C   UNL     1      -8.625   8.091  65.565  1.00  0.00    -0.135 A  
HETATM    4  C   UNL     1     -10.021   9.453  66.654  1.00  0.00    -0.258 A  
HETATM    5  N   UNL     1      -8.183   9.312  65.327  1.00  0.00    -0.127 NA 
HETATM    6  C   UNL     1     -11.003  10.099  67.410  1.00  0.00    -0.295 A  
HETATM    7  C   UNL     1      -9.022  10.157  66.003  1.00  0.00    -0.151 A  
HETATM    8  C   UNL     1     -10.939  11.506  67.479  1.00  0.00    -0.308 A  
HETATM    9  C   UNL     1      -8.982  11.554  66.100  1.00  0.00    -0.201 A  
HETATM   10  C   UNL     1      -9.954  12.268  66.826  1.00  0.00    -0.205 A  
ENDROOT
BRANCH   3  11
HETATM   11  C   UNL     1      -7.935   6.869  65.042  1.00  0.00    -0.125 C  
BRANCH  11  12
HETATM   12  C   UNL     1      -6.629   6.641  65.814  1.00  0.00    -0.047 C  
BRANCH  12  13
HETATM   13  C   UNL     1      -6.854   6.456  67.309  1.00  0.00    -0.069 C  
HETATM   14  O   UNL     1      -7.207   4.083  67.242  1.00  0.00    -0.066 OA 
HETATM   15  O   UNL     1      -5.540   4.857  68.549  1.00  0.00    -0.014 OA 
HETATM   16  C   UNL     1      -6.451   5.072  67.762  1.00  0.00    -0.045 C  
ENDBRANCH  12  13
ENDBRANCH  11  12
ENDBRANCH   3  11
BRANCH  10  17
HETATM   17  N   UNL     1      -9.935  13.659  66.866  1.00  0.00    -0.254 NA 
BRANCH  17  18
HETATM   18  C   UNL     1     -10.078  14.499  65.663  1.00  0.00    -0.359 C  
HETATM   19 CL   UNL     1     -12.776  13.948  65.461  1.00  0.00    -0.559 Cl 
HETATM   20  C   UNL     1     -11.163  14.006  64.699  1.00  0.00    -0.374 C  
ENDBRANCH  17  18
BRANCH  17  21
HETATM   21  C   UNL     1      -9.610  14.358  68.128  1.00  0.00    -0.218 C  
HETATM   22 CL   UNL     1     -12.208  14.318  69.052  1.00  0.00    -0.313 Cl 
HETATM   23  C   UNL     1     -10.744  15.255  68.641  1.00  0.00    -0.245 C  
ENDBRANCH  17  21
ENDBRANCH  10  17
TORSDOF 6
ENDMDL
MODEL      183
REMARK 921   NORMALIZED FREE ENERGY PREDICTED BY IDOCK:   -3.70 KCAL/MOL
REMARK 922        TOTAL FREE ENERGY PREDICTED BY IDOCK:   -5.77 KCAL/MOL
REMARK 923 INTER-LIGAND FREE ENERGY PREDICTED BY IDOCK:   -5.28 KCAL/MOL
REMARK 924 INTRA-LIGAND FREE ENERGY PREDICTED BY IDOCK:   -0.49 KCAL/MOL
REMARK 927      BINDING AFFINITY PREDICTED BY RF-SCORE:    0.00 PKD
ROOT
HETATM    1  C   UNL     1      -7.251   8.938  70.128  1.00  0.00    -0.057 C  
HETATM    2  N   UNL     1      -8.372   9.732  69.678  1.00  0.00    -0.156 NA 
HETATM    3  C   UNL     1      -9.718   9.511  69.889  1.00  0.00    -0.224 A  
HETATM    4  C   UNL     1      -8.240  10.878  68.922  1.00  0.00    -0.141 A  
HETATM    5  N   UNL     1     -10.436  10.467  69.331  1.00  0.00    -0.230 NA 
HETATM    6  C   UNL     1      -7.149  11.575  68.396  1.00  0.00    -0.081 A  
HETATM    7  C   UNL     1      -9.542  11.305  68.721  1.00  0.00    -0.151 A  
HETATM    8  C   UNL     1      -7.427  12.741  67.653  1.00  0.00    -0.144 A  
HETATM    9  C   UNL     1      -9.784  12.463  67.970  1.00  0.00    -0.210 A  
HETATM   10  C   UNL     1      -8.729  13.223  67.431  1.00  0.00    -0.206 A  
ENDROOT
BRANCH   3  11
HETATM   11  C   UNL     1     -10.339   8.356  70.614  1.00  0.00    -0.224 C  
BRANCH  11  12
HETATM   12  C   UNL     1     -10.380   8.649  72.119  1.00  0.00    -0.403 C  
BRANCH  12  13
HETATM   13  C   UNL     1     -11.707   8.260  72.758  1.00  0.00    -0.305 C  
HETATM   14  O   UNL     1     -12.902  10.248  72.140  1.00  0.00    -0.388 OA 
HETATM   15  O   UNL     1     -13.735   8.268  71.452  1.00  0.00    -0.309 OA 
HETATM   16  C   UNL     1     -12.874   8.902  72.044  1.00  0.00    -0.397 C  
ENDBRANCH  12  13
ENDBRANCH  11  12
ENDBRANCH   3  11
BRANCH  10  17
HETATM   17  N   UNL     1      -8.981  14.403  66.737  1.00  0.00    -0.248 NA 
BRANCH  17  18
HETATM   18  C   UNL     1      -9.933  14.486  65.614  1.00  0.00    -0.347 C  
HETATM   19 CL   UNL     1     -12.021  15.165  67.288  1.00  0.00    -0.088 Cl 
HETATM   20  C   UNL     1     -11.368  14.114  66.002  1.00  0.00    -0.330 C  
ENDBRANCH  17  18
BRANCH  17  21
HETATM   21  C   UNL     1      -8.168  15.608  67.009  1.00  0.00    -0.233 C  
HETATM   22 CL   UNL     1      -9.189  15.968  69.545  1.00  0.00    -0.200 Cl 
HETATM   23  C   UNL     1      -8.870  16.627  67.916  1.00  0.00    -0.205 C  
ENDBRANCH  17  21
ENDBRANCH  10  17
TORSDOF 6
ENDMDL
MODEL      184
REMARK 921   NORMALIZED FREE ENERGY PREDICTED BY IDOCK:   -3.70 KCAL/MOL
REMARK 922        TOTAL FREE ENERGY PREDICTED BY IDOCK:   -5.77 KCAL/MOL
REMARK 923 INTER-LIGAND FREE ENERGY PREDICTED BY IDOCK:   -4.92 KCAL/MOL
REMARK 924 INTRA-LIGAND FREE ENERGY PREDICTED BY IDOCK:   -0.85 KCAL/MOL
REMARK 927      BINDING AFFINITY PREDICTED BY RF-SCORE:    0.00 PKD
ROOT
HETATM    1  C   UNL     1     -11.834  10.820  70.446  1.00  0.00    -0.358 C  
HETATM    2  N   UNL     1     -10.925  10.309  69.445  1.00  0.00    -0.233 NA 
HETATM    3  C   UNL     1     -10.335  10.987  68.398  1.00  0.00    -0.183 A  
HETATM    4  C   UNL     1     -10.512   8.994  69.390  1.00  0.00    -0.222 A  
HETATM    5  N   UNL     1      -9.555  10.179  67.706  1.00  0.00    -0.147 NA 
HETATM    6  C   UNL     1     -10.782   7.858  70.158  1.00  0.00    -0.244 A  
HETATM    7  C   UNL     1      -9.666   8.948  68.295  1.00  0.00    -0.157 A  
HETATM    8  C   UNL     1     -10.150   6.657  69.775  1.00  0.00    -0.204 A  
HETATM    9  C   UNL     1      -9.061   7.737  67.935  1.00  0.00    -0.132 A  
HETATM   10  C   UNL     1      -9.273   6.561  68.680  1.00  0.00    -0.127 A  
ENDROOT
BRANCH   3  11
HETATM   11  C   UNL     1     -10.534  12.426  68.030  1.00  0.00    -0.227 C  
BRANCH  11  12
HETATM   12  C   UNL     1     -11.905  12.607  67.367  1.00  0.00    -0.393 C  
BRANCH  12  13
HETATM   13  C   UNL     1     -11.893  12.249  65.886  1.00  0.00    -0.420 C  
HETATM   14  O   UNL     1     -12.520  14.419  65.074  1.00  0.00    -0.436 OA 
HETATM   15  O   UNL     1     -10.579  13.542  64.331  1.00  0.00    -0.419 OA 
HETATM   16  C   UNL     1     -11.579  13.452  65.028  1.00  0.00    -0.317 C  
ENDBRANCH  12  13
ENDBRANCH  11  12
ENDBRANCH   3  11
BRANCH  10  17
HETATM   17  N   UNL     1      -8.620   5.378  68.347  1.00  0.00    -0.096 NA 
BRANCH  17  18
HETATM   18  C   UNL     1      -9.305   4.230  67.726  1.00  0.00    -0.160 C  
HETATM   19 CL   UNL     1      -9.271   5.416  65.232  1.00  0.00    -0.072 Cl 
HETATM   20  C   UNL     1     -10.192   4.618  66.537  1.00  0.00    -0.238 C  
ENDBRANCH  17  18
BRANCH  17  21
HETATM   21  C   UNL     1      -7.214   5.170  68.755  1.00  0.00    -0.062 C  
HETATM   22 CL   UNL     1      -6.173   6.264  66.448  1.00  0.00    -0.036 Cl 
HETATM   23  C   UNL     1      -6.271   4.886  67.579  1.00  0.00    -0.039 C  
ENDBRANCH  17  21
ENDBRANCH  10  17
TORSDOF 6
ENDMDL
MODEL      185
REMARK 921   NORMALIZED FREE ENERGY PREDICTED BY IDOCK:   -3.68 KCAL/MOL
REMARK 922        TOTAL FREE ENERGY PREDICTED BY IDOCK:   -5.75 KCAL/MOL
REMARK 923 INTER-LIGAND FREE ENERGY PREDICTED BY IDOCK:   -5.22 KCAL/MOL
REMARK 924 INTRA-LIGAND FREE ENERGY PREDICTED BY IDOCK:   -0.53 KCAL/MOL
REMARK 927      BINDING AFFINITY PREDICTED BY RF-SCORE:    0.00 PKD
ROOT
HETATM    1  C   UNL     1     -10.422   7.589  66.582  1.00  0.00    -0.131 C  
HETATM    2  N   UNL     1     -10.364   8.042  67.954  1.00  0.00    -0.221 NA 
HETATM    3  C   UNL     1     -10.649   9.296  68.454  1.00  0.00    -0.190 A  
HETATM    4  C   UNL     1      -9.981   7.239  69.008  1.00  0.00    -0.177 A  
HETATM    5  N   UNL     1     -10.492   9.317  69.764  1.00  0.00    -0.212 NA 
HETATM    6  C   UNL     1      -9.571   5.907  69.114  1.00  0.00    -0.166 A  
HETATM    7  C   UNL     1     -10.067   8.064  70.115  1.00  0.00    -0.194 A  
HETATM    8  C   UNL     1      -9.253   5.433  70.404  1.00  0.00    -0.190 A  
HETATM    9  C   UNL     1      -9.735   7.565  71.381  1.00  0.00    -0.180 A  
HETATM   10  C   UNL     1      -9.337   6.226  71.561  1.00  0.00    -0.148 A  
ENDROOT
BRANCH   3  11
HETATM   11  C   UNL     1     -11.055  10.508  67.672  1.00  0.00    -0.375 C  
BRANCH  11  12
HETATM   12  C   UNL     1     -11.045  11.742  68.583  1.00  0.00    -0.289 C  
BRANCH  12  13
HETATM   13  C   UNL     1     -11.889  12.885  68.035  1.00  0.00    -0.390 C  
HETATM   14  O   UNL     1     -10.486  13.386  66.155  1.00  0.00    -0.285 OA 
HETATM   15  O   UNL     1     -12.639  12.854  65.743  1.00  0.00    -0.538 OA 
HETATM   16  C   UNL     1     -11.728  13.025  66.540  1.00  0.00    -0.382 C  
ENDBRANCH  12  13
ENDBRANCH  11  12
ENDBRANCH   3  11
BRANCH  10  17
HETATM   17  N   UNL     1      -9.066   5.727  72.832  1.00  0.00    -0.123 NA 
BRANCH  17  18
HETATM   18  C   UNL     1      -7.758   5.162  73.210  1.00  0.00    -0.096 C  
HETATM   19 CL   UNL     1      -6.467   7.562  72.771  1.00  0.00    -0.059 Cl 
HETATM   20  C   UNL     1      -6.578   5.805  72.475  1.00  0.00    -0.067 C  
ENDBRANCH  17  18
BRANCH  17  21
HETATM   21  C   UNL     1     -10.155   5.604  73.824  1.00  0.00    -0.211 C  
HETATM   22 CL   UNL     1     -10.708   2.978  73.187  1.00  0.00    -0.262 Cl 
HETATM   23  C   UNL     1     -11.280   4.658  73.383  1.00  0.00    -0.338 C  
ENDBRANCH  17  21
ENDBRANCH  10  17
TORSDOF 6
ENDMDL
MODEL      186
REMARK 921   NORMALIZED FREE ENERGY PREDICTED BY IDOCK:   -3.67 KCAL/MOL
REMARK 922        TOTAL FREE ENERGY PREDICTED BY IDOCK:   -5.74 KCAL/MOL
REMARK 923 INTER-LIGAND FREE ENERGY PREDICTED BY IDOCK:   -5.32 KCAL/MOL
REMARK 924 INTRA-LIGAND FREE ENERGY PREDICTED BY IDOCK:   -0.41 KCAL/MOL
REMARK 927      BINDING AFFINITY PREDICTED BY RF-SCORE:    0.00 PKD
ROOT
HETATM    1  C   UNL     1      -9.914  10.008  65.328  1.00  0.00    -0.298 C  
HETATM    2  N   UNL     1      -9.747   9.072  66.418  1.00  0.00    -0.246 NA 
HETATM    3  C   UNL     1      -9.109   7.848  66.405  1.00  0.00    -0.179 A  
HETATM    4  C   UNL     1     -10.244   9.282  67.687  1.00  0.00    -0.230 A  
HETATM    5  N   UNL     1      -9.154   7.292  67.601  1.00  0.00    -0.125 NA 
HETATM    6  C   UNL     1     -10.976  10.311  68.285  1.00  0.00    -0.315 A  
HETATM    7  C   UNL     1      -9.861   8.155  68.394  1.00  0.00    -0.171 A  
HETATM    8  C   UNL     1     -11.306  10.158  69.648  1.00  0.00    -0.289 A  
HETATM    9  C   UNL     1     -10.214   8.029  69.744  1.00  0.00    -0.206 A  
HETATM   10  C   UNL     1     -10.931   9.039  70.412  1.00  0.00    -0.247 A  
ENDROOT
BRANCH   3  11
HETATM   11  C   UNL     1      -8.463   7.180  65.229  1.00  0.00    -0.060 C  
BRANCH  11  12
HETATM   12  C   UNL     1      -7.719   5.921  65.692  1.00  0.00    -0.097 C  
BRANCH  12  13
HETATM   13  C   UNL     1      -8.018   4.708  64.820  1.00  0.00    -0.096 C  
HETATM   14  O   UNL     1      -9.410   3.566  66.406  1.00  0.00    -0.171 OA 
HETATM   15  O   UNL     1     -10.298   4.049  64.390  1.00  0.00    -0.222 OA 
HETATM   16  C   UNL     1      -9.353   4.094  65.166  1.00  0.00    -0.164 C  
ENDBRANCH  12  13
ENDBRANCH  11  12
ENDBRANCH   3  11
BRANCH  10  17
HETATM   17  N   UNL     1     -11.225   8.927  71.769  1.00  0.00    -0.340 NA 
BRANCH  17  18
HETATM   18  C   UNL     1     -10.336   8.248  72.729  1.00  0.00    -0.260 C  
HETATM   19 CL   UNL     1     -11.162   5.749  71.896  1.00  0.00    -0.313 Cl 
HETATM   20  C   UNL     1     -10.886   6.907  73.226  1.00  0.00    -0.290 C  
ENDBRANCH  17  18
BRANCH  17  21
HETATM   21  C   UNL     1     -12.543   9.363  72.277  1.00  0.00    -0.306 C  
HETATM   22 CL   UNL     1     -13.864   7.129  71.344  1.00  0.00    -0.428 Cl 
HETATM   23  C   UNL     1     -13.717   8.908  71.401  1.00  0.00    -0.272 C  
ENDBRANCH  17  21
ENDBRANCH  10  17
TORSDOF 6
ENDMDL
MODEL      187
REMARK 921   NORMALIZED FREE ENERGY PREDICTED BY IDOCK:   -3.67 KCAL/MOL
REMARK 922        TOTAL FREE ENERGY PREDICTED BY IDOCK:   -5.73 KCAL/MOL
REMARK 923 INTER-LIGAND FREE ENERGY PREDICTED BY IDOCK:   -5.80 KCAL/MOL
REMARK 924 INTRA-LIGAND FREE ENERGY PREDICTED BY IDOCK:    0.06 KCAL/MOL
REMARK 927      BINDING AFFINITY PREDICTED BY RF-SCORE:    0.00 PKD
ROOT
HETATM    1  C   UNL     1     -11.753  12.007  66.050  1.00  0.00    -0.241 C  
HETATM    2  N   UNL     1     -11.160  12.804  67.100  1.00  0.00    -0.267 NA 
HETATM    3  C   UNL     1     -11.224  12.606  68.464  1.00  0.00    -0.279 A  
HETATM    4  C   UNL     1     -10.420  13.945  66.868  1.00  0.00    -0.276 A  
HETATM    5  N   UNL     1     -10.543  13.542  69.099  1.00  0.00    -0.098 NA 
HETATM    6  C   UNL     1     -10.037  14.635  65.714  1.00  0.00    -0.364 A  
HETATM    7  C   UNL     1     -10.057  14.379  68.131  1.00  0.00    -0.226 A  
HETATM    8  C   UNL     1      -9.257  15.797  65.890  1.00  0.00    -0.337 A  
HETATM    9  C   UNL     1      -9.289  15.543  68.271  1.00  0.00    -0.192 A  
HETATM   10  C   UNL     1      -8.851  16.272  67.149  1.00  0.00    -0.193 A  
ENDROOT
BRANCH   3  11
HETATM   11  C   UNL     1     -11.966  11.522  69.184  1.00  0.00    -0.386 C  
BRANCH  11  12
HETATM   12  C   UNL     1     -11.017  10.353  69.480  1.00  0.00    -0.307 C  
BRANCH  12  13
HETATM   13  C   UNL     1     -11.561   9.409  70.546  1.00  0.00    -0.291 C  
HETATM   14  O   UNL     1     -10.176   7.533  69.983  1.00  0.00    -0.206 OA 
HETATM   15  O   UNL     1     -10.061   8.325  72.091  1.00  0.00    -0.221 OA 
HETATM   16  C   UNL     1     -10.527   8.391  70.963  1.00  0.00    -0.206 C  
ENDBRANCH  12  13
ENDBRANCH  11  12
ENDBRANCH   3  11
BRANCH  10  17
HETATM   17  N   UNL     1      -8.040  17.394  67.300  1.00  0.00    -0.197 NA 
BRANCH  17  18
HETATM   18  C   UNL     1      -8.574  18.764  67.396  1.00  0.00    -0.273 C  
HETATM   19 CL   UNL     1      -6.886  19.395  69.488  1.00  0.00    -0.338 Cl 
HETATM   20  C   UNL     1      -8.539  19.335  68.818  1.00  0.00    -0.340 C  
ENDBRANCH  17  18
BRANCH  17  21
HETATM   21  C   UNL     1      -6.570  17.258  67.212  1.00  0.00    -0.159 C  
HETATM   22 CL   UNL     1      -6.254  19.516  65.661  1.00  0.00    -0.219 Cl 
HETATM   23  C   UNL     1      -5.987  17.765  65.887  1.00  0.00    -0.180 C  
ENDBRANCH  17  21
ENDBRANCH  10  17
TORSDOF 6
ENDMDL
MODEL      188
REMARK 921   NORMALIZED FREE ENERGY PREDICTED BY IDOCK:   -3.66 KCAL/MOL
REMARK 922        TOTAL FREE ENERGY PREDICTED BY IDOCK:   -5.72 KCAL/MOL
REMARK 923 INTER-LIGAND FREE ENERGY PREDICTED BY IDOCK:   -5.20 KCAL/MOL
REMARK 924 INTRA-LIGAND FREE ENERGY PREDICTED BY IDOCK:   -0.52 KCAL/MOL
REMARK 927      BINDING AFFINITY PREDICTED BY RF-SCORE:    0.00 PKD
ROOT
HETATM    1  C   UNL     1     -11.066   6.226  69.674  1.00  0.00    -0.412 C  
HETATM    2  N   UNL     1     -11.013   7.602  70.114  1.00  0.00    -0.256 NA 
HETATM    3  C   UNL     1     -11.071   8.092  71.403  1.00  0.00    -0.247 A  
HETATM    4  C   UNL     1     -10.904   8.675  69.254  1.00  0.00    -0.065 A  
HETATM    5  N   UNL     1     -10.979   9.408  71.401  1.00  0.00    -0.361 NA 
HETATM    6  C   UNL     1     -10.822   8.800  67.864  1.00  0.00    -0.078 A  
HETATM    7  C   UNL     1     -10.891   9.780  70.087  1.00  0.00    -0.291 A  
HETATM    8  C   UNL     1     -10.718  10.106  67.341  1.00  0.00    -0.336 A  
HETATM    9  C   UNL     1     -10.796  11.064  69.534  1.00  0.00    -0.267 A  
HETATM   10  C   UNL     1     -10.687  11.260  68.144  1.00  0.00    -0.204 A  
ENDROOT
BRANCH   3  11
HETATM   11  C   UNL     1     -11.244   7.298  72.662  1.00  0.00    -0.355 C  
BRANCH  11  12
HETATM   12  C   UNL     1     -10.006   6.424  72.898  1.00  0.00    -0.186 C  
BRANCH  12  13
HETATM   13  C   UNL     1      -8.790   7.231  73.334  1.00  0.00    -0.194 C  
HETATM   14  O   UNL     1      -7.137   5.766  72.398  1.00  0.00    -0.081 OA 
HETATM   15  O   UNL     1      -7.138   7.916  71.716  1.00  0.00    -0.062 OA 
HETATM   16  C   UNL     1      -7.623   7.025  72.398  1.00  0.00    -0.090 C  
ENDBRANCH  12  13
ENDBRANCH  11  12
ENDBRANCH   3  11
BRANCH  10  17
HETATM   17  N   UNL     1     -10.535  12.537  67.613  1.00  0.00    -0.215 NA 
BRANCH  17  18
HETATM   18  C   UNL     1     -11.556  13.182  66.768  1.00  0.00    -0.366 C  
HETATM   19 CL   UNL     1     -10.549  12.024  64.473  1.00  0.00    -0.334 Cl 
HETATM   20  C   UNL     1     -11.068  13.491  65.348  1.00  0.00    -0.293 C  
ENDBRANCH  17  18
BRANCH  17  21
HETATM   21  C   UNL     1      -9.246  13.247  67.755  1.00  0.00    -0.209 C  
HETATM   22 CL   UNL     1      -7.814  11.338  66.374  1.00  0.00    -0.142 Cl 
HETATM   23  C   UNL     1      -8.038  12.307  67.857  1.00  0.00    -0.155 C  
ENDBRANCH  17  21
ENDBRANCH  10  17
TORSDOF 6
ENDMDL
MODEL      189
REMARK 921   NORMALIZED FREE ENERGY PREDICTED BY IDOCK:   -3.65 KCAL/MOL
REMARK 922        TOTAL FREE ENERGY PREDICTED BY IDOCK:   -5.70 KCAL/MOL
REMARK 923 INTER-LIGAND FREE ENERGY PREDICTED BY IDOCK:   -5.38 KCAL/MOL
REMARK 924 INTRA-LIGAND FREE ENERGY PREDICTED BY IDOCK:   -0.33 KCAL/MOL
REMARK 927      BINDING AFFINITY PREDICTED BY RF-SCORE:    0.00 PKD
ROOT
HETATM    1  C   UNL     1     -11.139  10.414  67.406  1.00  0.00    -0.226 C  
HETATM    2  N   UNL     1     -10.329   9.387  68.023  1.00  0.00    -0.208 NA 
HETATM    3  C   UNL     1      -9.475   8.490  67.415  1.00  0.00    -0.150 A  
HETATM    4  C   UNL     1     -10.309   9.143  69.381  1.00  0.00    -0.216 A  
HETATM    5  N   UNL     1      -8.901   7.715  68.316  1.00  0.00    -0.126 NA 
HETATM    6  C   UNL     1     -10.965   9.709  70.478  1.00  0.00    -0.374 A  
HETATM    7  C   UNL     1      -9.417   8.096  69.526  1.00  0.00    -0.156 A  
HETATM    8  C   UNL     1     -10.673   9.170  71.749  1.00  0.00    -0.405 A  
HETATM    9  C   UNL     1      -9.157   7.577  70.802  1.00  0.00    -0.154 A  
HETATM   10  C   UNL     1      -9.766   8.116  71.951  1.00  0.00    -0.205 A  
ENDROOT
BRANCH   3  11
HETATM   11  C   UNL     1      -9.215   8.346  65.947  1.00  0.00    -0.217 C  
BRANCH  11  12
HETATM   12  C   UNL     1      -8.923   9.722  65.334  1.00  0.00    -0.229 C  
BRANCH  12  13
HETATM   13  C   UNL     1      -9.092   9.739  63.820  1.00  0.00    -0.270 C  
HETATM   14  O   UNL     1     -11.059  11.114  63.780  1.00  0.00    -0.329 OA 
HETATM   15  O   UNL     1      -9.253  11.835  62.638  1.00  0.00    -0.303 OA 
HETATM   16  C   UNL     1      -9.783  11.000  63.355  1.00  0.00    -0.348 C  
ENDBRANCH  12  13
ENDBRANCH  11  12
ENDBRANCH   3  11
BRANCH  10  17
HETATM   17  N   UNL     1      -9.454   7.629  73.218  1.00  0.00    -0.234 NA 
BRANCH  17  18
HETATM   18  C   UNL     1     -10.370   6.778  73.999  1.00  0.00    -0.347 C  
HETATM   19 CL   UNL     1      -9.911   4.597  72.370  1.00  0.00    -0.206 Cl 
HETATM   20  C   UNL     1     -11.068   5.702  73.160  1.00  0.00    -0.270 C  
ENDBRANCH  17  18
BRANCH  17  21
HETATM   21  C   UNL     1      -8.227   8.088  73.903  1.00  0.00    -0.249 C  
HETATM   22 CL   UNL     1      -6.606   6.225  72.677  1.00  0.00    -0.063 Cl 
HETATM   23  C   UNL     1      -7.224   6.961  74.182  1.00  0.00    -0.092 C  
ENDBRANCH  17  21
ENDBRANCH  10  17
TORSDOF 6
ENDMDL
MODEL      190
REMARK 921   NORMALIZED FREE ENERGY PREDICTED BY IDOCK:   -3.64 KCAL/MOL
REMARK 922        TOTAL FREE ENERGY PREDICTED BY IDOCK:   -5.69 KCAL/MOL
REMARK 923 INTER-LIGAND FREE ENERGY PREDICTED BY IDOCK:   -4.91 KCAL/MOL
REMARK 924 INTRA-LIGAND FREE ENERGY PREDICTED BY IDOCK:   -0.78 KCAL/MOL
REMARK 927      BINDING AFFINITY PREDICTED BY RF-SCORE:    0.00 PKD
ROOT
HETATM    1  C   UNL     1     -10.657   7.515  67.006  1.00  0.00    -0.339 C  
HETATM    2  N   UNL     1     -10.505   8.731  67.774  1.00  0.00    -0.241 NA 
HETATM    3  C   UNL     1     -10.700   8.920  69.126  1.00  0.00    -0.143 A  
HETATM    4  C   UNL     1     -10.135   9.940  67.222  1.00  0.00    -0.211 A  
HETATM    5  N   UNL     1     -10.448  10.171  69.459  1.00  0.00    -0.224 NA 
HETATM    6  C   UNL     1      -9.825  10.362  65.926  1.00  0.00    -0.294 A  
HETATM    7  C   UNL     1     -10.114  10.813  68.297  1.00  0.00    -0.171 A  
HETATM    8  C   UNL     1      -9.483  11.720  65.757  1.00  0.00    -0.232 A  
HETATM    9  C   UNL     1      -9.779  12.158  68.092  1.00  0.00    -0.208 A  
HETATM   10  C   UNL     1      -9.435  12.643  66.816  1.00  0.00    -0.237 A  
ENDROOT
BRANCH   3  11
HETATM   11  C   UNL     1     -11.160   7.899  70.122  1.00  0.00    -0.204 C  
BRANCH  11  12
HETATM   12  C   UNL     1     -10.012   6.933  70.442  1.00  0.00    -0.190 C  
BRANCH  12  13
HETATM   13  C   UNL     1      -8.743   7.653  70.881  1.00  0.00    -0.138 C  
HETATM   14  O   UNL     1      -9.489   8.200  73.095  1.00  0.00    -0.267 OA 
HETATM   15  O   UNL     1      -7.599   6.985  72.896  1.00  0.00    -0.084 OA 
HETATM   16  C   UNL     1      -8.543   7.561  72.375  1.00  0.00    -0.122 C  
ENDBRANCH  12  13
ENDBRANCH  11  12
ENDBRANCH   3  11
BRANCH  10  17
HETATM   17  N   UNL     1      -9.048  13.968  66.637  1.00  0.00    -0.234 NA 
BRANCH  17  18
HETATM   18  C   UNL     1      -9.801  14.918  65.799  1.00  0.00    -0.348 C  
HETATM   19 CL   UNL     1     -11.736  15.268  67.738  1.00  0.00    -0.284 Cl 
HETATM   20  C   UNL     1     -11.313  14.886  66.046  1.00  0.00    -0.306 C  
ENDBRANCH  17  18
BRANCH  17  21
HETATM   21  C   UNL     1      -7.751  14.437  67.172  1.00  0.00    -0.034 C  
HETATM   22 CL   UNL     1      -8.872  15.631  69.391  1.00  0.00    -0.262 Cl 
HETATM   23  C   UNL     1      -7.848  15.765  67.934  1.00  0.00    -0.139 C  
ENDBRANCH  17  21
ENDBRANCH  10  17
TORSDOF 6
ENDMDL
MODEL      191
REMARK 921   NORMALIZED FREE ENERGY PREDICTED BY IDOCK:   -3.64 KCAL/MOL
REMARK 922        TOTAL FREE ENERGY PREDICTED BY IDOCK:   -5.69 KCAL/MOL
REMARK 923 INTER-LIGAND FREE ENERGY PREDICTED BY IDOCK:   -4.90 KCAL/MOL
REMARK 924 INTRA-LIGAND FREE ENERGY PREDICTED BY IDOCK:   -0.79 KCAL/MOL
REMARK 927      BINDING AFFINITY PREDICTED BY RF-SCORE:    0.00 PKD
ROOT
HETATM    1  C   UNL     1      -5.865  13.634  70.408  1.00  0.00    -0.161 C  
HETATM    2  N   UNL     1      -6.555  14.189  69.266  1.00  0.00    -0.115 NA 
HETATM    3  C   UNL     1      -7.195  13.520  68.244  1.00  0.00    -0.111 A  
HETATM    4  C   UNL     1      -6.661  15.543  69.023  1.00  0.00    -0.123 A  
HETATM    5  N   UNL     1      -7.720  14.376  67.388  1.00  0.00    -0.191 NA 
HETATM    6  C   UNL     1      -6.208  16.687  69.686  1.00  0.00    -0.226 A  
HETATM    7  C   UNL     1      -7.386  15.622  67.846  1.00  0.00    -0.137 A  
HETATM    8  C   UNL     1      -6.527  17.934  69.108  1.00  0.00    -0.243 A  
HETATM    9  C   UNL     1      -7.677  16.876  67.293  1.00  0.00    -0.196 A  
HETATM   10  C   UNL     1      -7.270  18.068  67.922  1.00  0.00    -0.222 A  
ENDROOT
BRANCH   3  11
HETATM   11  C   UNL     1      -7.292  12.036  68.060  1.00  0.00    -0.102 C  
BRANCH  11  12
HETATM   12  C   UNL     1      -8.610  11.685  67.358  1.00  0.00    -0.149 C  
BRANCH  12  13
HETATM   13  C   UNL     1      -8.424  10.690  66.219  1.00  0.00    -0.155 C  
HETATM   14  O   UNL     1      -8.399   8.715  67.581  1.00  0.00    -0.119 OA 
HETATM   15  O   UNL     1      -9.954   8.845  65.952  1.00  0.00    -0.245 OA 
HETATM   16  C   UNL     1      -9.017   9.343  66.559  1.00  0.00    -0.148 C  
ENDBRANCH  12  13
ENDBRANCH  11  12
ENDBRANCH   3  11
BRANCH  10  17
HETATM   17  N   UNL     1      -7.616  19.308  67.393  1.00  0.00    -0.233 NA 
BRANCH  17  18
HETATM   18  C   UNL     1      -6.814  19.995  66.364  1.00  0.00    -0.229 C  
HETATM   19 CL   UNL     1      -5.182  21.165  68.259  1.00  0.00    -0.329 Cl 
HETATM   20  C   UNL     1      -6.240  21.337  66.831  1.00  0.00    -0.330 C  
ENDBRANCH  17  18
BRANCH  17  21
HETATM   21  C   UNL     1      -8.746  20.068  67.970  1.00  0.00    -0.216 C  
HETATM   22 CL   UNL     1     -10.650  18.782  66.446  1.00  0.00    -0.455 Cl 
HETATM   23  C   UNL     1      -9.892  20.308  66.979  1.00  0.00    -0.467 C  
ENDBRANCH  17  21
ENDBRANCH  10  17
TORSDOF 6
ENDMDL
MODEL      192
REMARK 921   NORMALIZED FREE ENERGY PREDICTED BY IDOCK:   -3.63 KCAL/MOL
REMARK 922        TOTAL FREE ENERGY PREDICTED BY IDOCK:   -5.68 KCAL/MOL
REMARK 923 INTER-LIGAND FREE ENERGY PREDICTED BY IDOCK:   -5.08 KCAL/MOL
REMARK 924 INTRA-LIGAND FREE ENERGY PREDICTED BY IDOCK:   -0.60 KCAL/MOL
REMARK 927      BINDING AFFINITY PREDICTED BY RF-SCORE:    0.00 PKD
ROOT
HETATM    1  C   UNL     1      -6.815   8.213  67.834  1.00  0.00    -0.073 C  
HETATM    2  N   UNL     1      -8.155   8.602  68.212  1.00  0.00    -0.117 NA 
HETATM    3  C   UNL     1      -8.993   8.004  69.132  1.00  0.00    -0.145 A  
HETATM    4  C   UNL     1      -8.822   9.676  67.661  1.00  0.00    -0.125 A  
HETATM    5  N   UNL     1     -10.136   8.659  69.209  1.00  0.00    -0.196 NA 
HETATM    6  C   UNL     1      -8.497  10.627  66.690  1.00  0.00    -0.137 A  
HETATM    7  C   UNL     1     -10.050   9.679  68.300  1.00  0.00    -0.177 A  
HETATM    8  C   UNL     1      -9.473  11.599  66.389  1.00  0.00    -0.232 A  
HETATM    9  C   UNL     1     -11.002  10.653  67.971  1.00  0.00    -0.336 A  
HETATM   10  C   UNL     1     -10.730  11.653  67.017  1.00  0.00    -0.253 A  
ENDROOT
BRANCH   3  11
HETATM   11  C   UNL     1      -8.714   6.773  69.938  1.00  0.00    -0.141 C  
BRANCH  11  12
HETATM   12  C   UNL     1      -8.629   5.554  69.011  1.00  0.00    -0.103 C  
BRANCH  12  13
HETATM   13  C   UNL     1      -9.644   4.474  69.363  1.00  0.00    -0.264 C  
HETATM   14  O   UNL     1      -9.461   3.245  67.310  1.00  0.00    -0.203 OA 
HETATM   15  O   UNL     1      -9.038   2.144  69.233  1.00  0.00    -0.095 OA 
HETATM   16  C   UNL     1      -9.341   3.176  68.653  1.00  0.00    -0.171 C  
ENDBRANCH  12  13
ENDBRANCH  11  12
ENDBRANCH   3  11
BRANCH  10  17
HETATM   17  N   UNL     1     -11.662  12.649  66.742  1.00  0.00    -0.382 NA 
BRANCH  17  18
HETATM   18  C   UNL     1     -12.232  13.525  67.782  1.00  0.00    -0.157 C  
HETATM   19 CL   UNL     1      -9.861  14.911  68.071  1.00  0.00    -0.214 Cl 
HETATM   20  C   UNL     1     -11.202  13.997  68.815  1.00  0.00    -0.271 C  
ENDBRANCH  17  18
BRANCH  17  21
HETATM   21  C   UNL     1     -12.242  12.763  65.387  1.00  0.00    -0.478 C  
HETATM   22 CL   UNL     1     -10.894  15.094  64.790  1.00  0.00    -0.414 Cl 
HETATM   23  C   UNL     1     -12.442  14.213  64.927  1.00  0.00    -0.401 C  
ENDBRANCH  17  21
ENDBRANCH  10  17
TORSDOF 6
ENDMDL
MODEL      193
REMARK 921   NORMALIZED FREE ENERGY PREDICTED BY IDOCK:   -3.58 KCAL/MOL
REMARK 922        TOTAL FREE ENERGY PREDICTED BY IDOCK:   -5.61 KCAL/MOL
REMARK 923 INTER-LIGAND FREE ENERGY PREDICTED BY IDOCK:   -4.89 KCAL/MOL
REMARK 924 INTRA-LIGAND FREE ENERGY PREDICTED BY IDOCK:   -0.72 KCAL/MOL
REMARK 927      BINDING AFFINITY PREDICTED BY RF-SCORE:    0.00 PKD
ROOT
HETATM    1  C   UNL     1     -10.680  11.480  63.699  1.00  0.00    -0.424 C  
HETATM    2  N   UNL     1     -10.555  11.110  65.091  1.00  0.00    -0.275 NA 
HETATM    3  C   UNL     1     -11.078  11.748  66.197  1.00  0.00    -0.307 A  
HETATM    4  C   UNL     1      -9.842  10.013  65.528  1.00  0.00    -0.303 A  
HETATM    5  N   UNL     1     -10.756  11.098  67.300  1.00  0.00    -0.243 NA 
HETATM    6  C   UNL     1      -9.097   9.020  64.885  1.00  0.00    -0.132 A  
HETATM    7  C   UNL     1      -9.984  10.039  66.904  1.00  0.00    -0.209 A  
HETATM    8  C   UNL     1      -8.499   8.036  65.699  1.00  0.00    -0.162 A  
HETATM    9  C   UNL     1      -9.368   9.052  67.685  1.00  0.00    -0.154 A  
HETATM   10  C   UNL     1      -8.624   8.011  67.099  1.00  0.00    -0.124 A  
ENDROOT
BRANCH   3  11
HETATM   11  C   UNL     1     -11.879  13.014  66.213  1.00  0.00    -0.466 C  
BRANCH  11  12
HETATM   12  C   UNL     1     -10.980  14.192  66.607  1.00  0.00    -0.303 C  
BRANCH  12  13
HETATM   13  C   UNL     1     -10.386  14.038  68.001  1.00  0.00    -0.240 C  
HETATM   14  O   UNL     1     -12.109  15.233  69.167  1.00  0.00    -0.304 OA 
HETATM   15  O   UNL     1     -11.706  13.104  69.790  1.00  0.00    -0.299 OA 
HETATM   16  C   UNL     1     -11.458  14.055  69.065  1.00  0.00    -0.296 C  
ENDBRANCH  12  13
ENDBRANCH  11  12
ENDBRANCH   3  11
BRANCH  10  17
HETATM   17  N   UNL     1      -8.066   7.004  67.882  1.00  0.00    -0.114 NA 
BRANCH  17  18
HETATM   18  C   UNL     1      -6.617   6.742  67.941  1.00  0.00    -0.059 C  
HETATM   19 CL   UNL     1      -6.182   8.894  69.616  1.00  0.00    -0.039 Cl 
HETATM   20  C   UNL     1      -5.773   8.010  68.120  1.00  0.00    -0.034 C  
ENDBRANCH  17  18
BRANCH  17  21
HETATM   21  C   UNL     1      -8.944   6.041  68.581  1.00  0.00    -0.118 C  
HETATM   22 CL   UNL     1      -8.997   7.486  70.929  1.00  0.00    -0.148 Cl 
HETATM   23  C   UNL     1      -8.671   5.945  70.087  1.00  0.00    -0.141 C  
ENDBRANCH  17  21
ENDBRANCH  10  17
TORSDOF 6
ENDMDL
MODEL      194
REMARK 921   NORMALIZED FREE ENERGY PREDICTED BY IDOCK:   -3.58 KCAL/MOL
REMARK 922        TOTAL FREE ENERGY PREDICTED BY IDOCK:   -5.61 KCAL/MOL
REMARK 923 INTER-LIGAND FREE ENERGY PREDICTED BY IDOCK:   -4.91 KCAL/MOL
REMARK 924 INTRA-LIGAND FREE ENERGY PREDICTED BY IDOCK:   -0.71 KCAL/MOL
REMARK 927      BINDING AFFINITY PREDICTED BY RF-SCORE:    0.00 PKD
ROOT
HETATM    1  C   UNL     1      -6.417  16.818  67.932  1.00  0.00    -0.138 C  
HETATM    2  N   UNL     1      -7.553  15.972  68.225  1.00  0.00    -0.134 NA 
HETATM    3  C   UNL     1      -8.789  16.339  68.716  1.00  0.00    -0.243 A  
HETATM    4  C   UNL     1      -7.548  14.604  68.057  1.00  0.00    -0.128 A  
HETATM    5  N   UNL     1      -9.568  15.281  68.840  1.00  0.00    -0.209 NA 
HETATM    6  C   UNL     1      -6.594  13.683  67.615  1.00  0.00    -0.176 A  
HETATM    7  C   UNL     1      -8.813  14.207  68.453  1.00  0.00    -0.187 A  
HETATM    8  C   UNL     1      -6.977  12.326  67.582  1.00  0.00    -0.128 A  
HETATM    9  C   UNL     1      -9.159  12.849  68.418  1.00  0.00    -0.126 A  
HETATM   10  C   UNL     1      -8.252  11.873  67.961  1.00  0.00    -0.157 A  
ENDROOT
BRANCH   3  11
HETATM   11  C   UNL     1      -9.234  17.717  69.100  1.00  0.00     0.070 C  
BRANCH  11  12
HETATM   12  C   UNL     1     -10.471  18.109  68.283  1.00  0.00    -0.333 C  
BRANCH  12  13
HETATM   13  C   UNL     1     -10.121  18.897  67.026  1.00  0.00    -0.408 C  
HETATM   14  O   UNL     1      -9.485  17.009  65.688  1.00  0.00    -0.526 OA 
HETATM   15  O   UNL     1     -11.138  18.334  64.914  1.00  0.00    -0.615 OA 
HETATM   16  C   UNL     1     -10.318  18.067  65.780  1.00  0.00    -0.175 C  
ENDBRANCH  12  13
ENDBRANCH  11  12
ENDBRANCH   3  11
BRANCH  10  17
HETATM   17  N   UNL     1      -8.628  10.536  67.876  1.00  0.00    -0.122 NA 
BRANCH  17  18
HETATM   18  C   UNL     1      -7.942   9.460  68.615  1.00  0.00    -0.092 C  
HETATM   19 CL   UNL     1      -9.686   9.659  70.746  1.00  0.00    -0.273 Cl 
HETATM   20  C   UNL     1      -8.009   9.626  70.137  1.00  0.00    -0.176 C  
ENDBRANCH  17  18
BRANCH  17  21
HETATM   21  C   UNL     1      -9.656  10.118  66.898  1.00  0.00    -0.177 C  
HETATM   22 CL   UNL     1     -11.768  10.957  68.459  1.00  0.00    -0.356 Cl 
HETATM   23  C   UNL     1     -10.964   9.649  67.548  1.00  0.00    -0.096 C  
ENDBRANCH  17  21
ENDBRANCH  10  17
TORSDOF 6
ENDMDL
MODEL      195
REMARK 921   NORMALIZED FREE ENERGY PREDICTED BY IDOCK:   -3.55 KCAL/MOL
REMARK 922        TOTAL FREE ENERGY PREDICTED BY IDOCK:   -5.57 KCAL/MOL
REMARK 923 INTER-LIGAND FREE ENERGY PREDICTED BY IDOCK:   -5.47 KCAL/MOL
REMARK 924 INTRA-LIGAND FREE ENERGY PREDICTED BY IDOCK:   -0.10 KCAL/MOL
REMARK 927      BINDING AFFINITY PREDICTED BY RF-SCORE:    0.00 PKD
ROOT
HETATM    1  C   UNL     1      -6.843  10.212  70.026  1.00  0.00    -0.137 C  
HETATM    2  N   UNL     1      -8.198  10.272  69.525  1.00  0.00    -0.166 NA 
HETATM    3  C   UNL     1      -9.280   9.497  69.890  1.00  0.00    -0.220 A  
HETATM    4  C   UNL     1      -8.613  11.153  68.549  1.00  0.00    -0.157 A  
HETATM    5  N   UNL     1     -10.356   9.861  69.217  1.00  0.00    -0.205 NA 
HETATM    6  C   UNL     1      -7.974  12.149  67.805  1.00  0.00    -0.151 A  
HETATM    7  C   UNL     1      -9.957  10.867  68.379  1.00  0.00    -0.178 A  
HETATM    8  C   UNL     1      -8.759  12.859  66.873  1.00  0.00    -0.164 A  
HETATM    9  C   UNL     1     -10.706  11.584  67.438  1.00  0.00    -0.275 A  
HETATM   10  C   UNL     1     -10.129  12.615  66.672  1.00  0.00    -0.241 A  
ENDROOT
BRANCH   3  11
HETATM   11  C   UNL     1      -9.291   8.372  70.879  1.00  0.00    -0.201 C  
BRANCH  11  12
HETATM   12  C   UNL     1      -8.843   7.075  70.193  1.00  0.00    -0.145 C  
BRANCH  12  13
HETATM   13  C   UNL     1      -7.952   6.217  71.083  1.00  0.00    -0.116 C  
HETATM   14  O   UNL     1      -7.325   7.961  72.607  1.00  0.00    -0.083 OA 
HETATM   15  O   UNL     1      -8.329   6.133  73.464  1.00  0.00    -0.118 OA 
HETATM   16  C   UNL     1      -7.906   6.748  72.496  1.00  0.00    -0.100 C  
ENDBRANCH  12  13
ENDBRANCH  11  12
ENDBRANCH   3  11
BRANCH  10  17
HETATM   17  N   UNL     1     -10.899  13.359  65.782  1.00  0.00    -0.273 NA 
BRANCH  17  18
HETATM   18  C   UNL     1     -10.540  13.535  64.363  1.00  0.00    -0.377 C  
HETATM   19 CL   UNL     1     -12.560  11.849  63.526  1.00  0.00    -0.655 Cl 
HETATM   20  C   UNL     1     -10.834  12.303  63.500  1.00  0.00    -0.454 C  
ENDBRANCH  17  18
BRANCH  17  21
HETATM   21  C   UNL     1     -12.050  14.144  66.278  1.00  0.00    -0.442 C  
HETATM   22 CL   UNL     1     -10.487  16.204  67.237  1.00  0.00    -0.306 Cl 
HETATM   23  C   UNL     1     -11.734  14.962  67.537  1.00  0.00    -0.308 C  
ENDBRANCH  17  21
ENDBRANCH  10  17
TORSDOF 6
ENDMDL
MODEL      196
REMARK 921   NORMALIZED FREE ENERGY PREDICTED BY IDOCK:   -3.53 KCAL/MOL
REMARK 922        TOTAL FREE ENERGY PREDICTED BY IDOCK:   -5.55 KCAL/MOL
REMARK 923 INTER-LIGAND FREE ENERGY PREDICTED BY IDOCK:   -4.74 KCAL/MOL
REMARK 924 INTRA-LIGAND FREE ENERGY PREDICTED BY IDOCK:   -0.80 KCAL/MOL
REMARK 927      BINDING AFFINITY PREDICTED BY RF-SCORE:    0.00 PKD
ROOT
HETATM    1  C   UNL     1      -7.020   9.248  70.266  1.00  0.00    -0.076 C  
HETATM    2  N   UNL     1      -8.292   9.338  69.585  1.00  0.00    -0.129 NA 
HETATM    3  C   UNL     1      -9.379   8.495  69.688  1.00  0.00    -0.157 A  
HETATM    4  C   UNL     1      -8.604  10.329  68.678  1.00  0.00    -0.128 A  
HETATM    5  N   UNL     1     -10.365   8.915  68.918  1.00  0.00    -0.210 NA 
HETATM    6  C   UNL     1      -7.912  11.430  68.166  1.00  0.00    -0.133 A  
HETATM    7  C   UNL     1      -9.896  10.033  68.280  1.00  0.00    -0.146 A  
HETATM    8  C   UNL     1      -8.589  12.236  67.227  1.00  0.00    -0.183 A  
HETATM    9  C   UNL     1     -10.537  10.848  67.338  1.00  0.00    -0.285 A  
HETATM   10  C   UNL     1      -9.904  11.985  66.800  1.00  0.00    -0.204 A  
ENDROOT
BRANCH   3  11
HETATM   11  C   UNL     1      -9.479   7.249  70.515  1.00  0.00    -0.165 C  
BRANCH  11  12
HETATM   12  C   UNL     1      -9.791   6.050  69.611  1.00  0.00    -0.205 C  
BRANCH  12  13
HETATM   13  C   UNL     1      -8.545   5.259  69.233  1.00  0.00    -0.102 C  
HETATM   14  O   UNL     1      -9.513   4.097  67.370  1.00  0.00    -0.163 OA 
HETATM   15  O   UNL     1      -7.680   5.352  66.984  1.00  0.00    -0.098 OA 
HETATM   16  C   UNL     1      -8.525   4.929  67.759  1.00  0.00    -0.104 C  
ENDBRANCH  12  13
ENDBRANCH  11  12
ENDBRANCH   3  11
BRANCH  10  17
HETATM   17  N   UNL     1     -10.574  12.819  65.909  1.00  0.00    -0.270 NA 
BRANCH  17  18
HETATM   18  C   UNL     1     -10.583  14.287  66.036  1.00  0.00    -0.300 C  
HETATM   19 CL   UNL     1     -11.892  14.181  68.464  1.00  0.00    -0.383 Cl 
HETATM   20  C   UNL     1     -11.795  14.827  66.803  1.00  0.00    -0.257 C  
ENDBRANCH  17  18
BRANCH  17  21
HETATM   21  C   UNL     1     -11.447  12.237  64.867  1.00  0.00    -0.332 C  
HETATM   22 CL   UNL     1      -9.390  10.900  63.608  1.00  0.00    -0.258 Cl 
HETATM   23  C   UNL     1     -10.747  12.056  63.514  1.00  0.00    -0.455 C  
ENDBRANCH  17  21
ENDBRANCH  10  17
TORSDOF 6
ENDMDL
MODEL      197
REMARK 921   NORMALIZED FREE ENERGY PREDICTED BY IDOCK:   -3.51 KCAL/MOL
REMARK 922        TOTAL FREE ENERGY PREDICTED BY IDOCK:   -5.51 KCAL/MOL
REMARK 923 INTER-LIGAND FREE ENERGY PREDICTED BY IDOCK:   -5.72 KCAL/MOL
REMARK 924 INTRA-LIGAND FREE ENERGY PREDICTED BY IDOCK:    0.21 KCAL/MOL
REMARK 927      BINDING AFFINITY PREDICTED BY RF-SCORE:    0.00 PKD
ROOT
HETATM    1  C   UNL     1      -7.668   8.508  71.288  1.00  0.00    -0.108 C  
HETATM    2  N   UNL     1      -8.971   9.062  70.995  1.00  0.00    -0.230 NA 
HETATM    3  C   UNL     1     -10.150   8.891  71.691  1.00  0.00    -0.341 A  
HETATM    4  C   UNL     1      -9.229   9.871  69.909  1.00  0.00    -0.212 A  
HETATM    5  N   UNL     1     -11.126   9.569  71.118  1.00  0.00    -0.352 NA 
HETATM    6  C   UNL     1      -8.448  10.369  68.861  1.00  0.00    -0.144 A  
HETATM    7  C   UNL     1     -10.577  10.164  70.013  1.00  0.00    -0.287 A  
HETATM    8  C   UNL     1      -9.092  11.191  67.914  1.00  0.00    -0.150 A  
HETATM    9  C   UNL     1     -11.189  10.976  69.049  1.00  0.00    -0.320 A  
HETATM   10  C   UNL     1     -10.456  11.528  67.982  1.00  0.00    -0.189 A  
ENDROOT
BRANCH   3  11
HETATM   11  C   UNL     1     -10.363   8.047  72.910  1.00  0.00    -0.397 C  
BRANCH  11  12
HETATM   12  C   UNL     1     -10.301   6.562  72.531  1.00  0.00    -0.216 C  
BRANCH  12  13
HETATM   13  C   UNL     1     -10.502   5.641  73.728  1.00  0.00    -0.295 C  
HETATM   14  O   UNL     1     -12.485   4.562  72.914  1.00  0.00     0.292 OA 
HETATM   15  O   UNL     1     -10.712   3.260  73.409  1.00  0.00    -0.172 OA 
HETATM   16  C   UNL     1     -11.217   4.370  73.334  1.00  0.00    -0.295 C  
ENDBRANCH  12  13
ENDBRANCH  11  12
ENDBRANCH   3  11
BRANCH  10  17
HETATM   17  N   UNL     1     -11.063  12.380  67.064  1.00  0.00    -0.264 NA 
BRANCH  17  18
HETATM   18  C   UNL     1     -11.082  12.117  65.614  1.00  0.00    -0.316 C  
HETATM   19 CL   UNL     1     -12.777  14.243  65.136  1.00  0.00    -0.402 Cl 
HETATM   20  C   UNL     1     -12.400  12.509  64.938  1.00  0.00    -0.470 C  
ENDBRANCH  17  18
BRANCH  17  21
HETATM   21  C   UNL     1     -11.590  13.688  67.509  1.00  0.00    -0.350 C  
HETATM   22 CL   UNL     1      -9.358  15.089  66.694  1.00  0.00    -0.270 Cl 
HETATM   23  C   UNL     1     -10.501  14.653  67.995  1.00  0.00    -0.236 C  
ENDBRANCH  17  21
ENDBRANCH  10  17
TORSDOF 6
ENDMDL
MODEL      198
REMARK 921   NORMALIZED FREE ENERGY PREDICTED BY IDOCK:   -3.47 KCAL/MOL
REMARK 922        TOTAL FREE ENERGY PREDICTED BY IDOCK:   -5.47 KCAL/MOL
REMARK 923 INTER-LIGAND FREE ENERGY PREDICTED BY IDOCK:   -4.91 KCAL/MOL
REMARK 924 INTRA-LIGAND FREE ENERGY PREDICTED BY IDOCK:   -0.56 KCAL/MOL
REMARK 927      BINDING AFFINITY PREDICTED BY RF-SCORE:    0.00 PKD
ROOT
HETATM    1  C   UNL     1      -7.526  12.028  68.028  1.00  0.00    -0.113 C  
HETATM    2  N   UNL     1      -8.611  11.122  68.335  1.00  0.00    -0.146 NA 
HETATM    3  C   UNL     1      -9.894  11.121  67.827  1.00  0.00    -0.171 A  
HETATM    4  C   UNL     1      -8.507  10.085  69.238  1.00  0.00    -0.163 A  
HETATM    5  N   UNL     1     -10.592  10.126  68.341  1.00  0.00    -0.204 NA 
HETATM    6  C   UNL     1      -7.479   9.611  70.059  1.00  0.00    -0.142 A  
HETATM    7  C   UNL     1      -9.757   9.491  69.221  1.00  0.00    -0.176 A  
HETATM    8  C   UNL     1      -7.767   8.493  70.868  1.00  0.00    -0.092 A  
HETATM    9  C   UNL     1     -10.013   8.387  70.045  1.00  0.00    -0.188 A  
HETATM   10  C   UNL     1      -9.015   7.846  70.878  1.00  0.00    -0.143 A  
ENDROOT
BRANCH   3  11
HETATM   11  C   UNL     1     -10.479  12.097  66.853  1.00  0.00    -0.250 C  
BRANCH  11  12
HETATM   12  C   UNL     1     -11.851  12.569  67.353  1.00  0.00    -0.381 C  
BRANCH  12  13
HETATM   13  C   UNL     1     -12.403  13.735  66.542  1.00  0.00    -0.432 C  
HETATM   14  O   UNL     1     -11.773  15.463  68.083  1.00  0.00    -0.351 OA 
HETATM   15  O   UNL     1     -10.985  15.602  65.974  1.00  0.00    -0.299 OA 
HETATM   16  C   UNL     1     -11.642  15.010  66.818  1.00  0.00    -0.204 C  
ENDBRANCH  12  13
ENDBRANCH  11  12
ENDBRANCH   3  11
BRANCH  10  17
HETATM   17  N   UNL     1      -9.265   6.713  71.647  1.00  0.00    -0.146 NA 
BRANCH  17  18
HETATM   18  C   UNL     1      -9.907   6.769  72.973  1.00  0.00    -0.171 C  
HETATM   19 CL   UNL     1     -12.435   6.878  71.868  1.00  0.00    -0.369 Cl 
HETATM   20  C   UNL     1     -11.220   7.560  72.983  1.00  0.00    -0.322 C  
ENDBRANCH  17  18
BRANCH  17  21
HETATM   21  C   UNL     1      -8.743   5.398  71.217  1.00  0.00    -0.130 C  
HETATM   22 CL   UNL     1     -10.650   5.059  69.254  1.00  0.00    -0.116 Cl 
HETATM   23  C   UNL     1      -9.832   4.441  70.717  1.00  0.00    -0.203 C  
ENDBRANCH  17  21
ENDBRANCH  10  17
TORSDOF 6
ENDMDL
MODEL      199
REMARK 921   NORMALIZED FREE ENERGY PREDICTED BY IDOCK:   -3.46 KCAL/MOL
REMARK 922        TOTAL FREE ENERGY PREDICTED BY IDOCK:   -5.45 KCAL/MOL
REMARK 923 INTER-LIGAND FREE ENERGY PREDICTED BY IDOCK:   -4.79 KCAL/MOL
REMARK 924 INTRA-LIGAND FREE ENERGY PREDICTED BY IDOCK:   -0.66 KCAL/MOL
REMARK 927      BINDING AFFINITY PREDICTED BY RF-SCORE:    0.00 PKD
ROOT
HETATM    1  C   UNL     1      -9.036  10.926  65.273  1.00  0.00    -0.186 C  
HETATM    2  N   UNL     1      -9.424  11.004  66.664  1.00  0.00    -0.181 NA 
HETATM    3  C   UNL     1     -10.088  12.026  67.311  1.00  0.00    -0.194 A  
HETATM    4  C   UNL     1      -9.154  10.017  67.588  1.00  0.00    -0.134 A  
HETATM    5  N   UNL     1     -10.274  11.723  68.582  1.00  0.00    -0.216 NA 
HETATM    6  C   UNL     1      -8.507   8.779  67.526  1.00  0.00    -0.120 A  
HETATM    7  C   UNL     1      -9.692  10.499  68.769  1.00  0.00    -0.184 A  
HETATM    8  C   UNL     1      -8.430   8.034  68.721  1.00  0.00    -0.127 A  
HETATM    9  C   UNL     1      -9.589   9.737  69.941  1.00  0.00    -0.269 A  
HETATM   10  C   UNL     1      -8.970   8.472  69.942  1.00  0.00    -0.145 A  
ENDROOT
BRANCH   3  11
HETATM   11  C   UNL     1     -10.535  13.328  66.719  1.00  0.00    -0.270 C  
BRANCH  11  12
HETATM   12  C   UNL     1      -9.417  14.369  66.852  1.00  0.00    -0.268 C  
BRANCH  12  13
HETATM   13  C   UNL     1      -9.567  15.239  68.094  1.00  0.00    -0.204 C  
HETATM   14  O   UNL     1     -10.602  17.106  66.998  1.00  0.00    -0.306 OA 
HETATM   15  O   UNL     1     -11.723  16.136  68.698  1.00  0.00    -0.362 OA 
HETATM   16  C   UNL     1     -10.741  16.181  67.971  1.00  0.00    -0.321 C  
ENDBRANCH  12  13
ENDBRANCH  11  12
ENDBRANCH   3  11
BRANCH  10  17
HETATM   17  N   UNL     1      -8.927   7.701  71.100  1.00  0.00    -0.137 NA 
BRANCH  17  18
HETATM   18  C   UNL     1     -10.137   7.204  71.780  1.00  0.00    -0.183 C  
HETATM   19 CL   UNL     1     -10.534   5.241  69.880  1.00  0.00    -0.377 Cl 
HETATM   20  C   UNL     1     -11.177   6.614  70.822  1.00  0.00    -0.315 C  
ENDBRANCH  17  18
BRANCH  17  21
HETATM   21  C   UNL     1      -7.638   7.478  71.790  1.00  0.00    -0.084 C  
HETATM   22 CL   UNL     1      -7.977   4.747  71.966  1.00  0.00    -0.103 Cl 
HETATM   23  C   UNL     1      -7.669   6.306  72.780  1.00  0.00    -0.104 C  
ENDBRANCH  17  21
ENDBRANCH  10  17
TORSDOF 6
ENDMDL
MODEL      200
REMARK 921   NORMALIZED FREE ENERGY PREDICTED BY IDOCK:   -3.45 KCAL/MOL
REMARK 922        TOTAL FREE ENERGY PREDICTED BY IDOCK:   -5.44 KCAL/MOL
REMARK 923 INTER-LIGAND FREE ENERGY PREDICTED BY IDOCK:   -4.79 KCAL/MOL
REMARK 924 INTRA-LIGAND FREE ENERGY PREDICTED BY IDOCK:   -0.65 KCAL/MOL
REMARK 927      BINDING AFFINITY PREDICTED BY RF-SCORE:    0.00 PKD
ROOT
HETATM    1  C   UNL     1      -5.480  13.484  68.809  1.00  0.00    -0.075 C  
HETATM    2  N   UNL     1      -6.829  13.129  68.428  1.00  0.00    -0.088 NA 
HETATM    3  C   UNL     1      -7.757  13.894  67.750  1.00  0.00    -0.172 A  
HETATM    4  C   UNL     1      -7.410  11.913  68.721  1.00  0.00    -0.105 A  
HETATM    5  N   UNL     1      -8.876  13.216  67.578  1.00  0.00    -0.188 NA 
HETATM    6  C   UNL     1      -6.974  10.765  69.388  1.00  0.00    -0.116 A  
HETATM    7  C   UNL     1      -8.681  12.003  68.182  1.00  0.00    -0.177 A  
HETATM    8  C   UNL     1      -7.886   9.693  69.486  1.00  0.00    -0.117 A  
HETATM    9  C   UNL     1      -9.566  10.924  68.305  1.00  0.00    -0.169 A  
HETATM   10  C   UNL     1      -9.183   9.730  68.946  1.00  0.00    -0.155 A  
ENDROOT
BRANCH   3  11
HETATM   11  C   UNL     1      -7.589  15.305  67.277  1.00  0.00    -0.244 C  
BRANCH  11  12
HETATM   12  C   UNL     1      -8.628  16.207  67.955  1.00  0.00    -0.171 C  
BRANCH  12  13
HETATM   13  C   UNL     1      -8.429  17.682  67.630  1.00  0.00    -0.224 C  
HETATM   14  O   UNL     1     -10.757  18.244  67.471  1.00  0.00    -0.419 OA 
HETATM   15  O   UNL     1      -9.504  19.379  68.965  1.00  0.00    -0.391 OA 
HETATM   16  C   UNL     1      -9.596  18.515  68.104  1.00  0.00    -0.327 C  
ENDBRANCH  12  13
ENDBRANCH  11  12
ENDBRANCH   3  11
BRANCH  10  17
HETATM   17  N   UNL     1     -10.052   8.644  69.010  1.00  0.00    -0.194 NA 
BRANCH  17  18
HETATM   18  C   UNL     1     -10.578   8.111  70.280  1.00  0.00    -0.228 C  
HETATM   19 CL   UNL     1     -12.076  10.383  70.743  1.00  0.00    -0.426 Cl 
HETATM   20  C   UNL     1     -10.876   9.195  71.321  1.00  0.00    -0.332 C  
ENDBRANCH  17  18
BRANCH  17  21
HETATM   21  C   UNL     1     -10.363   7.874  67.787  1.00  0.00    -0.226 C  
HETATM   22 CL   UNL     1      -8.311   6.070  68.161  1.00  0.00    -0.112 Cl 
HETATM   23  C   UNL     1      -9.124   7.267  67.115  1.00  0.00    -0.130 C  
ENDBRANCH  17  21
ENDBRANCH  10  17
TORSDOF 6
ENDMDL
MODEL      201
REMARK 921   NORMALIZED FREE ENERGY PREDICTED BY IDOCK:   -3.42 KCAL/MOL
REMARK 922        TOTAL FREE ENERGY PREDICTED BY IDOCK:   -5.39 KCAL/MOL
REMARK 923 INTER-LIGAND FREE ENERGY PREDICTED BY IDOCK:   -4.91 KCAL/MOL
REMARK 924 INTRA-LIGAND FREE ENERGY PREDICTED BY IDOCK:   -0.49 KCAL/MOL
REMARK 927      BINDING AFFINITY PREDICTED BY RF-SCORE:    0.00 PKD
ROOT
HETATM    1  C   UNL     1      -8.846   9.042  63.014  1.00  0.00    -0.030 C  
HETATM    2  N   UNL     1      -8.824   9.519  64.379  1.00  0.00    -0.215 NA 
HETATM    3  C   UNL     1      -8.276   8.910  65.490  1.00  0.00    -0.129 A  
HETATM    4  C   UNL     1      -9.392  10.709  64.781  1.00  0.00    -0.233 A  
HETATM    5  N   UNL     1      -8.445   9.664  66.560  1.00  0.00    -0.123 NA 
HETATM    6  C   UNL     1     -10.089  11.725  64.119  1.00  0.00    -0.344 A  
HETATM    7  C   UNL     1      -9.143  10.765  66.141  1.00  0.00    -0.174 A  
HETATM    8  C   UNL     1     -10.524  12.818  64.897  1.00  0.00    -0.342 A  
HETATM    9  C   UNL     1      -9.597  11.861  66.887  1.00  0.00    -0.208 A  
HETATM   10  C   UNL     1     -10.285  12.928  66.278  1.00  0.00    -0.278 A  
ENDROOT
BRANCH   3  11
HETATM   11  C   UNL     1      -7.600   7.574  65.544  1.00  0.00    -0.093 C  
BRANCH  11  12
HETATM   12  C   UNL     1      -8.626   6.487  65.889  1.00  0.00    -0.153 C  
BRANCH  12  13
HETATM   13  C   UNL     1      -8.320   5.787  67.208  1.00  0.00    -0.104 C  
HETATM   14  O   UNL     1      -9.718   7.171  68.583  1.00  0.00    -0.140 OA 
HETATM   15  O   UNL     1     -10.114   4.951  68.586  1.00  0.00    -0.153 OA 
HETATM   16  C   UNL     1      -9.472   5.907  68.178  1.00  0.00    -0.115 C  
ENDBRANCH  12  13
ENDBRANCH  11  12
ENDBRANCH   3  11
BRANCH  10  17
HETATM   17  N   UNL     1     -10.680  14.038  67.020  1.00  0.00    -0.283 NA 
BRANCH  17  18
HETATM   18  C   UNL     1     -12.020  14.168  67.618  1.00  0.00    -0.370 C  
HETATM   19 CL   UNL     1     -10.976  14.735  70.110  1.00  0.00    -0.204 Cl 
HETATM   20  C   UNL     1     -12.073  13.759  69.095  1.00  0.00    -0.333 C  
ENDBRANCH  17  18
BRANCH  17  21
HETATM   21  C   UNL     1      -9.797  15.221  67.105  1.00  0.00    -0.224 C  
HETATM   22 CL   UNL     1     -10.878  16.436  64.877  1.00  0.00    -0.361 Cl 
HETATM   23  C   UNL     1      -9.440  15.817  65.737  1.00  0.00    -0.299 C  
ENDBRANCH  17  21
ENDBRANCH  10  17
TORSDOF 6
ENDMDL
MODEL      202
REMARK 921   NORMALIZED FREE ENERGY PREDICTED BY IDOCK:   -3.40 KCAL/MOL
REMARK 922        TOTAL FREE ENERGY PREDICTED BY IDOCK:   -5.37 KCAL/MOL
REMARK 923 INTER-LIGAND FREE ENERGY PREDICTED BY IDOCK:   -4.84 KCAL/MOL
REMARK 924 INTRA-LIGAND FREE ENERGY PREDICTED BY IDOCK:   -0.53 KCAL/MOL
REMARK 927      BINDING AFFINITY PREDICTED BY RF-SCORE:    0.00 PKD
ROOT
HETATM    1  C   UNL     1     -10.642   7.159  68.595  1.00  0.00    -0.189 C  
HETATM    2  N   UNL     1      -9.955   8.286  68.005  1.00  0.00    -0.177 NA 
HETATM    3  C   UNL     1      -8.799   8.285  67.251  1.00  0.00    -0.130 A  
HETATM    4  C   UNL     1     -10.379   9.592  68.136  1.00  0.00    -0.208 A  
HETATM    5  N   UNL     1      -8.490   9.513  66.879  1.00  0.00    -0.127 NA 
HETATM    6  C   UNL     1     -11.456  10.202  68.786  1.00  0.00    -0.110 A  
HETATM    7  C   UNL     1      -9.444  10.327  67.429  1.00  0.00    -0.153 A  
HETATM    8  C   UNL     1     -11.555  11.606  68.686  1.00  0.00    -0.373 A  
HETATM    9  C   UNL     1      -9.566  11.721  67.357  1.00  0.00    -0.173 A  
HETATM   10  C   UNL     1     -10.639  12.396  67.970  1.00  0.00    -0.221 A  
ENDROOT
BRANCH   3  11
HETATM   11  C   UNL     1      -7.956   7.099  66.895  1.00  0.00    -0.115 C  
BRANCH  11  12
HETATM   12  C   UNL     1      -8.447   6.490  65.576  1.00  0.00    -0.139 C  
BRANCH  12  13
HETATM   13  C   UNL     1      -7.392   6.539  64.477  1.00  0.00    -0.082 C  
HETATM   14  O   UNL     1      -8.386   8.325  63.221  1.00  0.00    -0.139 OA 
HETATM   15  O   UNL     1      -6.273   8.611  63.955  1.00  0.00    -0.071 OA 
HETATM   16  C   UNL     1      -7.279   7.921  63.879  1.00  0.00    -0.088 C  
ENDBRANCH  12  13
ENDBRANCH  11  12
ENDBRANCH   3  11
BRANCH  10  17
HETATM   17  N   UNL     1     -10.780  13.775  67.843  1.00  0.00    -0.244 NA 
BRANCH  17  18
HETATM   18  C   UNL     1      -9.794  14.735  68.371  1.00  0.00    -0.220 C  
HETATM   19 CL   UNL     1      -9.137  15.624  65.841  1.00  0.00    -0.347 Cl 
HETATM   20  C   UNL     1      -8.615  14.985  67.424  1.00  0.00    -0.192 C  
ENDBRANCH  17  18
BRANCH  17  21
HETATM   21  C   UNL     1     -12.031  14.342  67.295  1.00  0.00    -0.405 C  
HETATM   22 CL   UNL     1     -12.202  12.501  65.248  1.00  0.00    -0.517 Cl 
HETATM   23  C   UNL     1     -12.146  14.208  65.771  1.00  0.00    -0.420 C  
ENDBRANCH  17  21
ENDBRANCH  10  17
TORSDOF 6
ENDMDL
MODEL      203
REMARK 921   NORMALIZED FREE ENERGY PREDICTED BY IDOCK:   -3.39 KCAL/MOL
REMARK 922        TOTAL FREE ENERGY PREDICTED BY IDOCK:   -5.36 KCAL/MOL
REMARK 923 INTER-LIGAND FREE ENERGY PREDICTED BY IDOCK:   -4.73 KCAL/MOL
REMARK 924 INTRA-LIGAND FREE ENERGY PREDICTED BY IDOCK:   -0.63 KCAL/MOL
REMARK 927      BINDING AFFINITY PREDICTED BY RF-SCORE:    0.00 PKD
ROOT
HETATM    1  C   UNL     1      -6.859  10.955  66.293  1.00  0.00    -0.123 C  
HETATM    2  N   UNL     1      -8.012  10.090  66.186  1.00  0.00    -0.109 NA 
HETATM    3  C   UNL     1      -9.183  10.306  65.489  1.00  0.00    -0.190 A  
HETATM    4  C   UNL     1      -8.110   8.866  66.815  1.00  0.00    -0.111 A  
HETATM    5  N   UNL     1      -9.997   9.276  65.622  1.00  0.00    -0.196 NA 
HETATM    6  C   UNL     1      -7.263   8.136  67.654  1.00  0.00    -0.092 A  
HETATM    7  C   UNL     1      -9.357   8.391  66.447  1.00  0.00    -0.214 A  
HETATM    8  C   UNL     1      -7.731   6.885  68.108  1.00  0.00    -0.113 A  
HETATM    9  C   UNL     1      -9.795   7.149  66.924  1.00  0.00    -0.271 A  
HETATM   10  C   UNL     1      -8.983   6.353  67.753  1.00  0.00    -0.113 A  
ENDROOT
BRANCH   3  11
HETATM   11  C   UNL     1      -9.549  11.525  64.698  1.00  0.00    -0.186 C  
BRANCH  11  12
HETATM   12  C   UNL     1      -9.758  12.714  65.645  1.00  0.00    -0.149 C  
BRANCH  12  13
HETATM   13  C   UNL     1     -11.105  13.397  65.443  1.00  0.00    -0.301 C  
HETATM   14  O   UNL     1     -12.284  12.183  67.145  1.00  0.00    -0.507 OA 
HETATM   15  O   UNL     1     -12.235  14.432  67.306  1.00  0.00    -0.383 OA 
HETATM   16  C   UNL     1     -11.915  13.409  66.718  1.00  0.00    -0.394 C  
ENDBRANCH  12  13
ENDBRANCH  11  12
ENDBRANCH   3  11
BRANCH  10  17
HETATM   17  N   UNL     1      -9.407   5.095  68.172  1.00  0.00    -0.117 NA 
BRANCH  17  18
HETATM   18  C   UNL     1      -9.465   4.698  69.591  1.00  0.00    -0.162 C  
HETATM   19 CL   UNL     1     -11.604   6.372  70.087  1.00  0.00    -0.485 Cl 
HETATM   20  C   UNL     1      -9.964   5.813  70.517  1.00  0.00    -0.195 C  
ENDBRANCH  17  18
BRANCH  17  21
HETATM   21  C   UNL     1      -9.674   4.036  67.175  1.00  0.00    -0.166 C  
HETATM   22 CL   UNL     1      -7.302   2.712  67.651  1.00  0.00    -0.056 Cl 
HETATM   23  C   UNL     1      -8.406   3.505  66.493  1.00  0.00    -0.101 C  
ENDBRANCH  17  21
ENDBRANCH  10  17
TORSDOF 6
ENDMDL
MODEL      204
REMARK 921   NORMALIZED FREE ENERGY PREDICTED BY IDOCK:   -3.39 KCAL/MOL
REMARK 922        TOTAL FREE ENERGY PREDICTED BY IDOCK:   -5.35 KCAL/MOL
REMARK 923 INTER-LIGAND FREE ENERGY PREDICTED BY IDOCK:   -4.51 KCAL/MOL
REMARK 924 INTRA-LIGAND FREE ENERGY PREDICTED BY IDOCK:   -0.84 KCAL/MOL
REMARK 927      BINDING AFFINITY PREDICTED BY RF-SCORE:    0.00 PKD
ROOT
HETATM    1  C   UNL     1      -5.862  13.964  70.560  1.00  0.00    -0.178 C  
HETATM    2  N   UNL     1      -6.613  13.196  69.592  1.00  0.00    -0.046 NA 
HETATM    3  C   UNL     1      -6.499  11.854  69.289  1.00  0.00    -0.111 A  
HETATM    4  C   UNL     1      -7.593  13.734  68.785  1.00  0.00    -0.099 A  
HETATM    5  N   UNL     1      -7.370  11.516  68.358  1.00  0.00    -0.090 NA 
HETATM    6  C   UNL     1      -8.128  15.017  68.631  1.00  0.00    -0.153 A  
HETATM    7  C   UNL     1      -8.038  12.664  68.028  1.00  0.00    -0.161 A  
HETATM    8  C   UNL     1      -9.150  15.176  67.673  1.00  0.00    -0.181 A  
HETATM    9  C   UNL     1      -9.048  12.859  67.077  1.00  0.00    -0.228 A  
HETATM   10  C   UNL     1      -9.646  14.120  66.888  1.00  0.00    -0.270 A  
ENDROOT
BRANCH   3  11
HETATM   11  C   UNL     1      -5.528  10.877  69.877  1.00  0.00    -0.050 C  
BRANCH  11  12
HETATM   12  C   UNL     1      -6.115   9.461  69.817  1.00  0.00    -0.039 C  
BRANCH  12  13
HETATM   13  C   UNL     1      -6.728   9.022  71.140  1.00  0.00    -0.090 C  
HETATM   14  O   UNL     1      -8.998   9.566  70.585  1.00  0.00    -0.241 OA 
HETATM   15  O   UNL     1      -8.546   7.436  71.172  1.00  0.00    -0.121 OA 
HETATM   16  C   UNL     1      -8.161   8.578  70.966  1.00  0.00    -0.140 C  
ENDBRANCH  12  13
ENDBRANCH  11  12
ENDBRANCH   3  11
BRANCH  10  17
HETATM   17  N   UNL     1     -10.689  14.286  65.981  1.00  0.00    -0.298 NA 
BRANCH  17  18
HETATM   18  C   UNL     1     -12.009  13.654  66.151  1.00  0.00    -0.416 C  
HETATM   19 CL   UNL     1     -11.285  11.471  64.624  1.00  0.00    -0.320 Cl 
HETATM   20  C   UNL     1     -12.435  12.796  64.954  1.00  0.00    -0.497 C  
ENDBRANCH  17  18
BRANCH  17  21
HETATM   21  C   UNL     1     -10.451  14.996  64.706  1.00  0.00    -0.234 C  
HETATM   22 CL   UNL     1     -10.645  17.504  65.836  1.00  0.00    -0.290 Cl 
HETATM   23  C   UNL     1     -11.194  16.335  64.603  1.00  0.00    -0.254 C  
ENDBRANCH  17  21
ENDBRANCH  10  17
TORSDOF 6
ENDMDL
MODEL      205
REMARK 921   NORMALIZED FREE ENERGY PREDICTED BY IDOCK:   -3.35 KCAL/MOL
REMARK 922        TOTAL FREE ENERGY PREDICTED BY IDOCK:   -5.31 KCAL/MOL
REMARK 923 INTER-LIGAND FREE ENERGY PREDICTED BY IDOCK:   -4.54 KCAL/MOL
REMARK 924 INTRA-LIGAND FREE ENERGY PREDICTED BY IDOCK:   -0.77 KCAL/MOL
REMARK 927      BINDING AFFINITY PREDICTED BY RF-SCORE:    0.00 PKD
ROOT
HETATM    1  C   UNL     1      -5.210  12.532  70.330  1.00  0.00    -0.109 C  
HETATM    2  N   UNL     1      -6.391  11.997  69.691  1.00  0.00    -0.127 NA 
HETATM    3  C   UNL     1      -6.954  10.746  69.842  1.00  0.00    -0.123 A  
HETATM    4  C   UNL     1      -7.151  12.700  68.779  1.00  0.00    -0.087 A  
HETATM    5  N   UNL     1      -8.039  10.635  69.098  1.00  0.00    -0.148 NA 
HETATM    6  C   UNL     1      -7.066  13.981  68.228  1.00  0.00    -0.110 A  
HETATM    7  C   UNL     1      -8.162  11.822  68.429  1.00  0.00    -0.154 A  
HETATM    8  C   UNL     1      -8.062  14.349  67.299  1.00  0.00    -0.209 A  
HETATM    9  C   UNL     1      -9.131  12.216  67.496  1.00  0.00    -0.180 A  
HETATM   10  C   UNL     1      -9.116  13.500  66.920  1.00  0.00    -0.239 A  
ENDROOT
BRANCH   3  11
HETATM   11  C   UNL     1      -6.441   9.623  70.691  1.00  0.00    -0.105 C  
BRANCH  11  12
HETATM   12  C   UNL     1      -7.615   8.771  71.189  1.00  0.00    -0.134 C  
BRANCH  12  13
HETATM   13  C   UNL     1      -7.675   7.403  70.521  1.00  0.00    -0.096 C  
HETATM   14  O   UNL     1      -9.369   6.476  71.944  1.00  0.00    -0.149 OA 
HETATM   15  O   UNL     1      -9.777   6.528  69.727  1.00  0.00    -0.158 OA 
HETATM   16  C   UNL     1      -9.040   6.774  70.670  1.00  0.00    -0.155 C  
ENDBRANCH  12  13
ENDBRANCH  11  12
ENDBRANCH   3  11
BRANCH  10  17
HETATM   17  N   UNL     1     -10.117  13.899  66.039  1.00  0.00    -0.304 NA 
BRANCH  17  18
HETATM   18  C   UNL     1      -9.963  15.030  65.107  1.00  0.00    -0.234 C  
HETATM   19 CL   UNL     1     -10.426  16.882  67.102  1.00  0.00    -0.316 Cl 
HETATM   20  C   UNL     1     -10.815  16.249  65.479  1.00  0.00    -0.245 C  
ENDBRANCH  17  18
BRANCH  17  21
HETATM   21  C   UNL     1     -11.459  13.281  66.117  1.00  0.00    -0.328 C  
HETATM   22 CL   UNL     1     -10.961  11.466  64.101  1.00  0.00    -0.424 Cl 
HETATM   23  C   UNL     1     -11.979  12.774  64.766  1.00  0.00    -0.402 C  
ENDBRANCH  17  21
ENDBRANCH  10  17
TORSDOF 6
ENDMDL
MODEL      206
REMARK 921   NORMALIZED FREE ENERGY PREDICTED BY IDOCK:   -3.31 KCAL/MOL
REMARK 922        TOTAL FREE ENERGY PREDICTED BY IDOCK:   -5.25 KCAL/MOL
REMARK 923 INTER-LIGAND FREE ENERGY PREDICTED BY IDOCK:   -4.68 KCAL/MOL
REMARK 924 INTRA-LIGAND FREE ENERGY PREDICTED BY IDOCK:   -0.57 KCAL/MOL
REMARK 927      BINDING AFFINITY PREDICTED BY RF-SCORE:    0.00 PKD
ROOT
HETATM    1  C   UNL     1      -8.997  13.944  68.154  1.00  0.00    -0.185 C  
HETATM    2  N   UNL     1      -9.653  12.678  67.916  1.00  0.00    -0.204 NA 
HETATM    3  C   UNL     1     -11.004  12.397  67.941  1.00  0.00    -0.228 A  
HETATM    4  C   UNL     1      -8.978  11.510  67.629  1.00  0.00    -0.160 A  
HETATM    5  N   UNL     1     -11.215  11.125  67.659  1.00  0.00    -0.303 NA 
HETATM    6  C   UNL     1      -7.627  11.179  67.490  1.00  0.00    -0.108 A  
HETATM    7  C   UNL     1      -9.979  10.566  67.481  1.00  0.00    -0.172 A  
HETATM    8  C   UNL     1      -7.323   9.836  67.183  1.00  0.00    -0.087 A  
HETATM    9  C   UNL     1      -9.642   9.238  67.186  1.00  0.00    -0.208 A  
HETATM   10  C   UNL     1      -8.302   8.842  67.010  1.00  0.00    -0.106 A  
ENDROOT
BRANCH   3  11
HETATM   11  C   UNL     1     -12.117  13.346  68.262  1.00  0.00    -0.271 C  
BRANCH  11  12
HETATM   12  C   UNL     1     -12.255  14.383  67.140  1.00  0.00    -0.257 C  
BRANCH  12  13
HETATM   13  C   UNL     1     -12.673  13.761  65.813  1.00  0.00    -0.494 C  
HETATM   14  O   UNL     1     -11.472  15.288  64.405  1.00  0.00    -0.331 OA 
HETATM   15  O   UNL     1     -11.006  13.090  64.205  1.00  0.00    -0.373 OA 
HETATM   16  C   UNL     1     -11.633  13.991  64.743  1.00  0.00    -0.381 C  
ENDBRANCH  12  13
ENDBRANCH  11  12
ENDBRANCH   3  11
BRANCH  10  17
HETATM   17  N   UNL     1      -7.985   7.533  66.660  1.00  0.00    -0.108 NA 
BRANCH  17  18
HETATM   18  C   UNL     1      -8.441   6.904  65.407  1.00  0.00    -0.084 C  
HETATM   19 CL   UNL     1     -10.860   6.176  66.521  1.00  0.00    -0.262 Cl 
HETATM   20  C   UNL     1      -9.385   5.717  65.627  1.00  0.00    -0.008 C  
ENDBRANCH  17  18
BRANCH  17  21
HETATM   21  C   UNL     1      -7.292   6.657  67.629  1.00  0.00    -0.096 C  
HETATM   22 CL   UNL     1      -9.454   6.495  69.333  1.00  0.00    -0.145 Cl 
HETATM   23  C   UNL     1      -7.729   6.885  69.081  1.00  0.00    -0.106 C  
ENDBRANCH  17  21
ENDBRANCH  10  17
TORSDOF 6
ENDMDL
MODEL      207
REMARK 921   NORMALIZED FREE ENERGY PREDICTED BY IDOCK:   -3.28 KCAL/MOL
REMARK 922        TOTAL FREE ENERGY PREDICTED BY IDOCK:   -5.21 KCAL/MOL
REMARK 923 INTER-LIGAND FREE ENERGY PREDICTED BY IDOCK:   -5.49 KCAL/MOL
REMARK 924 INTRA-LIGAND FREE ENERGY PREDICTED BY IDOCK:    0.28 KCAL/MOL
REMARK 927      BINDING AFFINITY PREDICTED BY RF-SCORE:    0.00 PKD
ROOT
HETATM    1  C   UNL     1     -10.177  15.102  65.613  1.00  0.00    -0.361 C  
HETATM    2  N   UNL     1     -10.622  14.263  66.704  1.00  0.00    -0.276 NA 
HETATM    3  C   UNL     1     -11.261  14.639  67.868  1.00  0.00    -0.304 A  
HETATM    4  C   UNL     1     -10.445  12.895  66.736  1.00  0.00    -0.254 A  
HETATM    5  N   UNL     1     -11.518  13.582  68.615  1.00  0.00    -0.285 NA 
HETATM    6  C   UNL     1      -9.862  11.971  65.865  1.00  0.00    -0.259 A  
HETATM    7  C   UNL     1     -11.009  12.506  67.939  1.00  0.00    -0.227 A  
HETATM    8  C   UNL     1      -9.876  10.617  66.260  1.00  0.00    -0.263 A  
HETATM    9  C   UNL     1     -10.998  11.154  68.306  1.00  0.00    -0.278 A  
HETATM   10  C   UNL     1     -10.447  10.170  67.464  1.00  0.00    -0.253 A  
ENDROOT
BRANCH   3  11
HETATM   11  C   UNL     1     -11.612  16.032  68.293  1.00  0.00    -0.232 C  
BRANCH  11  12
HETATM   12  C   UNL     1     -10.457  16.635  69.102  1.00  0.00    -0.333 C  
BRANCH  12  13
HETATM   13  C   UNL     1      -9.233  15.729  69.144  1.00  0.00    -0.256 C  
HETATM   14  O   UNL     1      -7.954  16.918  67.498  1.00  0.00    -0.165 OA 
HETATM   15  O   UNL     1      -7.043  16.658  69.544  1.00  0.00    -0.212 OA 
HETATM   16  C   UNL     1      -7.975  16.480  68.774  1.00  0.00    -0.236 C  
ENDBRANCH  12  13
ENDBRANCH  11  12
ENDBRANCH   3  11
BRANCH  10  17
HETATM   17  N   UNL     1     -10.495   8.823  67.815  1.00  0.00    -0.241 NA 
BRANCH  17  18
HETATM   18  C   UNL     1     -10.649   8.361  69.206  1.00  0.00    -0.182 C  
HETATM   19 CL   UNL     1      -8.341   9.647  70.007  1.00  0.00    -0.180 Cl 
HETATM   20  C   UNL     1      -9.315   8.153  69.932  1.00  0.00    -0.159 C  
ENDBRANCH  17  18
BRANCH  17  21
HETATM   21  C   UNL     1     -10.232   7.785  66.795  1.00  0.00    -0.276 C  
HETATM   22 CL   UNL     1      -7.495   7.881  67.115  1.00  0.00    -0.091 Cl 
HETATM   23  C   UNL     1      -8.914   7.992  66.037  1.00  0.00    -0.163 C  
ENDBRANCH  17  21
ENDBRANCH  10  17
TORSDOF 6
ENDMDL
MODEL      208
REMARK 921   NORMALIZED FREE ENERGY PREDICTED BY IDOCK:   -3.27 KCAL/MOL
REMARK 922        TOTAL FREE ENERGY PREDICTED BY IDOCK:   -5.19 KCAL/MOL
REMARK 923 INTER-LIGAND FREE ENERGY PREDICTED BY IDOCK:   -4.36 KCAL/MOL
REMARK 924 INTRA-LIGAND FREE ENERGY PREDICTED BY IDOCK:   -0.83 KCAL/MOL
REMARK 927      BINDING AFFINITY PREDICTED BY RF-SCORE:    0.00 PKD
ROOT
HETATM    1  C   UNL     1      -7.318   6.894  67.681  1.00  0.00    -0.096 C  
HETATM    2  N   UNL     1      -8.612   7.514  67.860  1.00  0.00    -0.122 NA 
HETATM    3  C   UNL     1      -9.771   6.950  68.351  1.00  0.00    -0.137 A  
HETATM    4  C   UNL     1      -8.882   8.826  67.530  1.00  0.00    -0.134 A  
HETATM    5  N   UNL     1     -10.745   7.841  68.374  1.00  0.00    -0.101 NA 
HETATM    6  C   UNL     1      -8.122   9.867  66.987  1.00  0.00    -0.110 A  
HETATM    7  C   UNL     1     -10.216   8.993  67.858  1.00  0.00    -0.221 A  
HETATM    8  C   UNL     1      -8.772  11.103  66.792  1.00  0.00    -0.157 A  
HETATM    9  C   UNL     1     -10.834  10.232  67.642  1.00  0.00    -0.363 A  
HETATM   10  C   UNL     1     -10.121  11.327  67.120  1.00  0.00    -0.192 A  
ENDROOT
BRANCH   3  11
HETATM   11  C   UNL     1      -9.969   5.530  68.786  1.00  0.00    -0.231 C  
BRANCH  11  12
HETATM   12  C   UNL     1     -10.022   5.459  70.317  1.00  0.00    -0.298 C  
BRANCH  12  13
HETATM   13  C   UNL     1      -8.656   5.654  70.963  1.00  0.00    -0.127 C  
HETATM   14  O   UNL     1      -9.437   6.813  72.913  1.00  0.00    -0.138 OA 
HETATM   15  O   UNL     1      -8.261   4.914  73.224  1.00  0.00    -0.103 OA 
HETATM   16  C   UNL     1      -8.761   5.733  72.467  1.00  0.00    -0.124 C  
ENDBRANCH  12  13
ENDBRANCH  11  12
ENDBRANCH   3  11
BRANCH  10  17
HETATM   17  N   UNL     1     -10.732  12.569  66.965  1.00  0.00    -0.239 NA 
BRANCH  17  18
HETATM   18  C   UNL     1     -10.398  13.738  67.798  1.00  0.00    -0.241 C  
HETATM   19 CL   UNL     1     -11.901  12.801  69.915  1.00  0.00    -0.396 Cl 
HETATM   20  C   UNL     1     -11.506  14.124  68.784  1.00  0.00    -0.299 C  
ENDBRANCH  17  18
BRANCH  17  21
HETATM   21  C   UNL     1     -11.876  12.718  66.040  1.00  0.00    -0.439 C  
HETATM   22 CL   UNL     1     -10.348  13.782  64.006  1.00  0.00     0.254 Cl 
HETATM   23  C   UNL     1     -11.750  13.925  65.102  1.00  0.00    -0.350 C  
ENDBRANCH  17  21
ENDBRANCH  10  17
TORSDOF 6
ENDMDL
MODEL      209
REMARK 921   NORMALIZED FREE ENERGY PREDICTED BY IDOCK:   -3.27 KCAL/MOL
REMARK 922        TOTAL FREE ENERGY PREDICTED BY IDOCK:   -5.19 KCAL/MOL
REMARK 923 INTER-LIGAND FREE ENERGY PREDICTED BY IDOCK:   -4.69 KCAL/MOL
REMARK 924 INTRA-LIGAND FREE ENERGY PREDICTED BY IDOCK:   -0.50 KCAL/MOL
REMARK 927      BINDING AFFINITY PREDICTED BY RF-SCORE:    0.00 PKD
ROOT
HETATM    1  C   UNL     1      -9.678  10.414  67.334  1.00  0.00    -0.163 C  
HETATM    2  N   UNL     1     -10.028  10.171  68.716  1.00  0.00    -0.171 NA 
HETATM    3  C   UNL     1     -10.955  10.834  69.494  1.00  0.00    -0.266 A  
HETATM    4  C   UNL     1      -9.438   9.195  69.492  1.00  0.00    -0.168 A  
HETATM    5  N   UNL     1     -10.999  10.313  70.705  1.00  0.00    -0.285 NA 
HETATM    6  C   UNL     1      -8.444   8.241  69.262  1.00  0.00    -0.126 A  
HETATM    7  C   UNL     1     -10.062   9.315  70.722  1.00  0.00    -0.291 A  
HETATM    8  C   UNL     1      -8.103   7.395  70.337  1.00  0.00    -0.108 A  
HETATM    9  C   UNL     1      -9.693   8.465  71.773  1.00  0.00    -0.306 A  
HETATM   10  C   UNL     1      -8.715   7.467  71.601  1.00  0.00    -0.116 A  
ENDROOT
BRANCH   3  11
HETATM   11  C   UNL     1     -11.800  12.004  69.089  1.00  0.00    -0.369 C  
BRANCH  11  12
HETATM   12  C   UNL     1     -11.820  13.044  70.216  1.00  0.00    -0.294 C  
BRANCH  12  13
HETATM   13  C   UNL     1     -12.642  14.277  69.864  1.00  0.00    -0.214 C  
HETATM   14  O   UNL     1     -11.025  15.899  70.580  1.00  0.00    -0.328 OA 
HETATM   15  O   UNL     1     -11.720  15.988  68.436  1.00  0.00    -0.346 OA 
HETATM   16  C   UNL     1     -11.758  15.456  69.536  1.00  0.00    -0.346 C  
ENDBRANCH  12  13
ENDBRANCH  11  12
ENDBRANCH   3  11
BRANCH  10  17
HETATM   17  N   UNL     1      -8.399   6.592  72.637  1.00  0.00    -0.117 NA 
BRANCH  17  18
HETATM   18  C   UNL     1      -7.066   6.535  73.262  1.00  0.00    -0.078 C  
HETATM   19 CL   UNL     1      -6.201   4.589  71.505  1.00  0.00    -0.018 Cl 
HETATM   20  C   UNL     1      -6.413   5.150  73.186  1.00  0.00    -0.061 C  
ENDBRANCH  17  18
BRANCH  17  21
HETATM   21  C   UNL     1      -9.371   5.557  73.050  1.00  0.00    -0.136 C  
HETATM   22 CL   UNL     1      -9.181   4.150  70.685  1.00  0.00    -0.179 Cl 
HETATM   23  C   UNL     1     -10.198   4.994  71.886  1.00  0.00    -0.204 C  
ENDBRANCH  17  21
ENDBRANCH  10  17
TORSDOF 6
ENDMDL
MODEL      210
REMARK 921   NORMALIZED FREE ENERGY PREDICTED BY IDOCK:   -3.25 KCAL/MOL
REMARK 922        TOTAL FREE ENERGY PREDICTED BY IDOCK:   -5.17 KCAL/MOL
REMARK 923 INTER-LIGAND FREE ENERGY PREDICTED BY IDOCK:   -4.12 KCAL/MOL
REMARK 924 INTRA-LIGAND FREE ENERGY PREDICTED BY IDOCK:   -1.05 KCAL/MOL
REMARK 927      BINDING AFFINITY PREDICTED BY RF-SCORE:    0.00 PKD
ROOT
HETATM    1  C   UNL     1     -10.040  10.271  67.841  1.00  0.00    -0.170 C  
HETATM    2  N   UNL     1     -10.044   8.861  68.162  1.00  0.00    -0.181 NA 
HETATM    3  C   UNL     1     -10.505   8.245  69.307  1.00  0.00    -0.210 A  
HETATM    4  C   UNL     1      -9.546   7.886  67.323  1.00  0.00    -0.159 A  
HETATM    5  N   UNL     1     -10.349   6.937  69.223  1.00  0.00    -0.190 NA 
HETATM    6  C   UNL     1      -8.948   7.905  66.060  1.00  0.00    -0.195 A  
HETATM    7  C   UNL     1      -9.747   6.705  68.016  1.00  0.00    -0.123 A  
HETATM    8  C   UNL     1      -8.561   6.664  65.513  1.00  0.00    -0.101 A  
HETATM    9  C   UNL     1      -9.343   5.489  67.448  1.00  0.00    -0.115 A  
HETATM   10  C   UNL     1      -8.755   5.436  66.170  1.00  0.00    -0.129 A  
ENDROOT
BRANCH   3  11
HETATM   11  C   UNL     1     -11.084   8.911  70.518  1.00  0.00    -0.288 C  
BRANCH  11  12
HETATM   12  C   UNL     1     -11.598   7.849  71.499  1.00  0.00    -0.306 C  
BRANCH  12  13
HETATM   13  C   UNL     1     -10.957   7.960  72.876  1.00  0.00    -0.452 C  
HETATM   14  O   UNL     1      -9.106   6.499  72.436  1.00  0.00    -0.135 OA 
HETATM   15  O   UNL     1      -8.643   8.606  73.094  1.00  0.00    -0.393 OA 
HETATM   16  C   UNL     1      -9.464   7.745  72.810  1.00  0.00    -0.215 C  
ENDBRANCH  12  13
ENDBRANCH  11  12
ENDBRANCH   3  11
BRANCH  10  17
HETATM   17  N   UNL     1      -8.411   4.216  65.594  1.00  0.00    -0.109 NA 
BRANCH  17  18
HETATM   18  C   UNL     1      -7.031   3.872  65.206  1.00  0.00    -0.061 C  
HETATM   19 CL   UNL     1      -6.390   3.075  67.770  1.00  0.00    -0.032 Cl 
HETATM   20  C   UNL     1      -6.013   4.067  66.334  1.00  0.00    -0.027 C  
ENDBRANCH  17  18
BRANCH  17  21
HETATM   21  C   UNL     1      -9.469   3.261  65.200  1.00  0.00    -0.139 C  
HETATM   22 CL   UNL     1      -9.616   4.185  62.606  1.00  0.00    -0.135 Cl 
HETATM   23  C   UNL     1     -10.437   3.819  64.149  1.00  0.00    -0.257 C  
ENDBRANCH  17  21
ENDBRANCH  10  17
TORSDOF 6
ENDMDL
MODEL      211
REMARK 921   NORMALIZED FREE ENERGY PREDICTED BY IDOCK:   -3.25 KCAL/MOL
REMARK 922        TOTAL FREE ENERGY PREDICTED BY IDOCK:   -5.17 KCAL/MOL
REMARK 923 INTER-LIGAND FREE ENERGY PREDICTED BY IDOCK:   -4.89 KCAL/MOL
REMARK 924 INTRA-LIGAND FREE ENERGY PREDICTED BY IDOCK:   -0.28 KCAL/MOL
REMARK 927      BINDING AFFINITY PREDICTED BY RF-SCORE:    0.00 PKD
ROOT
HETATM    1  C   UNL     1     -10.700   7.486  68.522  1.00  0.00    -0.073 C  
HETATM    2  N   UNL     1     -10.972   8.747  69.175  1.00  0.00    -0.042 NA 
HETATM    3  C   UNL     1     -11.485   8.964  70.438  1.00  0.00    -0.157 A  
HETATM    4  C   UNL     1     -10.755   9.974  68.585  1.00  0.00    -0.226 A  
HETATM    5  N   UNL     1     -11.578  10.257  70.682  1.00  0.00    -0.323 NA 
HETATM    6  C   UNL     1     -10.273  10.380  67.337  1.00  0.00    -0.259 A  
HETATM    7  C   UNL     1     -11.147  10.889  69.547  1.00  0.00    -0.268 A  
HETATM    8  C   UNL     1     -10.196  11.768  67.099  1.00  0.00    -0.236 A  
HETATM    9  C   UNL     1     -11.066  12.261  69.274  1.00  0.00    -0.220 A  
HETATM   10  C   UNL     1     -10.568  12.738  68.046  1.00  0.00    -0.226 A  
ENDROOT
BRANCH   3  11
HETATM   11  C   UNL     1     -11.921   7.924  71.424  1.00  0.00    -0.331 C  
BRANCH  11  12
HETATM   12  C   UNL     1     -10.720   7.469  72.263  1.00  0.00    -0.294 C  
BRANCH  12  13
HETATM   13  C   UNL     1     -10.495   5.964  72.201  1.00  0.00    -0.250 C  
HETATM   14  O   UNL     1     -10.232   5.627  74.562  1.00  0.00    -0.257 OA 
HETATM   15  O   UNL     1     -11.862   4.473  73.514  1.00  0.00    -0.173 OA 
HETATM   16  C   UNL     1     -10.948   5.283  73.471  1.00  0.00    -0.296 C  
ENDBRANCH  12  13
ENDBRANCH  11  12
ENDBRANCH   3  11
BRANCH  10  17
HETATM   17  N   UNL     1     -10.439  14.103  67.811  1.00  0.00    -0.244 NA 
BRANCH  17  18
HETATM   18  C   UNL     1     -11.235  14.823  66.800  1.00  0.00    -0.344 C  
HETATM   19 CL   UNL     1      -9.727  13.802  64.724  1.00  0.00     0.061 Cl 
HETATM   20  C   UNL     1     -10.431  15.216  65.556  1.00  0.00    -0.379 C  
ENDBRANCH  17  18
BRANCH  17  21
HETATM   21  C   UNL     1      -9.363  14.869  68.476  1.00  0.00    -0.196 C  
HETATM   22 CL   UNL     1      -7.337  13.327  67.415  1.00  0.00    -0.155 Cl 
HETATM   23  C   UNL     1      -8.146  14.013  68.852  1.00  0.00    -0.001 C  
ENDBRANCH  17  21
ENDBRANCH  10  17
TORSDOF 6
ENDMDL
MODEL      212
REMARK 921   NORMALIZED FREE ENERGY PREDICTED BY IDOCK:   -3.23 KCAL/MOL
REMARK 922        TOTAL FREE ENERGY PREDICTED BY IDOCK:   -5.15 KCAL/MOL
REMARK 923 INTER-LIGAND FREE ENERGY PREDICTED BY IDOCK:   -4.51 KCAL/MOL
REMARK 924 INTRA-LIGAND FREE ENERGY PREDICTED BY IDOCK:   -0.63 KCAL/MOL
REMARK 927      BINDING AFFINITY PREDICTED BY RF-SCORE:    0.00 PKD
ROOT
HETATM    1  C   UNL     1      -7.305  11.812  68.798  1.00  0.00    -0.114 C  
HETATM    2  N   UNL     1      -8.151  10.967  67.986  1.00  0.00    -0.116 NA 
HETATM    3  C   UNL     1      -9.524  11.006  67.853  1.00  0.00    -0.165 A  
HETATM    4  C   UNL     1      -7.675   9.938  67.201  1.00  0.00    -0.092 A  
HETATM    5  N   UNL     1      -9.933  10.078  67.008  1.00  0.00    -0.195 NA 
HETATM    6  C   UNL     1      -6.402   9.420  66.947  1.00  0.00    -0.066 A  
HETATM    7  C   UNL     1      -8.808   9.406  66.612  1.00  0.00    -0.135 A  
HETATM    8  C   UNL     1      -6.317   8.330  66.057  1.00  0.00    -0.049 A  
HETATM    9  C   UNL     1      -8.690   8.316  65.739  1.00  0.00    -0.196 A  
HETATM   10  C   UNL     1      -7.436   7.761  65.423  1.00  0.00    -0.081 A  
ENDROOT
BRANCH   3  11
HETATM   11  C   UNL     1     -10.473  11.926  68.560  1.00  0.00    -0.240 C  
BRANCH  11  12
HETATM   12  C   UNL     1     -11.683  12.212  67.663  1.00  0.00    -0.386 C  
BRANCH  12  13
HETATM   13  C   UNL     1     -11.362  13.183  66.533  1.00  0.00    -0.350 C  
HETATM   14  O   UNL     1     -12.710  12.113  64.860  1.00  0.00    -0.508 OA 
HETATM   15  O   UNL     1     -13.140  14.277  65.326  1.00  0.00    -0.707 OA 
HETATM   16  C   UNL     1     -12.492  13.262  65.534  1.00  0.00    -0.474 C  
ENDBRANCH  12  13
ENDBRANCH  11  12
ENDBRANCH   3  11
BRANCH  10  17
HETATM   17  N   UNL     1      -7.327   6.716  64.509  1.00  0.00    -0.079 NA 
BRANCH  17  18
HETATM   18  C   UNL     1      -6.569   5.483  64.786  1.00  0.00    -0.043 C  
HETATM   19 CL   UNL     1      -8.848   4.118  65.539  1.00  0.00    -0.119 Cl 
HETATM   20  C   UNL     1      -7.178   4.630  65.905  1.00  0.00    -0.076 C  
ENDBRANCH  17  18
BRANCH  17  21
HETATM   21  C   UNL     1      -7.854   6.878  63.137  1.00  0.00    -0.104 C  
HETATM   22 CL   UNL     1      -5.994   8.789  62.434  1.00  0.00    -0.091 Cl 
HETATM   23  C   UNL     1      -7.705   8.303  62.589  1.00  0.00    -0.126 C  
ENDBRANCH  17  21
ENDBRANCH  10  17
TORSDOF 6
ENDMDL
MODEL      213
REMARK 921   NORMALIZED FREE ENERGY PREDICTED BY IDOCK:   -3.23 KCAL/MOL
REMARK 922        TOTAL FREE ENERGY PREDICTED BY IDOCK:   -5.13 KCAL/MOL
REMARK 923 INTER-LIGAND FREE ENERGY PREDICTED BY IDOCK:   -4.95 KCAL/MOL
REMARK 924 INTRA-LIGAND FREE ENERGY PREDICTED BY IDOCK:   -0.18 KCAL/MOL
REMARK 927      BINDING AFFINITY PREDICTED BY RF-SCORE:    0.00 PKD
ROOT
HETATM    1  C   UNL     1     -11.374   7.636  70.621  1.00  0.00    -0.272 C  
HETATM    2  N   UNL     1     -10.562   8.349  69.660  1.00  0.00    -0.225 NA 
HETATM    3  C   UNL     1      -9.450   7.900  68.978  1.00  0.00    -0.151 A  
HETATM    4  C   UNL     1     -10.795   9.656  69.285  1.00  0.00    -0.205 A  
HETATM    5  N   UNL     1      -8.989   8.841  68.177  1.00  0.00    -0.141 NA 
HETATM    6  C   UNL     1     -11.748  10.614  69.643  1.00  0.00    -0.368 A  
HETATM    7  C   UNL     1      -9.797   9.930  68.367  1.00  0.00    -0.151 A  
HETATM    8  C   UNL     1     -11.655  11.877  69.023  1.00  0.00    -0.376 A  
HETATM    9  C   UNL     1      -9.726  11.199  67.776  1.00  0.00    -0.183 A  
HETATM   10  C   UNL     1     -10.668  12.201  68.075  1.00  0.00    -0.213 A  
ENDROOT
BRANCH   3  11
HETATM   11  C   UNL     1      -8.795   6.559  69.106  1.00  0.00    -0.128 C  
BRANCH  11  12
HETATM   12  C   UNL     1      -7.488   6.693  69.897  1.00  0.00    -0.095 C  
BRANCH  12  13
HETATM   13  C   UNL     1      -7.712   6.723  71.403  1.00  0.00    -0.093 C  
HETATM   14  O   UNL     1      -6.419   8.698  71.834  1.00  0.00    -0.067 OA 
HETATM   15  O   UNL     1      -8.585   8.705  72.465  1.00  0.00    -0.364 OA 
HETATM   16  C   UNL     1      -7.639   8.131  71.946  1.00  0.00    -0.097 C  
ENDBRANCH  12  13
ENDBRANCH  11  12
ENDBRANCH   3  11
BRANCH  10  17
HETATM   17  N   UNL     1     -10.621  13.438  67.437  1.00  0.00    -0.250 NA 
BRANCH  17  18
HETATM   18  C   UNL     1      -9.503  13.852  66.570  1.00  0.00    -0.274 C  
HETATM   19 CL   UNL     1      -7.780  14.087  68.714  1.00  0.00    -0.132 Cl 
HETATM   20  C   UNL     1      -8.518  14.805  67.256  1.00  0.00    -0.214 C  
ENDBRANCH  17  18
BRANCH  17  21
HETATM   21  C   UNL     1     -11.643  14.463  67.738  1.00  0.00    -0.356 C  
HETATM   22 CL   UNL     1     -10.385  15.329  70.035  1.00  0.00    -0.273 Cl 
HETATM   23  C   UNL     1     -11.853  14.694  69.240  1.00  0.00    -0.321 C  
ENDBRANCH  17  21
ENDBRANCH  10  17
TORSDOF 6
ENDMDL
MODEL      214
REMARK 921   NORMALIZED FREE ENERGY PREDICTED BY IDOCK:   -3.18 KCAL/MOL
REMARK 922        TOTAL FREE ENERGY PREDICTED BY IDOCK:   -5.08 KCAL/MOL
REMARK 923 INTER-LIGAND FREE ENERGY PREDICTED BY IDOCK:   -4.06 KCAL/MOL
REMARK 924 INTRA-LIGAND FREE ENERGY PREDICTED BY IDOCK:   -1.02 KCAL/MOL
REMARK 927      BINDING AFFINITY PREDICTED BY RF-SCORE:    0.00 PKD
ROOT
HETATM    1  C   UNL     1      -9.834  10.286  68.205  1.00  0.00    -0.148 C  
HETATM    2  N   UNL     1      -9.641   8.912  68.612  1.00  0.00    -0.152 NA 
HETATM    3  C   UNL     1      -9.754   8.370  69.877  1.00  0.00    -0.179 A  
HETATM    4  C   UNL     1      -9.285   7.901  67.744  1.00  0.00    -0.137 A  
HETATM    5  N   UNL     1      -9.515   7.073  69.846  1.00  0.00    -0.157 NA 
HETATM    6  C   UNL     1      -9.019   7.848  66.373  1.00  0.00    -0.200 A  
HETATM    7  C   UNL     1      -9.211   6.775  68.545  1.00  0.00    -0.128 A  
HETATM    8  C   UNL     1      -8.676   6.591  65.833  1.00  0.00    -0.149 A  
HETATM    9  C   UNL     1      -8.858   5.542  67.979  1.00  0.00    -0.105 A  
HETATM   10  C   UNL     1      -8.600   5.415  66.600  1.00  0.00    -0.115 A  
ENDROOT
BRANCH   3  11
HETATM   11  C   UNL     1     -10.071   9.101  71.145  1.00  0.00    -0.384 C  
BRANCH  11  12
HETATM   12  C   UNL     1     -11.590   9.258  71.289  1.00  0.00    -0.419 C  
BRANCH  12  13
HETATM   13  C   UNL     1     -12.172   8.376  72.386  1.00  0.00    -0.430 C  
HETATM   14  O   UNL     1     -13.566   7.044  70.958  1.00  0.00    -0.195 OA 
HETATM   15  O   UNL     1     -12.032   5.974  72.219  1.00  0.00    -0.318 OA 
HETATM   16  C   UNL     1     -12.559   7.016  71.856  1.00  0.00    -0.295 C  
ENDBRANCH  12  13
ENDBRANCH  11  12
ENDBRANCH   3  11
BRANCH  10  17
HETATM   17  N   UNL     1      -8.307   4.174  66.041  1.00  0.00    -0.108 NA 
BRANCH  17  18
HETATM   18  C   UNL     1      -7.035   3.882  65.357  1.00  0.00    -0.061 C  
HETATM   19 CL   UNL     1      -5.722   3.445  67.747  1.00  0.00    -0.021 Cl 
HETATM   20  C   UNL     1      -5.798   4.280  66.171  1.00  0.00    -0.023 C  
ENDBRANCH  17  18
BRANCH  17  21
HETATM   21  C   UNL     1      -9.351   3.129  65.978  1.00  0.00    -0.096 C  
HETATM   22 CL   UNL     1      -8.880   2.223  68.540  1.00  0.00    -0.133 Cl 
HETATM   23  C   UNL     1      -9.011   1.875  66.794  1.00  0.00    -0.104 C  
ENDBRANCH  17  21
ENDBRANCH  10  17
TORSDOF 6
ENDMDL
MODEL      215
REMARK 921   NORMALIZED FREE ENERGY PREDICTED BY IDOCK:   -3.16 KCAL/MOL
REMARK 922        TOTAL FREE ENERGY PREDICTED BY IDOCK:   -5.04 KCAL/MOL
REMARK 923 INTER-LIGAND FREE ENERGY PREDICTED BY IDOCK:   -4.48 KCAL/MOL
REMARK 924 INTRA-LIGAND FREE ENERGY PREDICTED BY IDOCK:   -0.56 KCAL/MOL
REMARK 927      BINDING AFFINITY PREDICTED BY RF-SCORE:    0.00 PKD
ROOT
HETATM    1  C   UNL     1     -10.044   6.990  69.543  1.00  0.00    -0.173 C  
HETATM    2  N   UNL     1      -9.249   8.129  69.140  1.00  0.00    -0.151 NA 
HETATM    3  C   UNL     1      -7.905   8.168  68.830  1.00  0.00    -0.113 A  
HETATM    4  C   UNL     1      -9.754   9.407  69.019  1.00  0.00    -0.166 A  
HETATM    5  N   UNL     1      -7.545   9.393  68.494  1.00  0.00    -0.081 NA 
HETATM    6  C   UNL     1     -11.016   9.974  69.213  1.00  0.00    -0.264 A  
HETATM    7  C   UNL     1      -8.667  10.166  68.621  1.00  0.00    -0.128 A  
HETATM    8  C   UNL     1     -11.141  11.360  68.980  1.00  0.00    -0.300 A  
HETATM    9  C   UNL     1      -8.823  11.542  68.408  1.00  0.00    -0.163 A  
HETATM   10  C   UNL     1     -10.072  12.173  68.563  1.00  0.00    -0.187 A  
ENDROOT
BRANCH   3  11
HETATM   11  C   UNL     1      -6.936   7.027  68.875  1.00  0.00    -0.079 C  
BRANCH  11  12
HETATM   12  C   UNL     1      -7.170   6.099  67.676  1.00  0.00    -0.079 C  
BRANCH  12  13
HETATM   13  C   UNL     1      -6.900   6.783  66.342  1.00  0.00    -0.061 C  
HETATM   14  O   UNL     1      -8.711   5.765  65.141  1.00  0.00    -0.142 OA 
HETATM   15  O   UNL     1      -8.649   8.017  65.231  1.00  0.00    -0.153 OA 
HETATM   16  C   UNL     1      -8.166   6.936  65.532  1.00  0.00    -0.135 C  
ENDBRANCH  12  13
ENDBRANCH  11  12
ENDBRANCH   3  11
BRANCH  10  17
HETATM   17  N   UNL     1     -10.225  13.529  68.291  1.00  0.00    -0.245 NA 
BRANCH  17  18
HETATM   18  C   UNL     1      -9.323  14.563  68.829  1.00  0.00    -0.177 C  
HETATM   19 CL   UNL     1     -11.102  15.234  70.831  1.00  0.00    -0.359 Cl 
HETATM   20  C   UNL     1     -10.059  15.742  69.474  1.00  0.00    -0.279 C  
ENDBRANCH  17  18
BRANCH  17  21
HETATM   21  C   UNL     1     -11.420  14.005  67.561  1.00  0.00    -0.343 C  
HETATM   22 CL   UNL     1     -11.316  11.993  65.678  1.00  0.00    -0.388 Cl 
HETATM   23  C   UNL     1     -11.360  13.739  66.051  1.00  0.00    -0.314 C  
ENDBRANCH  17  21
ENDBRANCH  10  17
TORSDOF 6
ENDMDL
MODEL      216
REMARK 921   NORMALIZED FREE ENERGY PREDICTED BY IDOCK:   -3.14 KCAL/MOL
REMARK 922        TOTAL FREE ENERGY PREDICTED BY IDOCK:   -5.01 KCAL/MOL
REMARK 923 INTER-LIGAND FREE ENERGY PREDICTED BY IDOCK:   -5.51 KCAL/MOL
REMARK 924 INTRA-LIGAND FREE ENERGY PREDICTED BY IDOCK:    0.50 KCAL/MOL
REMARK 927      BINDING AFFINITY PREDICTED BY RF-SCORE:    0.00 PKD
ROOT
HETATM    1  C   UNL     1      -9.519   9.621  64.905  1.00  0.00    -0.220 C  
HETATM    2  N   UNL     1      -9.098  10.504  65.969  1.00  0.00    -0.163 NA 
HETATM    3  C   UNL     1      -8.355  10.200  67.091  1.00  0.00    -0.125 A  
HETATM    4  C   UNL     1      -9.414  11.846  66.017  1.00  0.00    -0.229 A  
HETATM    5  N   UNL     1      -8.163  11.280  67.825  1.00  0.00    -0.117 NA 
HETATM    6  C   UNL     1     -10.142  12.702  65.186  1.00  0.00    -0.257 A  
HETATM    7  C   UNL     1      -8.822  12.295  67.185  1.00  0.00    -0.194 A  
HETATM    8  C   UNL     1     -10.245  14.051  65.584  1.00  0.00    -0.351 A  
HETATM    9  C   UNL     1      -8.951  13.639  67.557  1.00  0.00    -0.209 A  
HETATM   10  C   UNL     1      -9.652  14.559  66.753  1.00  0.00    -0.263 A  
ENDROOT
BRANCH   3  11
HETATM   11  C   UNL     1      -7.835   8.853  67.490  1.00  0.00    -0.101 C  
BRANCH  11  12
HETATM   12  C   UNL     1      -8.535   8.385  68.772  1.00  0.00    -0.124 C  
BRANCH  12  13
HETATM   13  C   UNL     1     -10.042   8.243  68.601  1.00  0.00    -0.212 C  
HETATM   14  O   UNL     1     -10.152   5.892  69.068  1.00  0.00    -0.158 OA 
HETATM   15  O   UNL     1     -11.381   7.275  70.358  1.00  0.00    -0.281 OA 
HETATM   16  C   UNL     1     -10.590   7.113  69.440  1.00  0.00    -0.233 C  
ENDBRANCH  12  13
ENDBRANCH  11  12
ENDBRANCH   3  11
BRANCH  10  17
HETATM   17  N   UNL     1      -9.723  15.904  67.105  1.00  0.00    -0.222 NA 
BRANCH  17  18
HETATM   18  C   UNL     1      -9.227  16.988  66.238  1.00  0.00    -0.247 C  
HETATM   19 CL   UNL     1     -10.732  18.887  67.562  1.00  0.00    -0.520 Cl 
HETATM   20  C   UNL     1     -10.243  18.116  66.028  1.00  0.00    -0.320 C  
ENDBRANCH  17  18
BRANCH  17  21
HETATM   21  C   UNL     1     -10.170  16.290  68.461  1.00  0.00    -0.247 C  
HETATM   22 CL   UNL     1     -11.978  14.218  68.671  1.00  0.00    -0.367 Cl 
HETATM   23  C   UNL     1     -11.646  15.972  68.732  1.00  0.00    -0.351 C  
ENDBRANCH  17  21
ENDBRANCH  10  17
TORSDOF 6
ENDMDL
MODEL      217
REMARK 921   NORMALIZED FREE ENERGY PREDICTED BY IDOCK:   -3.13 KCAL/MOL
REMARK 922        TOTAL FREE ENERGY PREDICTED BY IDOCK:   -5.00 KCAL/MOL
REMARK 923 INTER-LIGAND FREE ENERGY PREDICTED BY IDOCK:   -4.05 KCAL/MOL
REMARK 924 INTRA-LIGAND FREE ENERGY PREDICTED BY IDOCK:   -0.96 KCAL/MOL
REMARK 927      BINDING AFFINITY PREDICTED BY RF-SCORE:    0.00 PKD
ROOT
HETATM    1  C   UNL     1      -8.245   9.383  64.979  1.00  0.00    -0.138 C  
HETATM    2  N   UNL     1      -8.522   8.233  65.811  1.00  0.00    -0.143 NA 
HETATM    3  C   UNL     1      -8.399   6.896  65.491  1.00  0.00    -0.137 A  
HETATM    4  C   UNL     1      -8.986   8.321  67.106  1.00  0.00    -0.138 A  
HETATM    5  N   UNL     1      -8.735   6.142  66.521  1.00  0.00    -0.128 NA 
HETATM    6  C   UNL     1      -9.309   9.387  67.951  1.00  0.00    -0.142 A  
HETATM    7  C   UNL     1      -9.112   7.005  67.515  1.00  0.00    -0.122 A  
HETATM    8  C   UNL     1      -9.765   9.066  69.246  1.00  0.00    -0.168 A  
HETATM    9  C   UNL     1      -9.577   6.720  68.805  1.00  0.00    -0.132 A  
HETATM   10  C   UNL     1      -9.898   7.746  69.713  1.00  0.00    -0.178 A  
ENDROOT
BRANCH   3  11
HETATM   11  C   UNL     1      -7.979   6.319  64.174  1.00  0.00    -0.103 C  
BRANCH  11  12
HETATM   12  C   UNL     1      -7.468   4.886  64.374  1.00  0.00    -0.068 C  
BRANCH  12  13
HETATM   13  C   UNL     1      -8.247   3.864  63.555  1.00  0.00    -0.090 C  
HETATM   14  O   UNL     1      -9.389   2.845  65.404  1.00  0.00    -0.150 OA 
HETATM   15  O   UNL     1     -10.647   3.723  63.750  1.00  0.00    -0.250 OA 
HETATM   16  C   UNL     1      -9.546   3.491  64.229  1.00  0.00    -0.160 C  
ENDBRANCH  12  13
ENDBRANCH  11  12
ENDBRANCH   3  11
BRANCH  10  17
HETATM   17  N   UNL     1     -10.304   7.449  71.012  1.00  0.00    -0.196 NA 
BRANCH  17  18
HETATM   18  C   UNL     1     -10.950   6.177  71.379  1.00  0.00    -0.277 C  
HETATM   19 CL   UNL     1     -13.475   7.283  71.217  1.00  0.00    -0.397 Cl 
HETATM   20  C   UNL     1     -12.264   6.358  72.148  1.00  0.00    -0.229 C  
ENDBRANCH  17  18
BRANCH  17  21
HETATM   21  C   UNL     1     -10.237   8.488  72.061  1.00  0.00    -0.321 C  
HETATM   22 CL   UNL     1      -7.502   8.300  72.355  1.00  0.00    -0.146 Cl 
HETATM   23  C   UNL     1      -9.127   8.246  73.092  1.00  0.00    -0.235 C  
ENDBRANCH  17  21
ENDBRANCH  10  17
TORSDOF 6
ENDMDL
MODEL      218
REMARK 921   NORMALIZED FREE ENERGY PREDICTED BY IDOCK:   -3.12 KCAL/MOL
REMARK 922        TOTAL FREE ENERGY PREDICTED BY IDOCK:   -4.99 KCAL/MOL
REMARK 923 INTER-LIGAND FREE ENERGY PREDICTED BY IDOCK:   -4.03 KCAL/MOL
REMARK 924 INTRA-LIGAND FREE ENERGY PREDICTED BY IDOCK:   -0.96 KCAL/MOL
REMARK 927      BINDING AFFINITY PREDICTED BY RF-SCORE:    0.00 PKD
ROOT
HETATM    1  C   UNL     1     -11.030   6.446  66.737  1.00  0.00    -0.251 C  
HETATM    2  N   UNL     1     -10.510   7.018  67.959  1.00  0.00    -0.195 NA 
HETATM    3  C   UNL     1     -10.350   8.350  68.281  1.00  0.00    -0.199 A  
HETATM    4  C   UNL     1     -10.064   6.264  69.025  1.00  0.00    -0.172 A  
HETATM    5  N   UNL     1      -9.855   8.475  69.497  1.00  0.00    -0.184 NA 
HETATM    6  C   UNL     1      -9.966   4.891  69.270  1.00  0.00    -0.270 A  
HETATM    7  C   UNL     1      -9.660   7.201  69.960  1.00  0.00    -0.164 A  
HETATM    8  C   UNL     1      -9.442   4.497  70.518  1.00  0.00    -0.246 A  
HETATM    9  C   UNL     1      -9.134   6.776  71.187  1.00  0.00    -0.151 A  
HETATM   10  C   UNL     1      -9.029   5.409  71.506  1.00  0.00    -0.135 A  
ENDROOT
BRANCH   3  11
HETATM   11  C   UNL     1     -10.650   9.530  67.408  1.00  0.00    -0.337 C  
BRANCH  11  12
HETATM   12  C   UNL     1      -9.353  10.287  67.095  1.00  0.00    -0.175 C  
BRANCH  12  13
HETATM   13  C   UNL     1      -8.309   9.409  66.415  1.00  0.00    -0.116 C  
HETATM   14  O   UNL     1      -8.873  10.008  64.161  1.00  0.00    -0.183 OA 
HETATM   15  O   UNL     1      -6.753  10.366  64.841  1.00  0.00    -0.118 OA 
HETATM   16  C   UNL     1      -7.888   9.982  65.083  1.00  0.00    -0.136 C  
ENDBRANCH  12  13
ENDBRANCH  11  12
ENDBRANCH   3  11
BRANCH  10  17
HETATM   17  N   UNL     1      -8.560   5.001  72.751  1.00  0.00    -0.119 NA 
BRANCH  17  18
HETATM   18  C   UNL     1      -9.232   5.348  74.016  1.00  0.00    -0.121 C  
HETATM   19 CL   UNL     1     -11.285   3.563  73.546  1.00  0.00    -0.318 Cl 
HETATM   20  C   UNL     1     -10.758   5.219  73.953  1.00  0.00    -0.272 C  
ENDBRANCH  17  18
BRANCH  17  21
HETATM   21  C   UNL     1      -7.253   4.318  72.860  1.00  0.00    -0.069 C  
HETATM   22 CL   UNL     1      -8.345   1.786  72.783  1.00  0.00    -0.053 Cl 
HETATM   23  C   UNL     1      -7.320   2.986  73.619  1.00  0.00    -0.050 C  
ENDBRANCH  17  21
ENDBRANCH  10  17
TORSDOF 6
ENDMDL
MODEL      219
REMARK 921   NORMALIZED FREE ENERGY PREDICTED BY IDOCK:   -3.11 KCAL/MOL
REMARK 922        TOTAL FREE ENERGY PREDICTED BY IDOCK:   -4.98 KCAL/MOL
REMARK 923 INTER-LIGAND FREE ENERGY PREDICTED BY IDOCK:   -4.38 KCAL/MOL
REMARK 924 INTRA-LIGAND FREE ENERGY PREDICTED BY IDOCK:   -0.60 KCAL/MOL
REMARK 927      BINDING AFFINITY PREDICTED BY RF-SCORE:    0.00 PKD
ROOT
HETATM    1  C   UNL     1      -9.866  14.546  65.780  1.00  0.00    -0.314 C  
HETATM    2  N   UNL     1     -10.275  13.728  66.900  1.00  0.00    -0.258 NA 
HETATM    3  C   UNL     1     -11.328  13.930  67.769  1.00  0.00    -0.308 A  
HETATM    4  C   UNL     1      -9.621  12.575  67.281  1.00  0.00    -0.205 A  
HETATM    5  N   UNL     1     -11.387  12.956  68.656  1.00  0.00    -0.267 NA 
HETATM    6  C   UNL     1      -8.502  11.890  66.801  1.00  0.00    -0.167 A  
HETATM    7  C   UNL     1     -10.336  12.124  68.378  1.00  0.00    -0.229 A  
HETATM    8  C   UNL     1      -8.130  10.710  67.479  1.00  0.00    -0.111 A  
HETATM    9  C   UNL     1      -9.935  10.954  69.035  1.00  0.00    -0.206 A  
HETATM   10  C   UNL     1      -8.830  10.204  68.589  1.00  0.00    -0.136 A  
ENDROOT
BRANCH   3  11
HETATM   11  C   UNL     1     -12.283  15.084  67.774  1.00  0.00     0.180 C  
BRANCH  11  12
HETATM   12  C   UNL     1     -11.764  16.183  68.710  1.00  0.00    -0.231 C  
BRANCH  12  13
HETATM   13  C   UNL     1     -10.301  16.527  68.460  1.00  0.00    -0.289 C  
HETATM   14  O   UNL     1     -10.672  17.934  66.551  1.00  0.00    -0.263 OA 
HETATM   15  O   UNL     1      -9.598  18.830  68.320  1.00  0.00    -0.318 OA 
HETATM   16  C   UNL     1     -10.155  17.876  67.797  1.00  0.00    -0.348 C  
ENDBRANCH  12  13
ENDBRANCH  11  12
ENDBRANCH   3  11
BRANCH  10  17
HETATM   17  N   UNL     1      -8.478   9.011  69.215  1.00  0.00    -0.125 NA 
BRANCH  17  18
HETATM   18  C   UNL     1      -8.587   8.806  70.671  1.00  0.00    -0.178 C  
HETATM   19 CL   UNL     1      -6.062   9.829  71.118  1.00  0.00    -0.067 Cl 
HETATM   20  C   UNL     1      -7.245   8.512  71.349  1.00  0.00    -0.092 C  
ENDBRANCH  17  18
BRANCH  17  21
HETATM   21  C   UNL     1      -7.820   7.937  68.441  1.00  0.00    -0.120 C  
HETATM   22 CL   UNL     1     -10.196   6.810  67.608  1.00  0.00    -0.201 Cl 
HETATM   23  C   UNL     1      -8.615   6.625  68.418  1.00  0.00    -0.124 C  
ENDBRANCH  17  21
ENDBRANCH  10  17
TORSDOF 6
ENDMDL
MODEL      220
REMARK 921   NORMALIZED FREE ENERGY PREDICTED BY IDOCK:   -3.07 KCAL/MOL
REMARK 922        TOTAL FREE ENERGY PREDICTED BY IDOCK:   -4.93 KCAL/MOL
REMARK 923 INTER-LIGAND FREE ENERGY PREDICTED BY IDOCK:   -4.74 KCAL/MOL
REMARK 924 INTRA-LIGAND FREE ENERGY PREDICTED BY IDOCK:   -0.19 KCAL/MOL
REMARK 927      BINDING AFFINITY PREDICTED BY RF-SCORE:    0.00 PKD
ROOT
HETATM    1  C   UNL     1      -7.317   8.885  70.105  1.00  0.00    -0.059 C  
HETATM    2  N   UNL     1      -8.443   9.709  69.725  1.00  0.00    -0.172 NA 
HETATM    3  C   UNL     1      -9.771   9.553  70.065  1.00  0.00    -0.236 A  
HETATM    4  C   UNL     1      -8.337  10.819  68.912  1.00  0.00    -0.147 A  
HETATM    5  N   UNL     1     -10.499  10.517  69.534  1.00  0.00    -0.237 NA 
HETATM    6  C   UNL     1      -7.271  11.448  68.262  1.00  0.00    -0.082 A  
HETATM    7  C   UNL     1      -9.633  11.292  68.811  1.00  0.00    -0.151 A  
HETATM    8  C   UNL     1      -7.571  12.595  67.499  1.00  0.00    -0.160 A  
HETATM    9  C   UNL     1      -9.899  12.430  68.037  1.00  0.00    -0.205 A  
HETATM   10  C   UNL     1      -8.868  13.124  67.375  1.00  0.00    -0.204 A  
ENDROOT
BRANCH   3  11
HETATM   11  C   UNL     1     -10.367   8.454  70.890  1.00  0.00    -0.234 C  
BRANCH  11  12
HETATM   12  C   UNL     1     -11.100   7.461  69.979  1.00  0.00    -0.238 C  
BRANCH  12  13
HETATM   13  C   UNL     1     -11.388   6.133  70.669  1.00  0.00    -0.368 C  
HETATM   14  O   UNL     1      -9.421   4.992  69.902  1.00  0.00    -0.135 OA 
HETATM   15  O   UNL     1      -9.747   5.138  72.129  1.00  0.00    -0.155 OA 
HETATM   16  C   UNL     1     -10.115   5.388  70.990  1.00  0.00    -0.216 C  
ENDBRANCH  12  13
ENDBRANCH  11  12
ENDBRANCH   3  11
BRANCH  10  17
HETATM   17  N   UNL     1      -9.138  14.286  66.657  1.00  0.00    -0.251 NA 
BRANCH  17  18
HETATM   18  C   UNL     1     -10.229  14.386  65.672  1.00  0.00    -0.350 C  
HETATM   19 CL   UNL     1     -12.083  15.007  67.623  1.00  0.00    -0.109 Cl 
HETATM   20  C   UNL     1     -11.599  13.992  66.236  1.00  0.00    -0.369 C  
ENDBRANCH  17  18
BRANCH  17  21
HETATM   21  C   UNL     1      -8.218  15.440  66.749  1.00  0.00    -0.217 C  
HETATM   22 CL   UNL     1      -8.712  15.875  69.427  1.00  0.00    -0.244 Cl 
HETATM   23  C   UNL     1      -8.671  16.505  67.756  1.00  0.00    -0.196 C  
ENDBRANCH  17  21
ENDBRANCH  10  17
TORSDOF 6
ENDMDL
MODEL      221
REMARK 921   NORMALIZED FREE ENERGY PREDICTED BY IDOCK:   -3.05 KCAL/MOL
REMARK 922        TOTAL FREE ENERGY PREDICTED BY IDOCK:   -4.89 KCAL/MOL
REMARK 923 INTER-LIGAND FREE ENERGY PREDICTED BY IDOCK:   -4.62 KCAL/MOL
REMARK 924 INTRA-LIGAND FREE ENERGY PREDICTED BY IDOCK:   -0.27 KCAL/MOL
REMARK 927      BINDING AFFINITY PREDICTED BY RF-SCORE:    0.00 PKD
ROOT
HETATM    1  C   UNL     1      -8.118  10.783  68.802  1.00  0.00    -0.143 C  
HETATM    2  N   UNL     1      -8.808  11.724  67.948  1.00  0.00    -0.158 NA 
HETATM    3  C   UNL     1      -9.994  11.549  67.264  1.00  0.00    -0.191 A  
HETATM    4  C   UNL     1      -8.340  12.992  67.674  1.00  0.00    -0.181 A  
HETATM    5  N   UNL     1     -10.309  12.644  66.599  1.00  0.00    -0.235 NA 
HETATM    6  C   UNL     1      -7.206  13.712  68.060  1.00  0.00    -0.130 A  
HETATM    7  C   UNL     1      -9.294  13.533  66.830  1.00  0.00    -0.253 A  
HETATM    8  C   UNL     1      -7.076  15.024  67.557  1.00  0.00    -0.224 A  
HETATM    9  C   UNL     1      -9.130  14.835  66.340  1.00  0.00    -0.267 A  
HETATM   10  C   UNL     1      -8.022  15.623  66.708  1.00  0.00    -0.211 A  
ENDROOT
BRANCH   3  11
HETATM   11  C   UNL     1     -10.834  10.309  67.219  1.00  0.00    -0.312 C  
BRANCH  11  12
HETATM   12  C   UNL     1     -10.274   9.340  66.170  1.00  0.00    -0.229 C  
BRANCH  12  13
HETATM   13  C   UNL     1     -10.195   7.906  66.678  1.00  0.00    -0.303 C  
HETATM   14  O   UNL     1      -7.983   7.449  65.865  1.00  0.00    -0.105 OA 
HETATM   15  O   UNL     1      -8.358   7.209  68.076  1.00  0.00    -0.118 OA 
HETATM   16  C   UNL     1      -8.769   7.497  66.962  1.00  0.00    -0.127 C  
ENDBRANCH  12  13
ENDBRANCH  11  12
ENDBRANCH   3  11
BRANCH  10  17
HETATM   17  N   UNL     1      -7.901  16.936  66.261  1.00  0.00    -0.310 NA 
BRANCH  17  18
HETATM   18  C   UNL     1      -9.039  17.716  65.743  1.00  0.00     0.310 C  
HETATM   19 CL   UNL     1      -9.889  18.375  68.286  1.00  0.00    -0.356 Cl 
HETATM   20  C   UNL     1     -10.258  17.709  66.671  1.00  0.00    -0.341 C  
ENDBRANCH  17  18
BRANCH  17  21
HETATM   21  C   UNL     1      -6.563  17.555  66.144  1.00  0.00    -0.247 C  
HETATM   22 CL   UNL     1      -7.009  19.375  68.167  1.00  0.00    -0.295 Cl 
HETATM   23  C   UNL     1      -6.552  19.054  66.471  1.00  0.00    -0.193 C  
ENDBRANCH  17  21
ENDBRANCH  10  17
TORSDOF 6
ENDMDL
MODEL      222
REMARK 921   NORMALIZED FREE ENERGY PREDICTED BY IDOCK:   -3.04 KCAL/MOL
REMARK 922        TOTAL FREE ENERGY PREDICTED BY IDOCK:   -4.89 KCAL/MOL
REMARK 923 INTER-LIGAND FREE ENERGY PREDICTED BY IDOCK:   -4.34 KCAL/MOL
REMARK 924 INTRA-LIGAND FREE ENERGY PREDICTED BY IDOCK:   -0.54 KCAL/MOL
REMARK 927      BINDING AFFINITY PREDICTED BY RF-SCORE:    0.00 PKD
ROOT
HETATM    1  C   UNL     1      -7.676   8.328  66.706  1.00  0.00    -0.094 C  
HETATM    2  N   UNL     1      -8.531   9.104  67.575  1.00  0.00    -0.116 NA 
HETATM    3  C   UNL     1      -9.212   8.687  68.701  1.00  0.00    -0.138 A  
HETATM    4  C   UNL     1      -8.809  10.440  67.378  1.00  0.00    -0.132 A  
HETATM    5  N   UNL     1      -9.880   9.692  69.235  1.00  0.00    -0.179 NA 
HETATM    6  C   UNL     1      -8.427  11.380  66.416  1.00  0.00    -0.160 A  
HETATM    7  C   UNL     1      -9.653  10.772  68.424  1.00  0.00    -0.176 A  
HETATM    8  C   UNL     1      -8.934  12.688  66.559  1.00  0.00    -0.115 A  
HETATM    9  C   UNL     1     -10.147  12.078  68.531  1.00  0.00    -0.201 A  
HETATM   10  C   UNL     1      -9.783  13.078  67.609  1.00  0.00    -0.212 A  
ENDROOT
BRANCH   3  11
HETATM   11  C   UNL     1      -9.252   7.301  69.268  1.00  0.00    -0.144 C  
BRANCH  11  12
HETATM   12  C   UNL     1     -10.682   6.962  69.708  1.00  0.00    -0.276 C  
BRANCH  12  13
HETATM   13  C   UNL     1     -10.786   6.676  71.201  1.00  0.00    -0.284 C  
HETATM   14  O   UNL     1      -9.304   4.789  71.223  1.00  0.00    -0.136 OA 
HETATM   15  O   UNL     1      -8.795   6.536  72.555  1.00  0.00    -0.133 OA 
HETATM   16  C   UNL     1      -9.532   6.020  71.727  1.00  0.00    -0.151 C  
ENDBRANCH  12  13
ENDBRANCH  11  12
ENDBRANCH   3  11
BRANCH  10  17
HETATM   17  N   UNL     1     -10.235  14.386  67.760  1.00  0.00    -0.229 NA 
BRANCH  17  18
HETATM   18  C   UNL     1     -10.659  15.226  66.625  1.00  0.00    -0.304 C  
HETATM   19 CL   UNL     1     -12.976  13.767  66.268  1.00  0.00    -0.079 Cl 
HETATM   20  C   UNL     1     -11.485  14.468  65.580  1.00  0.00    -0.341 C  
ENDBRANCH  17  18
BRANCH  17  21
HETATM   21  C   UNL     1     -10.156  15.046  69.082  1.00  0.00    -0.245 C  
HETATM   22 CL   UNL     1     -12.758  14.437  69.763  1.00  0.00    -0.155 Cl 
HETATM   23  C   UNL     1     -11.484  15.667  69.535  1.00  0.00    -0.344 C  
ENDBRANCH  17  21
ENDBRANCH  10  17
TORSDOF 6
ENDMDL
MODEL      223
REMARK 921   NORMALIZED FREE ENERGY PREDICTED BY IDOCK:   -3.03 KCAL/MOL
REMARK 922        TOTAL FREE ENERGY PREDICTED BY IDOCK:   -4.86 KCAL/MOL
REMARK 923 INTER-LIGAND FREE ENERGY PREDICTED BY IDOCK:   -4.43 KCAL/MOL
REMARK 924 INTRA-LIGAND FREE ENERGY PREDICTED BY IDOCK:   -0.43 KCAL/MOL
REMARK 927      BINDING AFFINITY PREDICTED BY RF-SCORE:    0.00 PKD
ROOT
HETATM    1  C   UNL     1     -12.328  13.128  66.099  1.00  0.00    -0.315 C  
HETATM    2  N   UNL     1     -10.933  12.995  66.454  1.00  0.00    -0.278 NA 
HETATM    3  C   UNL     1     -10.083  13.958  66.958  1.00  0.00    -0.256 A  
HETATM    4  C   UNL     1     -10.218  11.824  66.315  1.00  0.00    -0.221 A  
HETATM    5  N   UNL     1      -8.883  13.450  67.169  1.00  0.00    -0.217 NA 
HETATM    6  C   UNL     1     -10.534  10.543  65.852  1.00  0.00    -0.224 A  
HETATM    7  C   UNL     1      -8.949  12.144  66.764  1.00  0.00    -0.203 A  
HETATM    8  C   UNL     1      -9.501   9.582  65.866  1.00  0.00    -0.307 A  
HETATM    9  C   UNL     1      -7.943  11.168  66.755  1.00  0.00    -0.156 A  
HETATM   10  C   UNL     1      -8.199   9.853  66.323  1.00  0.00    -0.114 A  
ENDROOT
BRANCH   3  11
HETATM   11  C   UNL     1     -10.406  15.397  67.223  1.00  0.00    -0.271 C  
BRANCH  11  12
HETATM   12  C   UNL     1     -10.176  15.716  68.705  1.00  0.00    -0.215 C  
BRANCH  12  13
HETATM   13  C   UNL     1     -10.256  17.207  69.006  1.00  0.00    -0.315 C  
HETATM   14  O   UNL     1      -8.129  17.792  68.060  1.00  0.00    -0.229 OA 
HETATM   15  O   UNL     1      -9.960  18.822  67.239  1.00  0.00    -0.306 OA 
HETATM   16  C   UNL     1      -9.460  18.016  68.009  1.00  0.00    -0.284 C  
ENDBRANCH  12  13
ENDBRANCH  11  12
ENDBRANCH   3  11
BRANCH  10  17
HETATM   17  N   UNL     1      -7.207   8.879  66.374  1.00  0.00    -0.083 NA 
BRANCH  17  18
HETATM   18  C   UNL     1      -6.723   8.291  67.637  1.00  0.00    -0.062 C  
HETATM   19 CL   UNL     1      -9.054   6.853  67.990  1.00  0.00    -0.121 Cl 
HETATM   20  C   UNL     1      -7.843   7.992  68.640  1.00  0.00    -0.118 C  
ENDBRANCH  17  18
BRANCH  17  21
HETATM   21  C   UNL     1      -6.477   8.502  65.144  1.00  0.00    -0.063 C  
HETATM   22 CL   UNL     1      -6.531   5.802  65.700  1.00  0.00    -0.042 Cl 
HETATM   23  C   UNL     1      -5.584   7.267  65.316  1.00  0.00    -0.033 C  
ENDBRANCH  17  21
ENDBRANCH  10  17
TORSDOF 6
ENDMDL
MODEL      224
REMARK 921   NORMALIZED FREE ENERGY PREDICTED BY IDOCK:   -3.01 KCAL/MOL
REMARK 922        TOTAL FREE ENERGY PREDICTED BY IDOCK:   -4.85 KCAL/MOL
REMARK 923 INTER-LIGAND FREE ENERGY PREDICTED BY IDOCK:   -4.41 KCAL/MOL
REMARK 924 INTRA-LIGAND FREE ENERGY PREDICTED BY IDOCK:   -0.43 KCAL/MOL
REMARK 927      BINDING AFFINITY PREDICTED BY RF-SCORE:    0.00 PKD
ROOT
HETATM    1  C   UNL     1      -8.024  11.161  68.932  1.00  0.00    -0.126 C  
HETATM    2  N   UNL     1      -8.798  10.199  68.180  1.00  0.00    -0.125 NA 
HETATM    3  C   UNL     1     -10.110  10.293  67.763  1.00  0.00    -0.180 A  
HETATM    4  C   UNL     1      -8.304   8.979  67.767  1.00  0.00    -0.117 A  
HETATM    5  N   UNL     1     -10.458   9.213  67.088  1.00  0.00    -0.265 NA 
HETATM    6  C   UNL     1      -7.073   8.332  67.906  1.00  0.00    -0.083 A  
HETATM    7  C   UNL     1      -9.363   8.392  67.096  1.00  0.00    -0.153 A  
HETATM    8  C   UNL     1      -6.950   7.052  67.326  1.00  0.00    -0.078 A  
HETATM    9  C   UNL     1      -9.211   7.114  66.540  1.00  0.00    -0.199 A  
HETATM   10  C   UNL     1      -7.990   6.418  66.625  1.00  0.00    -0.109 A  
ENDROOT
BRANCH   3  11
HETATM   11  C   UNL     1     -11.062  11.419  68.029  1.00  0.00    -0.317 C  
BRANCH  11  12
HETATM   12  C   UNL     1     -12.084  10.993  69.091  1.00  0.00    -0.333 C  
BRANCH  12  13
HETATM   13  C   UNL     1     -11.429  10.437  70.349  1.00  0.00    -0.420 C  
HETATM   14  O   UNL     1     -13.088  11.225  71.893  1.00  0.00    -0.493 OA 
HETATM   15  O   UNL     1     -12.675   9.008  71.840  1.00  0.00    -0.331 OA 
HETATM   16  C   UNL     1     -12.452  10.134  71.417  1.00  0.00    -0.423 C  
ENDBRANCH  12  13
ENDBRANCH  11  12
ENDBRANCH   3  11
BRANCH  10  17
HETATM   17  N   UNL     1      -7.835   5.175  66.018  1.00  0.00    -0.101 NA 
BRANCH  17  18
HETATM   18  C   UNL     1      -8.457   3.944  66.538  1.00  0.00    -0.105 C  
HETATM   19 CL   UNL     1     -10.725   4.310  65.006  1.00  0.00    -0.225 Cl 
HETATM   20  C   UNL     1      -9.987   4.014  66.604  1.00  0.00    -0.054 C  
ENDBRANCH  17  18
BRANCH  17  21
HETATM   21  C   UNL     1      -6.891   5.017  64.890  1.00  0.00    -0.049 C  
HETATM   22 CL   UNL     1      -8.146   6.901  63.315  1.00  0.00    -0.061 Cl 
HETATM   23  C   UNL     1      -7.538   5.234  63.516  1.00  0.00    -0.067 C  
ENDBRANCH  17  21
ENDBRANCH  10  17
TORSDOF 6
ENDMDL
MODEL      225
REMARK 921   NORMALIZED FREE ENERGY PREDICTED BY IDOCK:   -3.00 KCAL/MOL
REMARK 922        TOTAL FREE ENERGY PREDICTED BY IDOCK:   -4.83 KCAL/MOL
REMARK 923 INTER-LIGAND FREE ENERGY PREDICTED BY IDOCK:   -4.83 KCAL/MOL
REMARK 924 INTRA-LIGAND FREE ENERGY PREDICTED BY IDOCK:    0.01 KCAL/MOL
REMARK 927      BINDING AFFINITY PREDICTED BY RF-SCORE:    0.00 PKD
ROOT
HETATM    1  C   UNL     1      -9.609   6.519  68.134  1.00  0.00    -0.123 C  
HETATM    2  N   UNL     1      -9.303   7.799  68.731  1.00  0.00    -0.146 NA 
HETATM    3  C   UNL     1      -8.442   8.073  69.775  1.00  0.00    -0.127 A  
HETATM    4  C   UNL     1      -9.873   8.987  68.325  1.00  0.00    -0.166 A  
HETATM    5  N   UNL     1      -8.420   9.368  70.027  1.00  0.00    -0.170 NA 
HETATM    6  C   UNL     1     -10.808   9.330  67.344  1.00  0.00    -0.165 A  
HETATM    7  C   UNL     1      -9.305   9.940  69.154  1.00  0.00    -0.193 A  
HETATM    8  C   UNL     1     -11.148  10.694  67.229  1.00  0.00    -0.313 A  
HETATM    9  C   UNL     1      -9.673  11.285  69.019  1.00  0.00    -0.072 A  
HETATM   10  C   UNL     1     -10.592  11.700  68.037  1.00  0.00    -0.202 A  
ENDROOT
BRANCH   3  11
HETATM   11  C   UNL     1      -7.642   7.084  70.566  1.00  0.00    -0.090 C  
BRANCH  11  12
HETATM   12  C   UNL     1      -8.585   6.155  71.341  1.00  0.00    -0.128 C  
BRANCH  12  13
HETATM   13  C   UNL     1      -9.360   6.882  72.433  1.00  0.00    -0.149 C  
HETATM   14  O   UNL     1      -7.751   6.549  74.181  1.00  0.00    -0.097 OA 
HETATM   15  O   UNL     1      -8.326   8.670  73.676  1.00  0.00    -0.380 OA 
HETATM   16  C   UNL     1      -8.435   7.470  73.471  1.00  0.00    -0.168 C  
ENDBRANCH  12  13
ENDBRANCH  11  12
ENDBRANCH   3  11
BRANCH  10  17
HETATM   17  N   UNL     1     -10.904  13.048  67.876  1.00  0.00    -0.236 NA 
BRANCH  17  18
HETATM   18  C   UNL     1      -9.960  14.134  68.196  1.00  0.00    -0.232 C  
HETATM   19 CL   UNL     1      -9.701  14.843  65.541  1.00  0.00    -0.337 Cl 
HETATM   20  C   UNL     1      -8.933  14.398  67.089  1.00  0.00    -0.232 C  
ENDBRANCH  17  18
BRANCH  17  21
HETATM   21  C   UNL     1     -12.280  13.448  67.514  1.00  0.00    -0.185 C  
HETATM   22 CL   UNL     1     -12.047  12.618  64.895  1.00  0.00    -0.462 Cl 
HETATM   23  C   UNL     1     -12.418  13.919  66.061  1.00  0.00    -0.461 C  
ENDBRANCH  17  21
ENDBRANCH  10  17
TORSDOF 6
ENDMDL
MODEL      226
REMARK 921   NORMALIZED FREE ENERGY PREDICTED BY IDOCK:   -2.99 KCAL/MOL
REMARK 922        TOTAL FREE ENERGY PREDICTED BY IDOCK:   -4.81 KCAL/MOL
REMARK 923 INTER-LIGAND FREE ENERGY PREDICTED BY IDOCK:   -3.71 KCAL/MOL
REMARK 924 INTRA-LIGAND FREE ENERGY PREDICTED BY IDOCK:   -1.10 KCAL/MOL
REMARK 927      BINDING AFFINITY PREDICTED BY RF-SCORE:    0.00 PKD
ROOT
HETATM    1  C   UNL     1     -10.464   4.895  66.230  1.00  0.00    -0.304 C  
HETATM    2  N   UNL     1      -9.494   5.965  66.169  1.00  0.00    -0.141 NA 
HETATM    3  C   UNL     1      -8.225   5.939  65.628  1.00  0.00    -0.134 A  
HETATM    4  C   UNL     1      -9.714   7.225  66.685  1.00  0.00    -0.183 A  
HETATM    5  N   UNL     1      -7.646   7.119  65.752  1.00  0.00    -0.090 NA 
HETATM    6  C   UNL     1     -10.784   7.828  67.351  1.00  0.00    -0.300 A  
HETATM    7  C   UNL     1      -8.544   7.914  66.412  1.00  0.00    -0.147 A  
HETATM    8  C   UNL     1     -10.626   9.177  67.732  1.00  0.00    -0.289 A  
HETATM    9  C   UNL     1      -8.416   9.250  66.813  1.00  0.00    -0.129 A  
HETATM   10  C   UNL     1      -9.464   9.924  67.468  1.00  0.00    -0.151 A  
ENDROOT
BRANCH   3  11
HETATM   11  C   UNL     1      -7.535   4.765  65.003  1.00  0.00    -0.076 C  
BRANCH  11  12
HETATM   12  C   UNL     1      -6.576   4.127  66.017  1.00  0.00    -0.041 C  
BRANCH  12  13
HETATM   13  C   UNL     1      -7.271   3.132  66.938  1.00  0.00    -0.058 C  
HETATM   14  O   UNL     1      -6.222   3.861  68.970  1.00  0.00    -0.027 OA 
HETATM   15  O   UNL     1      -8.475   3.906  68.879  1.00  0.00    -0.075 OA 
HETATM   16  C   UNL     1      -7.402   3.676  68.341  1.00  0.00    -0.054 C  
ENDBRANCH  12  13
ENDBRANCH  11  12
ENDBRANCH   3  11
BRANCH  10  17
HETATM   17  N   UNL     1      -9.345  11.268  67.808  1.00  0.00    -0.159 NA 
BRANCH  17  18
HETATM   18  C   UNL     1     -10.444  12.044  68.412  1.00  0.00    -0.219 C  
HETATM   19 CL   UNL     1     -11.715  12.349  65.980  1.00  0.00    -0.461 Cl 
HETATM   20  C   UNL     1     -11.050  13.085  67.465  1.00  0.00    -0.268 C  
ENDBRANCH  17  18
BRANCH  17  21
HETATM   21  C   UNL     1      -8.133  12.023  67.425  1.00  0.00    -0.168 C  
HETATM   22 CL   UNL     1      -6.707  11.256  69.657  1.00  0.00    -0.133 Cl 
HETATM   23  C   UNL     1      -7.345  12.565  68.624  1.00  0.00    -0.099 C  
ENDBRANCH  17  21
ENDBRANCH  10  17
TORSDOF 6
ENDMDL
MODEL      227
REMARK 921   NORMALIZED FREE ENERGY PREDICTED BY IDOCK:   -2.99 KCAL/MOL
REMARK 922        TOTAL FREE ENERGY PREDICTED BY IDOCK:   -4.81 KCAL/MOL
REMARK 923 INTER-LIGAND FREE ENERGY PREDICTED BY IDOCK:   -4.19 KCAL/MOL
REMARK 924 INTRA-LIGAND FREE ENERGY PREDICTED BY IDOCK:   -0.62 KCAL/MOL
REMARK 927      BINDING AFFINITY PREDICTED BY RF-SCORE:    0.00 PKD
ROOT
HETATM    1  C   UNL     1      -7.792  10.161  69.786  1.00  0.00    -0.166 C  
HETATM    2  N   UNL     1      -8.708   9.430  68.940  1.00  0.00    -0.129 NA 
HETATM    3  C   UNL     1     -10.087   9.480  68.927  1.00  0.00    -0.188 A  
HETATM    4  C   UNL     1      -8.305   8.521  67.984  1.00  0.00    -0.127 A  
HETATM    5  N   UNL     1     -10.570   8.675  68.001  1.00  0.00    -0.187 NA 
HETATM    6  C   UNL     1      -7.060   8.049  67.558  1.00  0.00    -0.080 A  
HETATM    7  C   UNL     1      -9.487   8.068  67.424  1.00  0.00    -0.151 A  
HETATM    8  C   UNL     1      -7.057   7.090  66.523  1.00  0.00    -0.077 A  
HETATM    9  C   UNL     1      -9.448   7.108  66.404  1.00  0.00    -0.177 A  
HETATM   10  C   UNL     1      -8.228   6.608  65.912  1.00  0.00    -0.132 A  
ENDROOT
BRANCH   3  11
HETATM   11  C   UNL     1     -10.968  10.290  69.829  1.00  0.00    -0.338 C  
BRANCH  11  12
HETATM   12  C   UNL     1     -11.700   9.364  70.808  1.00  0.00    -0.349 C  
BRANCH  12  13
HETATM   13  C   UNL     1     -10.841   8.189  71.260  1.00  0.00    -0.278 C  
HETATM   14  O   UNL     1     -12.651   6.663  71.656  1.00  0.00    -0.347 OA 
HETATM   15  O   UNL     1     -11.058   6.040  70.186  1.00  0.00    -0.338 OA 
HETATM   16  C   UNL     1     -11.511   6.868  70.963  1.00  0.00    -0.314 C  
ENDBRANCH  12  13
ENDBRANCH  11  12
ENDBRANCH   3  11
BRANCH  10  17
HETATM   17  N   UNL     1      -8.202   5.698  64.859  1.00  0.00    -0.130 NA 
BRANCH  17  18
HETATM   18  C   UNL     1      -8.062   4.244  65.057  1.00  0.00    -0.098 C  
HETATM   19 CL   UNL     1     -10.571   3.747  64.018  1.00  0.00    -0.281 Cl 
HETATM   20  C   UNL     1      -9.391   3.535  65.340  1.00  0.00    -0.158 C  
ENDBRANCH  17  18
BRANCH  17  21
HETATM   21  C   UNL     1      -8.159   6.185  63.464  1.00  0.00    -0.065 C  
HETATM   22 CL   UNL     1      -5.407   6.097  63.307  1.00  0.00    -0.017 Cl 
HETATM   23  C   UNL     1      -6.920   7.033  63.150  1.00  0.00    -0.058 C  
ENDBRANCH  17  21
ENDBRANCH  10  17
TORSDOF 6
ENDMDL
MODEL      228
REMARK 921   NORMALIZED FREE ENERGY PREDICTED BY IDOCK:   -2.98 KCAL/MOL
REMARK 922        TOTAL FREE ENERGY PREDICTED BY IDOCK:   -4.80 KCAL/MOL
REMARK 923 INTER-LIGAND FREE ENERGY PREDICTED BY IDOCK:   -3.99 KCAL/MOL
REMARK 924 INTRA-LIGAND FREE ENERGY PREDICTED BY IDOCK:   -0.81 KCAL/MOL
REMARK 927      BINDING AFFINITY PREDICTED BY RF-SCORE:    0.00 PKD
ROOT
HETATM    1  C   UNL     1     -10.832   6.739  70.890  1.00  0.00    -0.249 C  
HETATM    2  N   UNL     1     -10.074   6.697  69.660  1.00  0.00    -0.178 NA 
HETATM    3  C   UNL     1      -9.716   7.747  68.839  1.00  0.00    -0.160 A  
HETATM    4  C   UNL     1      -9.591   5.533  69.100  1.00  0.00    -0.143 A  
HETATM    5  N   UNL     1      -9.013   7.310  67.811  1.00  0.00    -0.127 NA 
HETATM    6  C   UNL     1      -9.652   4.184  69.461  1.00  0.00    -0.274 A  
HETATM    7  C   UNL     1      -8.942   5.950  67.951  1.00  0.00    -0.111 A  
HETATM    8  C   UNL     1      -9.016   3.260  68.606  1.00  0.00    -0.185 A  
HETATM    9  C   UNL     1      -8.328   5.005  67.118  1.00  0.00    -0.106 A  
HETATM   10  C   UNL     1      -8.333   3.634  67.436  1.00  0.00    -0.094 A  
ENDROOT
BRANCH   3  11
HETATM   11  C   UNL     1     -10.068   9.192  69.018  1.00  0.00    -0.199 C  
BRANCH  11  12
HETATM   12  C   UNL     1     -10.831   9.697  67.787  1.00  0.00    -0.278 C  
BRANCH  12  13
HETATM   13  C   UNL     1     -11.338  11.124  67.954  1.00  0.00    -0.378 C  
HETATM   14  O   UNL     1     -10.161  12.053  66.080  1.00  0.00    -0.216 OA 
HETATM   15  O   UNL     1     -12.407  12.258  66.113  1.00  0.00    -0.588 OA 
HETATM   16  C   UNL     1     -11.376  11.855  66.633  1.00  0.00    -0.337 C  
ENDBRANCH  12  13
ENDBRANCH  11  12
ENDBRANCH   3  11
BRANCH  10  17
HETATM   17  N   UNL     1      -7.669   2.713  66.630  1.00  0.00    -0.074 NA 
BRANCH  17  18
HETATM   18  C   UNL     1      -8.373   1.747  65.767  1.00  0.00    -0.094 C  
HETATM   19 CL   UNL     1      -8.847   3.655  63.828  1.00  0.00    -0.095 Cl 
HETATM   20  C   UNL     1      -9.475   2.382  64.911  1.00  0.00    -0.060 C  
ENDBRANCH  17  18
BRANCH  17  21
HETATM   21  C   UNL     1      -6.201   2.566  66.731  1.00  0.00    -0.024 C  
HETATM   22 CL   UNL     1      -5.677   4.482  64.819  1.00  0.00    -0.014 Cl 
HETATM   23  C   UNL     1      -5.469   2.808  65.405  1.00  0.00    -0.009 C  
ENDBRANCH  17  21
ENDBRANCH  10  17
TORSDOF 6
ENDMDL
MODEL      229
REMARK 921   NORMALIZED FREE ENERGY PREDICTED BY IDOCK:   -2.98 KCAL/MOL
REMARK 922        TOTAL FREE ENERGY PREDICTED BY IDOCK:   -4.80 KCAL/MOL
REMARK 923 INTER-LIGAND FREE ENERGY PREDICTED BY IDOCK:   -5.43 KCAL/MOL
REMARK 924 INTRA-LIGAND FREE ENERGY PREDICTED BY IDOCK:    0.63 KCAL/MOL
REMARK 927      BINDING AFFINITY PREDICTED BY RF-SCORE:    0.00 PKD
ROOT
HETATM    1  C   UNL     1      -7.133  13.429  69.038  1.00  0.00    -0.053 C  
HETATM    2  N   UNL     1      -7.879  14.073  67.980  1.00  0.00    -0.137 NA 
HETATM    3  C   UNL     1      -8.717  13.494  67.049  1.00  0.00    -0.187 A  
HETATM    4  C   UNL     1      -7.839  15.430  67.735  1.00  0.00    -0.143 A  
HETATM    5  N   UNL     1      -9.227  14.414  66.252  1.00  0.00    -0.221 NA 
HETATM    6  C   UNL     1      -7.168  16.504  68.325  1.00  0.00    -0.159 A  
HETATM    7  C   UNL     1      -8.684  15.605  66.652  1.00  0.00    -0.298 A  
HETATM    8  C   UNL     1      -7.392  17.783  67.775  1.00  0.00    -0.205 A  
HETATM    9  C   UNL     1      -8.877  16.888  66.123  1.00  0.00    -0.279 A  
HETATM   10  C   UNL     1      -8.249  18.016  66.685  1.00  0.00    -0.261 A  
ENDROOT
BRANCH   3  11
HETATM   11  C   UNL     1      -9.024  12.036  66.896  1.00  0.00    -0.199 C  
BRANCH  11  12
HETATM   12  C   UNL     1     -10.540  11.814  66.967  1.00  0.00    -0.267 C  
BRANCH  12  13
HETATM   13  C   UNL     1     -10.916  10.579  67.777  1.00  0.00    -0.372 C  
HETATM   14  O   UNL     1     -10.261   8.962  66.130  1.00  0.00    -0.259 OA 
HETATM   15  O   UNL     1      -9.294   8.837  68.164  1.00  0.00    -0.139 OA 
HETATM   16  C   UNL     1     -10.069   9.389  67.396  1.00  0.00    -0.215 C  
ENDBRANCH  12  13
ENDBRANCH  11  12
ENDBRANCH   3  11
BRANCH  10  17
HETATM   17  N   UNL     1      -8.495  19.292  66.186  1.00  0.00    -0.426 NA 
BRANCH  17  18
HETATM   18  C   UNL     1      -9.852  19.802  65.919  1.00  0.00    -0.332 C  
HETATM   19 CL   UNL     1     -10.370  20.158  68.607  1.00  0.00    -0.450 Cl 
HETATM   20  C   UNL     1     -10.857  19.478  67.030  1.00  0.00    -0.427 C  
ENDBRANCH  17  18
BRANCH  17  21
HETATM   21  C   UNL     1      -7.368  20.145  65.753  1.00  0.00    -0.267 C  
HETATM   22 CL   UNL     1      -5.810  18.019  64.943  1.00  0.00     0.034 Cl 
HETATM   23  C   UNL     1      -5.995  19.488  65.942  1.00  0.00    -0.168 C  
ENDBRANCH  17  21
ENDBRANCH  10  17
TORSDOF 6
ENDMDL
MODEL      230
REMARK 921   NORMALIZED FREE ENERGY PREDICTED BY IDOCK:   -2.94 KCAL/MOL
REMARK 922        TOTAL FREE ENERGY PREDICTED BY IDOCK:   -4.75 KCAL/MOL
REMARK 923 INTER-LIGAND FREE ENERGY PREDICTED BY IDOCK:   -4.15 KCAL/MOL
REMARK 924 INTRA-LIGAND FREE ENERGY PREDICTED BY IDOCK:   -0.60 KCAL/MOL
REMARK 927      BINDING AFFINITY PREDICTED BY RF-SCORE:    0.00 PKD
ROOT
HETATM    1  C   UNL     1     -10.311  10.827  64.918  1.00  0.00    -0.299 C  
HETATM    2  N   UNL     1      -9.834  11.546  66.078  1.00  0.00    -0.217 NA 
HETATM    3  C   UNL     1      -9.314  11.034  67.249  1.00  0.00    -0.156 A  
HETATM    4  C   UNL     1      -9.850  12.922  66.183  1.00  0.00    -0.270 A  
HETATM    5  N   UNL     1      -8.977  12.011  68.070  1.00  0.00    -0.181 NA 
HETATM    6  C   UNL     1     -10.268  13.955  65.339  1.00  0.00    -0.356 A  
HETATM    7  C   UNL     1      -9.315  13.175  67.434  1.00  0.00    -0.213 A  
HETATM    8  C   UNL     1     -10.117  15.274  65.815  1.00  0.00    -0.384 A  
HETATM    9  C   UNL     1      -9.187  14.497  67.880  1.00  0.00    -0.196 A  
HETATM   10  C   UNL     1      -9.568  15.584  67.072  1.00  0.00    -0.224 A  
ENDROOT
BRANCH   3  11
HETATM   11  C   UNL     1      -9.154   9.589  67.608  1.00  0.00    -0.131 C  
BRANCH  11  12
HETATM   12  C   UNL     1     -10.416   9.090  68.325  1.00  0.00    -0.247 C  
BRANCH  12  13
HETATM   13  C   UNL     1     -10.111   8.050  69.396  1.00  0.00    -0.197 C  
HETATM   14  O   UNL     1     -11.169   9.209  71.211  1.00  0.00    -0.280 OA 
HETATM   15  O   UNL     1     -11.891   7.126  70.736  1.00  0.00    -0.325 OA 
HETATM   16  C   UNL     1     -11.149   8.067  70.493  1.00  0.00    -0.251 C  
ENDBRANCH  12  13
ENDBRANCH  11  12
ENDBRANCH   3  11
BRANCH  10  17
HETATM   17  N   UNL     1      -9.382  16.894  67.504  1.00  0.00    -0.230 NA 
BRANCH  17  18
HETATM   18  C   UNL     1     -10.415  17.655  68.230  1.00  0.00    -0.375 C  
HETATM   19 CL   UNL     1      -9.917  16.299  70.584  1.00  0.00     1.002 Cl 
HETATM   20  C   UNL     1     -11.085  16.856  69.354  1.00  0.00     0.032 C  
ENDBRANCH  17  18
BRANCH  17  21
HETATM   21  C   UNL     1      -8.168  17.638  67.104  1.00  0.00    -0.214 C  
HETATM   22 CL   UNL     1      -6.630  16.625  69.156  1.00  0.00    -0.195 Cl 
HETATM   23  C   UNL     1      -7.281  18.043  68.289  1.00  0.00    -0.248 C  
ENDBRANCH  17  21
ENDBRANCH  10  17
TORSDOF 6
ENDMDL
MODEL      231
REMARK 921   NORMALIZED FREE ENERGY PREDICTED BY IDOCK:   -2.93 KCAL/MOL
REMARK 922        TOTAL FREE ENERGY PREDICTED BY IDOCK:   -4.73 KCAL/MOL
REMARK 923 INTER-LIGAND FREE ENERGY PREDICTED BY IDOCK:   -4.01 KCAL/MOL
REMARK 924 INTRA-LIGAND FREE ENERGY PREDICTED BY IDOCK:   -0.72 KCAL/MOL
REMARK 927      BINDING AFFINITY PREDICTED BY RF-SCORE:    0.00 PKD
ROOT
HETATM    1  C   UNL     1     -10.115   7.442  69.556  1.00  0.00    -0.187 C  
HETATM    2  N   UNL     1      -9.342   8.523  68.985  1.00  0.00    -0.146 NA 
HETATM    3  C   UNL     1      -8.017   8.518  68.601  1.00  0.00    -0.116 A  
HETATM    4  C   UNL     1      -9.851   9.782  68.747  1.00  0.00    -0.169 A  
HETATM    5  N   UNL     1      -7.673   9.694  68.111  1.00  0.00    -0.086 NA 
HETATM    6  C   UNL     1     -11.101  10.377  68.943  1.00  0.00    -0.296 A  
HETATM    7  C   UNL     1      -8.787  10.485  68.209  1.00  0.00    -0.139 A  
HETATM    8  C   UNL     1     -11.236  11.729  68.562  1.00  0.00    -0.306 A  
HETATM    9  C   UNL     1      -8.952  11.829  67.850  1.00  0.00    -0.180 A  
HETATM   10  C   UNL     1     -10.190  12.482  68.000  1.00  0.00    -0.225 A  
ENDROOT
BRANCH   3  11
HETATM   11  C   UNL     1      -7.047   7.382  68.723  1.00  0.00    -0.081 C  
BRANCH  11  12
HETATM   12  C   UNL     1      -5.923   7.762  69.695  1.00  0.00    -0.027 C  
BRANCH  12  13
HETATM   13  C   UNL     1      -6.424   7.989  71.116  1.00  0.00    -0.038 C  
HETATM   14  O   UNL     1      -5.711  10.273  71.297  1.00  0.00    -0.200 OA 
HETATM   15  O   UNL     1      -7.902   9.832  71.605  1.00  0.00     0.282 OA 
HETATM   16  C   UNL     1      -6.771   9.440  71.355  1.00  0.00     0.055 C  
ENDBRANCH  12  13
ENDBRANCH  11  12
ENDBRANCH   3  11
BRANCH  10  17
HETATM   17  N   UNL     1     -10.357  13.800  67.585  1.00  0.00    -0.237 NA 
BRANCH  17  18
HETATM   18  C   UNL     1      -9.472  14.896  68.019  1.00  0.00    -0.198 C  
HETATM   19 CL   UNL     1     -10.879  15.250  70.368  1.00  0.00    -0.309 Cl 
HETATM   20  C   UNL     1     -10.180  15.947  68.881  1.00  0.00    -0.226 C  
ENDBRANCH  17  18
BRANCH  17  21
HETATM   21  C   UNL     1     -11.548  14.181  66.796  1.00  0.00    -0.391 C  
HETATM   22 CL   UNL     1     -10.433  13.448  64.383  1.00  0.00    -0.447 Cl 
HETATM   23  C   UNL     1     -11.212  14.698  65.392  1.00  0.00    -0.347 C  
ENDBRANCH  17  21
ENDBRANCH  10  17
TORSDOF 6
ENDMDL
MODEL      232
REMARK 921   NORMALIZED FREE ENERGY PREDICTED BY IDOCK:   -2.91 KCAL/MOL
REMARK 922        TOTAL FREE ENERGY PREDICTED BY IDOCK:   -4.70 KCAL/MOL
REMARK 923 INTER-LIGAND FREE ENERGY PREDICTED BY IDOCK:   -3.85 KCAL/MOL
REMARK 924 INTRA-LIGAND FREE ENERGY PREDICTED BY IDOCK:   -0.85 KCAL/MOL
REMARK 927      BINDING AFFINITY PREDICTED BY RF-SCORE:    0.00 PKD
ROOT
HETATM    1  C   UNL     1      -7.916   5.338  69.110  1.00  0.00    -0.089 C  
HETATM    2  N   UNL     1      -8.873   6.125  68.365  1.00  0.00    -0.114 NA 
HETATM    3  C   UNL     1      -9.722   5.712  67.359  1.00  0.00    -0.127 A  
HETATM    4  C   UNL     1      -9.067   7.476  68.560  1.00  0.00    -0.134 A  
HETATM    5  N   UNL     1     -10.457   6.721  66.931  1.00  0.00    -0.273 NA 
HETATM    6  C   UNL     1      -8.497   8.426  69.413  1.00  0.00    -0.125 A  
HETATM    7  C   UNL     1     -10.054   7.814  67.650  1.00  0.00    -0.196 A  
HETATM    8  C   UNL     1      -8.975   9.749  69.313  1.00  0.00    -0.177 A  
HETATM    9  C   UNL     1     -10.500   9.140  67.570  1.00  0.00    -0.335 A  
HETATM   10  C   UNL     1      -9.984  10.140  68.415  1.00  0.00    -0.156 A  
ENDROOT
BRANCH   3  11
HETATM   11  C   UNL     1      -9.824   4.337  66.772  1.00  0.00    -0.230 C  
BRANCH  11  12
HETATM   12  C   UNL     1      -9.755   4.419  65.242  1.00  0.00    -0.199 C  
BRANCH  12  13
HETATM   13  C   UNL     1      -8.332   4.306  64.711  1.00  0.00    -0.106 C  
HETATM   14  O   UNL     1      -8.065   6.624  64.149  1.00  0.00    -0.108 OA 
HETATM   15  O   UNL     1      -6.587   5.719  65.593  1.00  0.00    -0.041 OA 
HETATM   16  C   UNL     1      -7.574   5.602  64.881  1.00  0.00    -0.083 C  
ENDBRANCH  12  13
ENDBRANCH  11  12
ENDBRANCH   3  11
BRANCH  10  17
HETATM   17  N   UNL     1     -10.477  11.441  68.365  1.00  0.00    -0.192 NA 
BRANCH  17  18
HETATM   18  C   UNL     1      -9.609  12.632  68.420  1.00  0.00    -0.173 C  
HETATM   19 CL   UNL     1     -10.054  13.217  65.759  1.00  0.00    -0.295 Cl 
HETATM   20  C   UNL     1      -8.903  12.935  67.094  1.00  0.00    -0.210 C  
ENDBRANCH  17  18
BRANCH  17  21
HETATM   21  C   UNL     1     -11.936  11.680  68.410  1.00  0.00    -0.196 C  
HETATM   22 CL   UNL     1     -12.068  11.579  71.163  1.00  0.00    -0.279 Cl 
HETATM   23  C   UNL     1     -12.635  10.976  69.580  1.00  0.00    -0.017 C  
ENDBRANCH  17  21
ENDBRANCH  10  17
TORSDOF 6
ENDMDL
MODEL      233
REMARK 921   NORMALIZED FREE ENERGY PREDICTED BY IDOCK:   -2.88 KCAL/MOL
REMARK 922        TOTAL FREE ENERGY PREDICTED BY IDOCK:   -4.67 KCAL/MOL
REMARK 923 INTER-LIGAND FREE ENERGY PREDICTED BY IDOCK:   -4.88 KCAL/MOL
REMARK 924 INTRA-LIGAND FREE ENERGY PREDICTED BY IDOCK:    0.21 KCAL/MOL
REMARK 927      BINDING AFFINITY PREDICTED BY RF-SCORE:    0.00 PKD
ROOT
HETATM    1  C   UNL     1      -9.472   7.317  69.418  1.00  0.00    -0.154 C  
HETATM    2  N   UNL     1      -9.059   8.689  69.227  1.00  0.00    -0.148 NA 
HETATM    3  C   UNL     1      -8.278   9.471  70.054  1.00  0.00    -0.170 A  
HETATM    4  C   UNL     1      -9.422   9.451  68.136  1.00  0.00    -0.133 A  
HETATM    5  N   UNL     1      -8.108  10.670  69.530  1.00  0.00    -0.099 NA 
HETATM    6  C   UNL     1     -10.200   9.211  67.000  1.00  0.00    -0.333 A  
HETATM    7  C   UNL     1      -8.818  10.676  68.360  1.00  0.00    -0.145 A  
HETATM    8  C   UNL     1     -10.342  10.272  66.082  1.00  0.00    -0.253 A  
HETATM    9  C   UNL     1      -8.987  11.713  67.432  1.00  0.00    -0.166 A  
HETATM   10  C   UNL     1      -9.740  11.531  66.256  1.00  0.00    -0.215 A  
ENDROOT
BRANCH   3  11
HETATM   11  C   UNL     1      -7.700   9.082  71.381  1.00  0.00    -0.081 C  
BRANCH  11  12
HETATM   12  C   UNL     1      -6.187   8.870  71.245  1.00  0.00    -0.060 C  
BRANCH  12  13
HETATM   13  C   UNL     1      -5.597   8.082  72.408  1.00  0.00    -0.037 C  
HETATM   14  O   UNL     1      -5.780   9.827  74.044  1.00  0.00    -0.339 OA 
HETATM   15  O   UNL     1      -6.816   7.871  74.478  1.00  0.00    -0.111 OA 
HETATM   16  C   UNL     1      -6.138   8.563  73.734  1.00  0.00    -0.120 C  
ENDBRANCH  12  13
ENDBRANCH  11  12
ENDBRANCH   3  11
BRANCH  10  17
HETATM   17  N   UNL     1      -9.851  12.550  65.315  1.00  0.00    -0.194 NA 
BRANCH  17  18
HETATM   18  C   UNL     1     -10.065  13.962  65.682  1.00  0.00    -0.313 C  
HETATM   19 CL   UNL     1     -12.274  13.344  67.219  1.00  0.00    -0.340 Cl 
HETATM   20  C   UNL     1     -11.537  14.317  65.915  1.00  0.00    -0.358 C  
ENDBRANCH  17  18
BRANCH  17  21
HETATM   21  C   UNL     1      -9.914  12.222  63.875  1.00  0.00    -0.277 C  
HETATM   22 CL   UNL     1     -12.644  12.579  63.709  1.00  0.00    -0.506 Cl 
HETATM   23  C   UNL     1     -11.220  11.530  63.462  1.00  0.00    -0.322 C  
ENDBRANCH  17  21
ENDBRANCH  10  17
TORSDOF 6
ENDMDL
MODEL      234
REMARK 921   NORMALIZED FREE ENERGY PREDICTED BY IDOCK:   -2.87 KCAL/MOL
REMARK 922        TOTAL FREE ENERGY PREDICTED BY IDOCK:   -4.66 KCAL/MOL
REMARK 923 INTER-LIGAND FREE ENERGY PREDICTED BY IDOCK:   -4.23 KCAL/MOL
REMARK 924 INTRA-LIGAND FREE ENERGY PREDICTED BY IDOCK:   -0.43 KCAL/MOL
REMARK 927      BINDING AFFINITY PREDICTED BY RF-SCORE:    0.00 PKD
ROOT
HETATM    1  C   UNL     1      -7.572   4.804  69.669  1.00  0.00    -0.055 C  
HETATM    2  N   UNL     1      -8.565   5.564  68.943  1.00  0.00    -0.100 NA 
HETATM    3  C   UNL     1      -9.482   5.110  68.017  1.00  0.00    -0.127 A  
HETATM    4  C   UNL     1      -8.730   6.927  69.076  1.00  0.00    -0.131 A  
HETATM    5  N   UNL     1     -10.230   6.106  67.582  1.00  0.00    -0.154 NA 
HETATM    6  C   UNL     1      -8.096   7.912  69.838  1.00  0.00    -0.118 A  
HETATM    7  C   UNL     1      -9.769   7.230  68.213  1.00  0.00    -0.147 A  
HETATM    8  C   UNL     1      -8.563   9.235  69.696  1.00  0.00    -0.151 A  
HETATM    9  C   UNL     1     -10.203   8.556  68.088  1.00  0.00    -0.254 A  
HETATM   10  C   UNL     1      -9.623   9.593  68.843  1.00  0.00    -0.161 A  
ENDROOT
BRANCH   3  11
HETATM   11  C   UNL     1      -9.637   3.707  67.515  1.00  0.00    -0.194 C  
BRANCH  11  12
HETATM   12  C   UNL     1      -8.523   3.390  66.508  1.00  0.00    -0.109 C  
BRANCH  12  13
HETATM   13  C   UNL     1      -8.767   4.022  65.143  1.00  0.00    -0.120 C  
HETATM   14  O   UNL     1      -9.575   2.038  64.063  1.00  0.00    -0.128 OA 
HETATM   15  O   UNL     1     -10.928   3.842  64.087  1.00  0.00    -0.288 OA 
HETATM   16  C   UNL     1      -9.870   3.313  64.394  1.00  0.00    -0.162 C  
ENDBRANCH  12  13
ENDBRANCH  11  12
ENDBRANCH   3  11
BRANCH  10  17
HETATM   17  N   UNL     1     -10.102  10.896  68.752  1.00  0.00    -0.187 NA 
BRANCH  17  18
HETATM   18  C   UNL     1      -9.346  11.988  68.113  1.00  0.00    -0.199 C  
HETATM   19 CL   UNL     1      -9.972  11.088  65.579  1.00  0.00    -0.290 Cl 
HETATM   20  C   UNL     1      -8.736  11.599  66.761  1.00  0.00    -0.189 C  
ENDBRANCH  17  18
BRANCH  17  21
HETATM   21  C   UNL     1     -11.352  11.273  69.448  1.00  0.00    -0.292 C  
HETATM   22 CL   UNL     1     -12.078  13.141  67.554  1.00  0.00    -0.353 Cl 
HETATM   23  C   UNL     1     -11.735  12.747  69.261  1.00  0.00    -0.319 C  
ENDBRANCH  17  21
ENDBRANCH  10  17
TORSDOF 6
ENDMDL
MODEL      235
REMARK 921   NORMALIZED FREE ENERGY PREDICTED BY IDOCK:   -2.82 KCAL/MOL
REMARK 922        TOTAL FREE ENERGY PREDICTED BY IDOCK:   -4.59 KCAL/MOL
REMARK 923 INTER-LIGAND FREE ENERGY PREDICTED BY IDOCK:   -4.11 KCAL/MOL
REMARK 924 INTRA-LIGAND FREE ENERGY PREDICTED BY IDOCK:   -0.48 KCAL/MOL
REMARK 927      BINDING AFFINITY PREDICTED BY RF-SCORE:    0.00 PKD
ROOT
HETATM    1  C   UNL     1      -6.870  16.353  67.861  1.00  0.00    -0.137 C  
HETATM    2  N   UNL     1      -7.876  15.333  68.054  1.00  0.00    -0.126 NA 
HETATM    3  C   UNL     1      -9.231  15.494  68.256  1.00  0.00    -0.188 A  
HETATM    4  C   UNL     1      -7.598  13.982  68.078  1.00  0.00    -0.143 A  
HETATM    5  N   UNL     1      -9.823  14.321  68.377  1.00  0.00    -0.228 NA 
HETATM    6  C   UNL     1      -6.427  13.229  67.948  1.00  0.00    -0.147 A  
HETATM    7  C   UNL     1      -8.829  13.384  68.286  1.00  0.00    -0.172 A  
HETATM    8  C   UNL     1      -6.552  11.827  68.031  1.00  0.00    -0.060 A  
HETATM    9  C   UNL     1      -8.917  11.989  68.373  1.00  0.00    -0.153 A  
HETATM   10  C   UNL     1      -7.780  11.171  68.228  1.00  0.00    -0.116 A  
ENDROOT
BRANCH   3  11
HETATM   11  C   UNL     1      -9.979  16.788  68.359  1.00  0.00    -0.268 C  
BRANCH  11  12
HETATM   12  C   UNL     1     -10.600  16.918  69.756  1.00  0.00    -0.098 C  
BRANCH  12  13
HETATM   13  C   UNL     1     -11.778  15.974  69.966  1.00  0.00    -0.284 C  
HETATM   14  O   UNL     1     -11.249  15.374  72.228  1.00  0.00    -0.400 OA 
HETATM   15  O   UNL     1     -13.272  16.289  71.833  1.00  0.00    -0.073 OA 
HETATM   16  C   UNL     1     -12.185  15.912  71.419  1.00  0.00    -0.448 C  
ENDBRANCH  12  13
ENDBRANCH  11  12
ENDBRANCH   3  11
BRANCH  10  17
HETATM   17  N   UNL     1      -7.891   9.783  68.259  1.00  0.00    -0.088 NA 
BRANCH  17  18
HETATM   18  C   UNL     1      -7.525   8.975  69.436  1.00  0.00    -0.077 C  
HETATM   19 CL   UNL     1      -9.974   9.408  70.635  1.00  0.00    -0.330 Cl 
HETATM   20  C   UNL     1      -8.192   9.446  70.733  1.00  0.00    -0.127 C  
ENDBRANCH  17  18
BRANCH  17  21
HETATM   21  C   UNL     1      -8.243   9.043  67.028  1.00  0.00    -0.109 C  
HETATM   22 CL   UNL     1     -10.961   9.334  67.391  1.00  0.00    -0.158 Cl 
HETATM   23  C   UNL     1      -9.557   8.260  67.140  1.00  0.00    -0.180 C  
ENDBRANCH  17  21
ENDBRANCH  10  17
TORSDOF 6
ENDMDL
MODEL      236
REMARK 921   NORMALIZED FREE ENERGY PREDICTED BY IDOCK:   -2.80 KCAL/MOL
REMARK 922        TOTAL FREE ENERGY PREDICTED BY IDOCK:   -4.56 KCAL/MOL
REMARK 923 INTER-LIGAND FREE ENERGY PREDICTED BY IDOCK:   -4.46 KCAL/MOL
REMARK 924 INTRA-LIGAND FREE ENERGY PREDICTED BY IDOCK:   -0.10 KCAL/MOL
REMARK 927      BINDING AFFINITY PREDICTED BY RF-SCORE:    0.00 PKD
ROOT
HETATM    1  C   UNL     1      -5.344  13.328  69.723  1.00  0.00    -0.092 C  
HETATM    2  N   UNL     1      -6.444  13.880  68.964  1.00  0.00    -0.097 NA 
HETATM    3  C   UNL     1      -7.492  13.211  68.366  1.00  0.00    -0.124 A  
HETATM    4  C   UNL     1      -6.595  15.227  68.710  1.00  0.00    -0.102 A  
HETATM    5  N   UNL     1      -8.306  14.064  67.774  1.00  0.00    -0.162 NA 
HETATM    6  C   UNL     1      -5.856  16.366  69.039  1.00  0.00    -0.136 A  
HETATM    7  C   UNL     1      -7.759  15.305  67.964  1.00  0.00    -0.126 A  
HETATM    8  C   UNL     1      -6.348  17.607  68.583  1.00  0.00    -0.192 A  
HETATM    9  C   UNL     1      -8.216  16.552  67.519  1.00  0.00    -0.170 A  
HETATM   10  C   UNL     1      -7.531  17.741  67.834  1.00  0.00    -0.210 A  
ENDROOT
BRANCH   3  11
HETATM   11  C   UNL     1      -7.715  11.730  68.332  1.00  0.00    -0.131 C  
BRANCH  11  12
HETATM   12  C   UNL     1      -9.018  11.418  67.586  1.00  0.00    -0.140 C  
BRANCH  12  13
HETATM   13  C   UNL     1      -8.854  11.462  66.072  1.00  0.00    -0.177 C  
HETATM   14  O   UNL     1     -11.184  11.244  65.538  1.00  0.00    -0.148 OA 
HETATM   15  O   UNL     1     -10.096  13.060  64.760  1.00  0.00    -0.286 OA 
HETATM   16  C   UNL     1     -10.087  12.018  65.398  1.00  0.00    -0.256 C  
ENDBRANCH  12  13
ENDBRANCH  11  12
ENDBRANCH   3  11
BRANCH  10  17
HETATM   17  N   UNL     1      -8.028  18.978  67.435  1.00  0.00    -0.249 NA 
BRANCH  17  18
HETATM   18  C   UNL     1      -9.267  19.560  67.981  1.00  0.00    -0.334 C  
HETATM   19 CL   UNL     1     -10.853  17.864  66.487  1.00  0.00    -0.095 Cl 
HETATM   20  C   UNL     1     -10.443  19.524  66.998  1.00  0.00    -0.472 C  
ENDBRANCH  17  18
BRANCH  17  21
HETATM   21  C   UNL     1      -7.395  19.699  66.309  1.00  0.00    -0.273 C  
HETATM   22 CL   UNL     1      -5.154  20.399  67.756  1.00  0.00    -0.186 Cl 
HETATM   23  C   UNL     1      -6.544  20.896  66.751  1.00  0.00    -0.298 C  
ENDBRANCH  17  21
ENDBRANCH  10  17
TORSDOF 6
ENDMDL
MODEL      237
REMARK 921   NORMALIZED FREE ENERGY PREDICTED BY IDOCK:   -2.73 KCAL/MOL
REMARK 922        TOTAL FREE ENERGY PREDICTED BY IDOCK:   -4.47 KCAL/MOL
REMARK 923 INTER-LIGAND FREE ENERGY PREDICTED BY IDOCK:   -4.39 KCAL/MOL
REMARK 924 INTRA-LIGAND FREE ENERGY PREDICTED BY IDOCK:   -0.08 KCAL/MOL
REMARK 927      BINDING AFFINITY PREDICTED BY RF-SCORE:    0.00 PKD
ROOT
HETATM    1  C   UNL     1      -5.320  12.626  70.789  1.00  0.00    -0.166 C  
HETATM    2  N   UNL     1      -6.165  13.059  69.698  1.00  0.00    -0.120 NA 
HETATM    3  C   UNL     1      -6.879  12.283  68.808  1.00  0.00    -0.092 A  
HETATM    4  C   UNL     1      -6.372  14.383  69.373  1.00  0.00    -0.122 A  
HETATM    5  N   UNL     1      -7.543  13.045  67.961  1.00  0.00    -0.124 NA 
HETATM    6  C   UNL     1      -5.911  15.595  69.895  1.00  0.00    -0.156 A  
HETATM    7  C   UNL     1      -7.229  14.337  68.286  1.00  0.00    -0.117 A  
HETATM    8  C   UNL     1      -6.362  16.777  69.270  1.00  0.00    -0.213 A  
HETATM    9  C   UNL     1      -7.650  15.530  67.683  1.00  0.00    -0.182 A  
HETATM   10  C   UNL     1      -7.241  16.785  68.173  1.00  0.00    -0.164 A  
ENDROOT
BRANCH   3  11
HETATM   11  C   UNL     1      -6.913  10.786  68.744  1.00  0.00    -0.075 C  
BRANCH  11  12
HETATM   12  C   UNL     1      -7.988  10.251  69.697  1.00  0.00    -0.164 C  
BRANCH  12  13
HETATM   13  C   UNL     1      -7.484   9.108  70.569  1.00  0.00    -0.119 C  
HETATM   14  O   UNL     1      -9.546   8.723  71.736  1.00  0.00    -0.261 OA 
HETATM   15  O   UNL     1      -8.647   6.995  70.599  1.00  0.00    -0.144 OA 
HETATM   16  C   UNL     1      -8.603   8.165  70.948  1.00  0.00    -0.135 C  
ENDBRANCH  12  13
ENDBRANCH  11  12
ENDBRANCH   3  11
BRANCH  10  17
HETATM   17  N   UNL     1      -7.713  17.962  67.601  1.00  0.00    -0.211 NA 
BRANCH  17  18
HETATM   18  C   UNL     1      -7.345  19.300  68.097  1.00  0.00    -0.281 C  
HETATM   19 CL   UNL     1      -6.033  19.933  65.751  1.00  0.00    -0.187 Cl 
HETATM   20  C   UNL     1      -6.017  19.818  67.533  1.00  0.00    -0.185 C  
ENDBRANCH  17  18
BRANCH  17  21
HETATM   21  C   UNL     1      -8.747  17.907  66.545  1.00  0.00    -0.256 C  
HETATM   22 CL   UNL     1     -10.222  19.984  67.603  1.00  0.00    -0.553 Cl 
HETATM   23  C   UNL     1     -10.148  18.290  67.040  1.00  0.00    -0.360 C  
ENDBRANCH  17  21
ENDBRANCH  10  17
TORSDOF 6
ENDMDL
MODEL      238
REMARK 921   NORMALIZED FREE ENERGY PREDICTED BY IDOCK:   -2.71 KCAL/MOL
REMARK 922        TOTAL FREE ENERGY PREDICTED BY IDOCK:   -4.43 KCAL/MOL
REMARK 923 INTER-LIGAND FREE ENERGY PREDICTED BY IDOCK:   -3.91 KCAL/MOL
REMARK 924 INTRA-LIGAND FREE ENERGY PREDICTED BY IDOCK:   -0.52 KCAL/MOL
REMARK 927      BINDING AFFINITY PREDICTED BY RF-SCORE:    0.00 PKD
ROOT
HETATM    1  C   UNL     1      -8.279   8.726  65.568  1.00  0.00    -0.132 C  
HETATM    2  N   UNL     1      -8.142   9.464  66.804  1.00  0.00    -0.108 NA 
HETATM    3  C   UNL     1      -7.652   9.021  68.016  1.00  0.00    -0.092 A  
HETATM    4  C   UNL     1      -8.517  10.783  66.951  1.00  0.00    -0.131 A  
HETATM    5  N   UNL     1      -7.674   9.994  68.906  1.00  0.00    -0.083 NA 
HETATM    6  C   UNL     1      -9.080  11.733  66.095  1.00  0.00    -0.189 A  
HETATM    7  C   UNL     1      -8.217  11.078  68.270  1.00  0.00    -0.130 A  
HETATM    8  C   UNL     1      -9.326  13.015  66.630  1.00  0.00    -0.242 A  
HETATM    9  C   UNL     1      -8.483  12.358  68.773  1.00  0.00     0.133 A  
HETATM   10  C   UNL     1      -9.028  13.369  67.958  1.00  0.00    -0.190 A  
ENDROOT
BRANCH   3  11
HETATM   11  C   UNL     1      -7.175   7.639  68.344  1.00  0.00    -0.090 C  
BRANCH  11  12
HETATM   12  C   UNL     1      -8.374   6.688  68.447  1.00  0.00    -0.122 C  
BRANCH  12  13
HETATM   13  C   UNL     1      -8.856   6.500  69.880  1.00  0.00    -0.143 C  
HETATM   14  O   UNL     1     -10.940   7.662  69.622  1.00  0.00    -0.226 OA 
HETATM   15  O   UNL     1     -11.015   5.519  70.319  1.00  0.00    -0.269 OA 
HETATM   16  C   UNL     1     -10.364   6.489  69.959  1.00  0.00    -0.198 C  
ENDBRANCH  12  13
ENDBRANCH  11  12
ENDBRANCH   3  11
BRANCH  10  17
HETATM   17  N   UNL     1      -9.232  14.653  68.454  1.00  0.00    -0.191 NA 
BRANCH  17  18
HETATM   18  C   UNL     1     -10.338  15.519  68.008  1.00  0.00    -0.247 C  
HETATM   19 CL   UNL     1     -11.419  15.636  70.546  1.00  0.00    -0.339 Cl 
HETATM   20  C   UNL     1     -11.633  15.316  68.803  1.00  0.00    -0.362 C  
ENDBRANCH  17  18
BRANCH  17  21
HETATM   21  C   UNL     1      -8.232  15.264  69.355  1.00  0.00    -0.233 C  
HETATM   22 CL   UNL     1      -6.662  16.212  67.296  1.00  0.00    -0.218 Cl 
HETATM   23  C   UNL     1      -6.806  15.244  68.790  1.00  0.00    -0.109 C  
ENDBRANCH  17  21
ENDBRANCH  10  17
TORSDOF 6
ENDMDL
MODEL      239
REMARK 921   NORMALIZED FREE ENERGY PREDICTED BY IDOCK:   -2.70 KCAL/MOL
REMARK 922        TOTAL FREE ENERGY PREDICTED BY IDOCK:   -4.42 KCAL/MOL
REMARK 923 INTER-LIGAND FREE ENERGY PREDICTED BY IDOCK:   -4.76 KCAL/MOL
REMARK 924 INTRA-LIGAND FREE ENERGY PREDICTED BY IDOCK:    0.34 KCAL/MOL
REMARK 927      BINDING AFFINITY PREDICTED BY RF-SCORE:    0.00 PKD
ROOT
HETATM    1  C   UNL     1      -7.738  11.009  69.102  1.00  0.00    -0.102 C  
HETATM    2  N   UNL     1      -8.245  11.978  68.156  1.00  0.00    -0.155 NA 
HETATM    3  C   UNL     1      -9.011  11.755  67.030  1.00  0.00    -0.186 A  
HETATM    4  C   UNL     1      -8.004  13.333  68.248  1.00  0.00    -0.144 A  
HETATM    5  N   UNL     1      -9.287  12.895  66.426  1.00  0.00    -0.224 NA 
HETATM    6  C   UNL     1      -7.294  14.134  69.146  1.00  0.00    -0.067 A  
HETATM    7  C   UNL     1      -8.662  13.871  67.155  1.00  0.00    -0.221 A  
HETATM    8  C   UNL     1      -7.280  15.522  68.897  1.00  0.00    -0.142 A  
HETATM    9  C   UNL     1      -8.620  15.253  66.931  1.00  0.00    -0.289 A  
HETATM   10  C   UNL     1      -7.942  16.119  67.810  1.00  0.00    -0.142 A  
ENDROOT
BRANCH   3  11
HETATM   11  C   UNL     1      -9.471  10.431  66.500  1.00  0.00    -0.204 C  
BRANCH  11  12
HETATM   12  C   UNL     1     -10.673  10.634  65.569  1.00  0.00    -0.105 C  
BRANCH  12  13
HETATM   13  C   UNL     1     -10.333  10.375  64.106  1.00  0.00     0.003 C  
HETATM   14  O   UNL     1     -11.213  12.438  63.251  1.00  0.00    -0.441 OA 
HETATM   15  O   UNL     1      -9.040  11.981  62.854  1.00  0.00    -0.109 OA 
HETATM   16  C   UNL     1     -10.110  11.665  63.353  1.00  0.00    -0.440 C  
ENDBRANCH  12  13
ENDBRANCH  11  12
ENDBRANCH   3  11
BRANCH  10  17
HETATM   17  N   UNL     1      -7.957  17.496  67.607  1.00  0.00    -0.200 NA 
BRANCH  17  18
HETATM   18  C   UNL     1      -8.462  18.121  66.371  1.00  0.00    -0.238 C  
HETATM   19 CL   UNL     1     -11.023  18.317  67.386  1.00  0.00    -0.265 Cl 
HETATM   20  C   UNL     1      -9.930  17.791  66.076  1.00  0.00    -0.209 C  
ENDBRANCH  17  18
BRANCH  17  21
HETATM   21  C   UNL     1      -7.307  18.394  68.587  1.00  0.00    -0.295 C  
HETATM   22 CL   UNL     1      -9.657  19.656  69.288  1.00  0.00    -0.346 Cl 
HETATM   23  C   UNL     1      -7.977  19.770  68.694  1.00  0.00    -0.236 C  
ENDBRANCH  17  21
ENDBRANCH  10  17
TORSDOF 6
ENDMDL
MODEL      240
REMARK 921   NORMALIZED FREE ENERGY PREDICTED BY IDOCK:   -2.68 KCAL/MOL
REMARK 922        TOTAL FREE ENERGY PREDICTED BY IDOCK:   -4.40 KCAL/MOL
REMARK 923 INTER-LIGAND FREE ENERGY PREDICTED BY IDOCK:   -4.00 KCAL/MOL
REMARK 924 INTRA-LIGAND FREE ENERGY PREDICTED BY IDOCK:   -0.39 KCAL/MOL
REMARK 927      BINDING AFFINITY PREDICTED BY RF-SCORE:    0.00 PKD
ROOT
HETATM    1  C   UNL     1      -5.278  13.679  70.292  1.00  0.00    -0.101 C  
HETATM    2  N   UNL     1      -6.245  12.950  69.503  1.00  0.00    -0.115 NA 
HETATM    3  C   UNL     1      -6.387  11.584  69.370  1.00  0.00    -0.103 A  
HETATM    4  C   UNL     1      -7.204  13.557  68.720  1.00  0.00    -0.096 A  
HETATM    5  N   UNL     1      -7.397  11.300  68.570  1.00  0.00    -0.099 NA 
HETATM    6  C   UNL     1      -7.535  14.888  68.446  1.00  0.00    -0.115 A  
HETATM    7  C   UNL     1      -7.898  12.503  68.151  1.00  0.00    -0.151 A  
HETATM    8  C   UNL     1      -8.614  15.115  67.567  1.00  0.00    -0.193 A  
HETATM    9  C   UNL     1      -8.959  12.763  67.274  1.00  0.00    -0.199 A  
HETATM   10  C   UNL     1      -9.358  14.080  66.973  1.00  0.00    -0.250 A  
ENDROOT
BRANCH   3  11
HETATM   11  C   UNL     1      -5.532  10.524  69.995  1.00  0.00    -0.049 C  
BRANCH  11  12
HETATM   12  C   UNL     1      -6.377   9.275  70.277  1.00  0.00    -0.051 C  
BRANCH  12  13
HETATM   13  C   UNL     1      -5.966   8.565  71.561  1.00  0.00    -0.045 C  
HETATM   14  O   UNL     1      -8.009   8.956  72.758  1.00  0.00    -0.375 OA 
HETATM   15  O   UNL     1      -7.350   6.817  72.481  1.00  0.00    -0.088 OA 
HETATM   16  C   UNL     1      -7.164   8.011  72.295  1.00  0.00    -0.094 C  
ENDBRANCH  12  13
ENDBRANCH  11  12
ENDBRANCH   3  11
BRANCH  10  17
HETATM   17  N   UNL     1     -10.450  14.323  66.146  1.00  0.00    -0.285 NA 
BRANCH  17  18
HETATM   18  C   UNL     1     -10.325  14.924  64.806  1.00  0.00    -0.198 C  
HETATM   19 CL   UNL     1     -10.908  17.448  65.761  1.00  0.00    -0.131 Cl 
HETATM   20  C   UNL     1     -11.235  16.139  64.593  1.00  0.00    -0.298 C  
ENDBRANCH  17  18
BRANCH  17  21
HETATM   21  C   UNL     1     -11.823  14.124  66.658  1.00  0.00    -0.424 C  
HETATM   22 CL   UNL     1     -11.666  16.204  68.462  1.00  0.00    -0.281 Cl 
HETATM   23  C   UNL     1     -11.979  14.474  68.144  1.00  0.00    -0.261 C  
ENDBRANCH  17  21
ENDBRANCH  10  17
TORSDOF 6
ENDMDL
MODEL      241
REMARK 921   NORMALIZED FREE ENERGY PREDICTED BY IDOCK:   -2.58 KCAL/MOL
REMARK 922        TOTAL FREE ENERGY PREDICTED BY IDOCK:   -4.26 KCAL/MOL
REMARK 923 INTER-LIGAND FREE ENERGY PREDICTED BY IDOCK:   -3.50 KCAL/MOL
REMARK 924 INTRA-LIGAND FREE ENERGY PREDICTED BY IDOCK:   -0.76 KCAL/MOL
REMARK 927      BINDING AFFINITY PREDICTED BY RF-SCORE:    0.00 PKD
ROOT
HETATM    1  C   UNL     1     -11.263  10.888  67.580  1.00  0.00    -0.309 C  
HETATM    2  N   UNL     1     -10.012  10.171  67.691  1.00  0.00    -0.174 NA 
HETATM    3  C   UNL     1      -8.772  10.662  68.044  1.00  0.00    -0.126 A  
HETATM    4  C   UNL     1      -9.879   8.823  67.430  1.00  0.00    -0.194 A  
HETATM    5  N   UNL     1      -7.875   9.695  68.045  1.00  0.00    -0.087 NA 
HETATM    6  C   UNL     1     -10.765   7.821  67.025  1.00  0.00    -0.316 A  
HETATM    7  C   UNL     1      -8.539   8.562  67.655  1.00  0.00    -0.133 A  
HETATM    8  C   UNL     1     -10.237   6.524  66.860  1.00  0.00    -0.279 A  
HETATM    9  C   UNL     1      -8.043   7.265  67.473  1.00  0.00    -0.114 A  
HETATM   10  C   UNL     1      -8.887   6.205  67.088  1.00  0.00    -0.108 A  
ENDROOT
BRANCH   3  11
HETATM   11  C   UNL     1      -8.423  12.084  68.362  1.00  0.00    -0.147 C  
BRANCH  11  12
HETATM   12  C   UNL     1      -8.268  12.884  67.063  1.00  0.00    -0.086 C  
BRANCH  12  13
HETATM   13  C   UNL     1      -8.631  14.354  67.230  1.00  0.00    -0.230 C  
HETATM   14  O   UNL     1      -6.562  15.035  68.238  1.00  0.00    -0.097 OA 
HETATM   15  O   UNL     1      -7.193  16.073  66.338  1.00  0.00    -0.107 OA 
HETATM   16  C   UNL     1      -7.404  15.234  67.202  1.00  0.00    -0.143 C  
ENDBRANCH  12  13
ENDBRANCH  11  12
ENDBRANCH   3  11
BRANCH  10  17
HETATM   17  N   UNL     1      -8.393   4.908  66.967  1.00  0.00    -0.107 NA 
BRANCH  17  18
HETATM   18  C   UNL     1      -9.261   3.717  66.946  1.00  0.00    -0.179 C  
HETATM   19 CL   UNL     1      -9.524   3.722  69.695  1.00  0.00    -0.250 Cl 
HETATM   20  C   UNL     1      -9.125   2.840  68.195  1.00  0.00    -0.180 C  
ENDBRANCH  17  18
BRANCH  17  21
HETATM   21  C   UNL     1      -6.935   4.667  67.011  1.00  0.00    -0.057 C  
HETATM   22 CL   UNL     1      -6.659   4.616  64.268  1.00  0.00    -0.042 Cl 
HETATM   23  C   UNL     1      -6.421   3.813  65.845  1.00  0.00    -0.033 C  
ENDBRANCH  17  21
ENDBRANCH  10  17
TORSDOF 6
ENDMDL
MODEL      242
REMARK 921   NORMALIZED FREE ENERGY PREDICTED BY IDOCK:   -2.39 KCAL/MOL
REMARK 922        TOTAL FREE ENERGY PREDICTED BY IDOCK:   -4.00 KCAL/MOL
REMARK 923 INTER-LIGAND FREE ENERGY PREDICTED BY IDOCK:   -3.39 KCAL/MOL
REMARK 924 INTRA-LIGAND FREE ENERGY PREDICTED BY IDOCK:   -0.61 KCAL/MOL
REMARK 927      BINDING AFFINITY PREDICTED BY RF-SCORE:    0.00 PKD
ROOT
HETATM    1  C   UNL     1      -6.269  15.502  68.873  1.00  0.00    -0.104 C  
HETATM    2  N   UNL     1      -6.917  14.269  68.485  1.00  0.00    -0.094 NA 
HETATM    3  C   UNL     1      -6.701  12.997  68.976  1.00  0.00    -0.099 A  
HETATM    4  C   UNL     1      -7.884  14.190  67.506  1.00  0.00    -0.192 A  
HETATM    5  N   UNL     1      -7.497  12.131  68.379  1.00  0.00    -0.108 NA 
HETATM    6  C   UNL     1      -8.492  15.126  66.663  1.00  0.00    -0.230 A  
HETATM    7  C   UNL     1      -8.218  12.848  67.463  1.00  0.00    -0.184 A  
HETATM    8  C   UNL     1      -9.469  14.645  65.767  1.00  0.00    -0.180 A  
HETATM    9  C   UNL     1      -9.186  12.401  66.553  1.00  0.00    -0.215 A  
HETATM   10  C   UNL     1      -9.852  13.295  65.693  1.00  0.00    -0.162 A  
ENDROOT
BRANCH   3  11
HETATM   11  C   UNL     1      -5.702  12.590  70.016  1.00  0.00    -0.140 C  
BRANCH  11  12
HETATM   12  C   UNL     1      -5.214  11.163  69.736  1.00  0.00    -0.043 C  
BRANCH  12  13
HETATM   13  C   UNL     1      -5.878  10.128  70.636  1.00  0.00    -0.096 C  
HETATM   14  O   UNL     1      -6.692   8.715  68.875  1.00  0.00    -0.052 OA 
HETATM   15  O   UNL     1      -5.328   7.790  70.414  1.00  0.00    -0.023 OA 
HETATM   16  C   UNL     1      -5.918   8.768  69.979  1.00  0.00    -0.030 C  
ENDBRANCH  12  13
ENDBRANCH  11  12
ENDBRANCH   3  11
BRANCH  10  17
HETATM   17  N   UNL     1     -10.853  12.847  64.835  1.00  0.00    -0.295 NA 
BRANCH  17  18
HETATM   18  C   UNL     1     -11.959  13.706  64.375  1.00  0.00    -0.437 C  
HETATM   19 CL   UNL     1     -12.597  14.459  66.954  1.00  0.00    -0.022 Cl 
HETATM   20  C   UNL     1     -13.115  13.803  65.377  1.00  0.00    -0.164 C  
ENDBRANCH  17  18
BRANCH  17  21
HETATM   21  C   UNL     1     -10.927  11.416  64.471  1.00  0.00    -0.277 C  
HETATM   22 CL   UNL     1      -8.820  11.553  62.698  1.00  0.00    -0.169 Cl 
HETATM   23  C   UNL     1     -10.526  11.133  63.018  1.00  0.00    -0.071 C  
ENDBRANCH  17  21
ENDBRANCH  10  17
TORSDOF 6
ENDMDL
MODEL      243
REMARK 921   NORMALIZED FREE ENERGY PREDICTED BY IDOCK:   -2.24 KCAL/MOL
REMARK 922        TOTAL FREE ENERGY PREDICTED BY IDOCK:   -3.81 KCAL/MOL
REMARK 923 INTER-LIGAND FREE ENERGY PREDICTED BY IDOCK:   -3.06 KCAL/MOL
REMARK 924 INTRA-LIGAND FREE ENERGY PREDICTED BY IDOCK:   -0.75 KCAL/MOL
REMARK 927      BINDING AFFINITY PREDICTED BY RF-SCORE:    0.00 PKD
ROOT
HETATM    1  C   UNL     1     -10.777   9.576  67.591  1.00  0.00    -0.250 C  
HETATM    2  N   UNL     1     -10.077   8.403  68.065  1.00  0.00    -0.191 NA 
HETATM    3  C   UNL     1      -9.433   7.433  67.324  1.00  0.00    -0.146 A  
HETATM    4  C   UNL     1      -9.964   8.068  69.398  1.00  0.00    -0.190 A  
HETATM    5  N   UNL     1      -8.900   6.524  68.118  1.00  0.00    -0.116 NA 
HETATM    6  C   UNL     1     -10.417   8.648  70.586  1.00  0.00    -0.243 A  
HETATM    7  C   UNL     1      -9.232   6.893  69.394  1.00  0.00    -0.147 A  
HETATM    8  C   UNL     1     -10.090   7.988  71.789  1.00  0.00    -0.249 A  
HETATM    9  C   UNL     1      -8.932   6.257  70.606  1.00  0.00    -0.144 A  
HETATM   10  C   UNL     1      -9.338   6.801  71.840  1.00  0.00    -0.145 A  
ENDROOT
BRANCH   3  11
HETATM   11  C   UNL     1      -9.341   7.352  65.831  1.00  0.00     0.040 C  
BRANCH  11  12
HETATM   12  C   UNL     1      -7.880   7.515  65.391  1.00  0.00    -0.117 C  
BRANCH  12  13
HETATM   13  C   UNL     1      -7.665   8.734  64.504  1.00  0.00    -0.121 C  
HETATM   14  O   UNL     1      -7.399  10.324  66.282  1.00  0.00    -0.106 OA 
HETATM   15  O   UNL     1      -5.715  10.123  64.795  1.00  0.00    -0.094 OA 
HETATM   16  C   UNL     1      -6.818   9.777  65.193  1.00  0.00    -0.109 C  
ENDBRANCH  12  13
ENDBRANCH  11  12
ENDBRANCH   3  11
BRANCH  10  17
HETATM   17  N   UNL     1      -8.984   6.190  73.039  1.00  0.00    -0.131 NA 
BRANCH  17  18
HETATM   18  C   UNL     1      -9.870   5.258  73.758  1.00  0.00    -0.162 C  
HETATM   19 CL   UNL     1      -8.727   3.057  72.544  1.00  0.00    -0.089 Cl 
HETATM   20  C   UNL     1     -10.192   3.986  72.965  1.00  0.00    -0.159 C  
ENDBRANCH  17  18
BRANCH  17  21
HETATM   21  C   UNL     1      -7.736   6.584  73.728  1.00  0.00    -0.086 C  
HETATM   22 CL   UNL     1      -6.119   5.049  72.105  1.00  0.00    -0.024 Cl 
HETATM   23  C   UNL     1      -6.672   5.479  73.748  1.00  0.00    -0.079 C  
ENDBRANCH  17  21
ENDBRANCH  10  17
TORSDOF 6
ENDMDL
MODEL      244
REMARK 921   NORMALIZED FREE ENERGY PREDICTED BY IDOCK:   -2.14 KCAL/MOL
REMARK 922        TOTAL FREE ENERGY PREDICTED BY IDOCK:   -3.67 KCAL/MOL
REMARK 923 INTER-LIGAND FREE ENERGY PREDICTED BY IDOCK:   -3.31 KCAL/MOL
REMARK 924 INTRA-LIGAND FREE ENERGY PREDICTED BY IDOCK:   -0.36 KCAL/MOL
REMARK 927      BINDING AFFINITY PREDICTED BY RF-SCORE:    0.00 PKD
ROOT
HETATM    1  C   UNL     1      -8.200  15.020  68.957  1.00  0.00    -0.187 C  
HETATM    2  N   UNL     1      -8.965  13.798  68.847  1.00  0.00     0.057 NA 
HETATM    3  C   UNL     1     -10.333  13.634  68.925  1.00  0.00    -0.114 A  
HETATM    4  C   UNL     1      -8.397  12.556  68.653  1.00  0.00     0.021 A  
HETATM    5  N   UNL     1     -10.656  12.365  68.763  1.00  0.00    -0.214 NA 
HETATM    6  C   UNL     1      -7.082  12.101  68.517  1.00  0.00    -0.099 A  
HETATM    7  C   UNL     1      -9.475  11.690  68.611  1.00  0.00    -0.123 A  
HETATM    8  C   UNL     1      -6.898  10.716  68.327  1.00  0.00    -0.068 A  
HETATM    9  C   UNL     1      -9.257  10.318  68.431  1.00  0.00    -0.136 A  
HETATM   10  C   UNL     1      -7.960   9.796  68.264  1.00  0.00    -0.096 A  
ENDROOT
BRANCH   3  11
HETATM   11  C   UNL     1     -11.355  14.699  69.182  1.00  0.00    -0.305 C  
BRANCH  11  12
HETATM   12  C   UNL     1     -11.086  15.907  68.275  1.00  0.00    -0.345 C  
BRANCH  12  13
HETATM   13  C   UNL     1     -11.524  15.670  66.835  1.00  0.00     0.081 C  
HETATM   14  O   UNL     1      -9.565  16.590  65.797  1.00  0.00    -0.476 OA 
HETATM   15  O   UNL     1     -10.102  14.454  65.314  1.00  0.00    -0.369 OA 
HETATM   16  C   UNL     1     -10.337  15.490  65.918  1.00  0.00    -0.347 C  
ENDBRANCH  12  13
ENDBRANCH  11  12
ENDBRANCH   3  11
BRANCH  10  17
HETATM   17  N   UNL     1      -7.761   8.439  68.027  1.00  0.00    -0.102 NA 
BRANCH  17  18
HETATM   18  C   UNL     1      -6.491   7.751  68.318  1.00  0.00    -0.057 C  
HETATM   19 CL   UNL     1      -5.313   8.712  66.013  1.00  0.00    -0.033 Cl 
HETATM   20  C   UNL     1      -5.724   7.326  67.060  1.00  0.00    -0.026 C  
ENDBRANCH  17  18
BRANCH  17  21
HETATM   21  C   UNL     1      -8.794   7.655  67.315  1.00  0.00    -0.120 C  
HETATM   22 CL   UNL     1      -9.339   6.034  69.478  1.00  0.00    -0.144 Cl 
HETATM   23  C   UNL     1      -8.866   6.190  67.763  1.00  0.00    -0.110 C  
ENDBRANCH  17  21
ENDBRANCH  10  17
TORSDOF 6
ENDMDL
MODEL      245
REMARK 921   NORMALIZED FREE ENERGY PREDICTED BY IDOCK:   -1.99 KCAL/MOL
REMARK 922        TOTAL FREE ENERGY PREDICTED BY IDOCK:   -3.46 KCAL/MOL
REMARK 923 INTER-LIGAND FREE ENERGY PREDICTED BY IDOCK:   -3.41 KCAL/MOL
REMARK 924 INTRA-LIGAND FREE ENERGY PREDICTED BY IDOCK:   -0.05 KCAL/MOL
REMARK 927      BINDING AFFINITY PREDICTED BY RF-SCORE:    0.00 PKD
ROOT
HETATM    1  C   UNL     1      -8.023   5.422  69.016  1.00  0.00    -0.094 C  
HETATM    2  N   UNL     1      -8.753   6.280  68.110  1.00  0.00    -0.116 NA 
HETATM    3  C   UNL     1      -9.320   5.957  66.894  1.00  0.00    -0.129 A  
HETATM    4  C   UNL     1      -8.983   7.620  68.347  1.00  0.00    -0.128 A  
HETATM    5  N   UNL     1      -9.915   7.011  66.368  1.00  0.00    -0.076 NA 
HETATM    6  C   UNL     1      -8.644   8.495  69.383  1.00  0.00    -0.128 A  
HETATM    7  C   UNL     1      -9.702   8.042  67.242  1.00  0.00    -0.177 A  
HETATM    8  C   UNL     1      -9.073   9.833  69.260  1.00  0.00    -0.189 A  
HETATM    9  C   UNL     1     -10.105   9.381  67.147  1.00  0.00    -0.292 A  
HETATM   10  C   UNL     1      -9.816  10.309  68.166  1.00  0.00    -0.148 A  
ENDROOT
BRANCH   3  11
HETATM   11  C   UNL     1      -9.276   4.628  66.204  1.00  0.00    -0.140 C  
BRANCH  11  12
HETATM   12  C   UNL     1      -8.137   4.615  65.177  1.00  0.00    -0.104 C  
BRANCH  12  13
HETATM   13  C   UNL     1      -8.626   4.851  63.753  1.00  0.00    -0.129 C  
HETATM   14  O   UNL     1      -9.299   2.590  63.315  1.00  0.00    -0.091 OA 
HETATM   15  O   UNL     1     -10.859   4.206  63.110  1.00  0.00    -0.110 OA 
HETATM   16  C   UNL     1      -9.712   3.874  63.372  1.00  0.00    -0.152 C  
ENDBRANCH  12  13
ENDBRANCH  11  12
ENDBRANCH   3  11
BRANCH  10  17
HETATM   17  N   UNL     1     -10.273  11.622  68.085  1.00  0.00    -0.190 NA 
BRANCH  17  18
HETATM   18  C   UNL     1     -11.699  11.982  68.171  1.00  0.00    -0.333 C  
HETATM   19 CL   UNL     1     -11.320  13.378  70.523  1.00  0.00     0.258 Cl 
HETATM   20  C   UNL     1     -12.207  12.127  69.610  1.00  0.00    -0.120 C  
ENDBRANCH  17  18
BRANCH  17  21
HETATM   21  C   UNL     1      -9.331  12.711  67.748  1.00  0.00    -0.198 C  
HETATM   22 CL   UNL     1     -11.309  14.416  66.861  1.00  0.00    -0.340 Cl 
HETATM   23  C   UNL     1      -9.776  13.554  66.547  1.00  0.00    -0.283 C  
ENDBRANCH  17  21
ENDBRANCH  10  17
TORSDOF 6
ENDMDL
MODEL      246
REMARK 921   NORMALIZED FREE ENERGY PREDICTED BY IDOCK:   -1.94 KCAL/MOL
REMARK 922        TOTAL FREE ENERGY PREDICTED BY IDOCK:   -3.39 KCAL/MOL
REMARK 923 INTER-LIGAND FREE ENERGY PREDICTED BY IDOCK:   -3.17 KCAL/MOL
REMARK 924 INTRA-LIGAND FREE ENERGY PREDICTED BY IDOCK:   -0.22 KCAL/MOL
REMARK 927      BINDING AFFINITY PREDICTED BY RF-SCORE:    0.00 PKD
ROOT
HETATM    1  C   UNL     1      -7.513   4.424  70.066  1.00  0.00    -0.050 C  
HETATM    2  N   UNL     1      -8.505   5.174  69.328  1.00  0.00    -0.092 NA 
HETATM    3  C   UNL     1      -9.162   4.814  68.168  1.00  0.00    -0.124 A  
HETATM    4  C   UNL     1      -8.944   6.428  69.696  1.00  0.00    -0.137 A  
HETATM    5  N   UNL     1     -10.007   5.760  67.804  1.00  0.00    -0.130 NA 
HETATM    6  C   UNL     1      -8.636   7.294  70.749  1.00  0.00    -0.144 A  
HETATM    7  C   UNL     1      -9.872   6.764  68.726  1.00  0.00    -0.143 A  
HETATM    8  C   UNL     1      -9.317   8.529  70.787  1.00  0.00    -0.206 A  
HETATM    9  C   UNL     1     -10.525   8.002  68.787  1.00  0.00    -0.196 A  
HETATM   10  C   UNL     1     -10.277   8.911  69.833  1.00  0.00    -0.200 A  
ENDROOT
BRANCH   3  11
HETATM   11  C   UNL     1      -8.968   3.559  67.374  1.00  0.00    -0.168 C  
BRANCH  11  12
HETATM   12  C   UNL     1      -7.999   3.823  66.215  1.00  0.00    -0.089 C  
BRANCH  12  13
HETATM   13  C   UNL     1      -8.658   4.558  65.054  1.00  0.00    -0.133 C  
HETATM   14  O   UNL     1      -8.616   2.723  63.508  1.00  0.00    -0.086 OA 
HETATM   15  O   UNL     1     -10.618   3.642  63.989  1.00  0.00    -0.255 OA 
HETATM   16  C   UNL     1      -9.407   3.607  64.151  1.00  0.00    -0.142 C  
ENDBRANCH  12  13
ENDBRANCH  11  12
ENDBRANCH   3  11
BRANCH  10  17
HETATM   17  N   UNL     1     -10.974  10.113  69.914  1.00  0.00    -0.273 NA 
BRANCH  17  18
HETATM   18  C   UNL     1     -10.329  11.428  69.750  1.00  0.00     0.487 C  
HETATM   19 CL   UNL     1     -10.115  11.107  67.016  1.00  0.00    -0.226 Cl 
HETATM   20  C   UNL     1      -9.341  11.482  68.580  1.00  0.00    -0.170 C  
ENDBRANCH  17  18
BRANCH  17  21
HETATM   21  C   UNL     1     -12.393  10.117  70.330  1.00  0.00    -0.190 C  
HETATM   22 CL   UNL     1     -11.921   8.715  72.658  1.00  0.00    -0.358 Cl 
HETATM   23  C   UNL     1     -12.804   8.863  71.113  1.00  0.00    -0.143 C  
ENDBRANCH  17  21
ENDBRANCH  10  17
TORSDOF 6
ENDMDL
MODEL      247
REMARK 921   NORMALIZED FREE ENERGY PREDICTED BY IDOCK:   -1.65 KCAL/MOL
REMARK 922        TOTAL FREE ENERGY PREDICTED BY IDOCK:   -3.00 KCAL/MOL
REMARK 923 INTER-LIGAND FREE ENERGY PREDICTED BY IDOCK:   -3.94 KCAL/MOL
REMARK 924 INTRA-LIGAND FREE ENERGY PREDICTED BY IDOCK:    0.94 KCAL/MOL
REMARK 927      BINDING AFFINITY PREDICTED BY RF-SCORE:    0.00 PKD
ROOT
HETATM    1  C   UNL     1     -11.051  11.634  65.060  1.00  0.00    -0.249 C  
HETATM    2  N   UNL     1     -10.519  11.116  66.301  1.00  0.00    -0.253 NA 
HETATM    3  C   UNL     1     -10.785  11.535  67.588  1.00  0.00    -0.211 A  
HETATM    4  C   UNL     1      -9.610  10.080  66.368  1.00  0.00    -0.196 A  
HETATM    5  N   UNL     1     -10.115  10.805  68.459  1.00  0.00    -0.168 NA 
HETATM    6  C   UNL     1      -8.973   9.285  65.411  1.00  0.00    -0.253 A  
HETATM    7  C   UNL     1      -9.378   9.917  67.722  1.00  0.00    -0.140 A  
HETATM    8  C   UNL     1      -8.083   8.298  65.886  1.00  0.00    -0.105 A  
HETATM    9  C   UNL     1      -8.480   8.934  68.160  1.00  0.00    -0.129 A  
HETATM   10  C   UNL     1      -7.823   8.084  67.250  1.00  0.00    -0.109 A  
ENDROOT
BRANCH   3  11
HETATM   11  C   UNL     1     -11.673  12.669  68.001  1.00  0.00    -0.402 C  
BRANCH  11  12
HETATM   12  C   UNL     1     -11.459  13.864  67.063  1.00  0.00    -0.367 C  
BRANCH  12  13
HETATM   13  C   UNL     1     -10.993  15.114  67.799  1.00  0.00    -0.306 C  
HETATM   14  O   UNL     1      -8.881  14.234  68.521  1.00  0.00    -0.179 OA 
HETATM   15  O   UNL     1      -8.862  16.112  67.272  1.00  0.00    -0.180 OA 
HETATM   16  C   UNL     1      -9.486  15.214  67.818  1.00  0.00    -0.194 C  
ENDBRANCH  12  13
ENDBRANCH  11  12
ENDBRANCH   3  11
BRANCH  10  17
HETATM   17  N   UNL     1      -6.978   7.074  67.702  1.00  0.00    -0.080 NA 
BRANCH  17  18
HETATM   18  C   UNL     1      -6.099   7.226  68.875  1.00  0.00    -0.026 C  
HETATM   19 CL   UNL     1      -8.224   7.044  70.629  1.00  0.00    -0.117 Cl 
HETATM   20  C   UNL     1      -6.778   7.922  70.060  1.00  0.00    -0.041 C  
ENDBRANCH  17  18
BRANCH  17  21
HETATM   21  C   UNL     1      -6.817   5.837  66.907  1.00  0.00    -0.063 C  
HETATM   22 CL   UNL     1      -8.666   4.414  68.378  1.00  0.00    -0.110 Cl 
HETATM   23  C   UNL     1      -7.009   4.554  67.727  1.00  0.00    -0.060 C  
ENDBRANCH  17  21
ENDBRANCH  10  17
TORSDOF 6
ENDMDL
MODEL      248
REMARK 921   NORMALIZED FREE ENERGY PREDICTED BY IDOCK:   -1.63 KCAL/MOL
REMARK 922        TOTAL FREE ENERGY PREDICTED BY IDOCK:   -2.98 KCAL/MOL
REMARK 923 INTER-LIGAND FREE ENERGY PREDICTED BY IDOCK:   -2.59 KCAL/MOL
REMARK 924 INTRA-LIGAND FREE ENERGY PREDICTED BY IDOCK:   -0.39 KCAL/MOL
REMARK 927      BINDING AFFINITY PREDICTED BY RF-SCORE:    0.00 PKD
ROOT
HETATM    1  C   UNL     1     -10.742   8.637  68.398  1.00  0.00    -0.046 C  
HETATM    2  N   UNL     1     -10.042   7.464  68.871  1.00  0.00    -0.181 NA 
HETATM    3  C   UNL     1      -9.398   6.494  68.131  1.00  0.00    -0.109 A  
HETATM    4  C   UNL     1      -9.930   7.128  70.204  1.00  0.00    -0.186 A  
HETATM    5  N   UNL     1      -8.865   5.584  68.925  1.00  0.00    -0.107 NA 
HETATM    6  C   UNL     1     -10.382   7.708  71.393  1.00  0.00    -0.219 A  
HETATM    7  C   UNL     1      -9.197   5.954  70.200  1.00  0.00    -0.153 A  
HETATM    8  C   UNL     1     -10.055   7.048  72.596  1.00  0.00    -0.204 A  
HETATM    9  C   UNL     1      -8.898   5.318  71.412  1.00  0.00    -0.145 A  
HETATM   10  C   UNL     1      -9.304   5.861  72.646  1.00  0.00    -0.143 A  
ENDROOT
BRANCH   3  11
HETATM   11  C   UNL     1      -9.307   6.413  66.637  1.00  0.00    -0.175 C  
BRANCH  11  12
HETATM   12  C   UNL     1      -7.846   6.575  66.198  1.00  0.00    -0.106 C  
BRANCH  12  13
HETATM   13  C   UNL     1      -7.594   6.051  64.790  1.00  0.00    -0.090 C  
HETATM   14  O   UNL     1      -5.476   5.024  65.255  1.00  0.00    -0.013 OA 
HETATM   15  O   UNL     1      -7.116   3.715  64.428  1.00  0.00    -0.052 OA 
HETATM   16  C   UNL     1      -6.731   4.812  64.807  1.00  0.00    -0.044 C  
ENDBRANCH  12  13
ENDBRANCH  11  12
ENDBRANCH   3  11
BRANCH  10  17
HETATM   17  N   UNL     1      -8.949   5.250  73.846  1.00  0.00    -0.120 NA 
BRANCH  17  18
HETATM   18  C   UNL     1      -9.836   4.318  74.565  1.00  0.00    -0.152 C  
HETATM   19 CL   UNL     1      -8.497   2.112  73.584  1.00  0.00    -0.061 Cl 
HETATM   20  C   UNL     1     -10.035   2.982  73.841  1.00  0.00    -0.112 C  
ENDBRANCH  17  18
BRANCH  17  21
HETATM   21  C   UNL     1      -7.702   5.645  74.535  1.00  0.00    -0.097 C  
HETATM   22 CL   UNL     1      -6.085   4.109  72.912  1.00  0.00    -0.015 Cl 
HETATM   23  C   UNL     1      -6.638   4.539  74.555  1.00  0.00    -0.064 C  
ENDBRANCH  17  21
ENDBRANCH  10  17
TORSDOF 6
ENDMDL
MODEL      249
REMARK 921   NORMALIZED FREE ENERGY PREDICTED BY IDOCK:   -1.56 KCAL/MOL
REMARK 922        TOTAL FREE ENERGY PREDICTED BY IDOCK:   -2.88 KCAL/MOL
REMARK 923 INTER-LIGAND FREE ENERGY PREDICTED BY IDOCK:   -2.25 KCAL/MOL
REMARK 924 INTRA-LIGAND FREE ENERGY PREDICTED BY IDOCK:   -0.63 KCAL/MOL
REMARK 927      BINDING AFFINITY PREDICTED BY RF-SCORE:    0.00 PKD
ROOT
HETATM    1  C   UNL     1     -12.152   6.463  69.902  1.00  0.00     0.394 C  
HETATM    2  N   UNL     1     -10.760   6.092  69.778  1.00  0.00    -0.275 NA 
HETATM    3  C   UNL     1     -10.044   5.828  68.629  1.00  0.00    -0.175 A  
HETATM    4  C   UNL     1      -9.915   5.930  70.855  1.00  0.00    -0.187 A  
HETATM    5  N   UNL     1      -8.791   5.536  68.922  1.00  0.00    -0.107 NA 
HETATM    6  C   UNL     1     -10.073   6.043  72.240  1.00  0.00    -0.205 A  
HETATM    7  C   UNL     1      -8.702   5.579  70.288  1.00  0.00    -0.130 A  
HETATM    8  C   UNL     1      -8.939   5.791  73.039  1.00  0.00    -0.122 A  
HETATM    9  C   UNL     1      -7.597   5.326  71.111  1.00  0.00    -0.096 A  
HETATM   10  C   UNL     1      -7.683   5.445  72.512  1.00  0.00    -0.102 A  
ENDROOT
BRANCH   3  11
HETATM   11  C   UNL     1     -10.563   5.829  67.223  1.00  0.00    -0.353 C  
BRANCH  11  12
HETATM   12  C   UNL     1      -9.420   6.140  66.248  1.00  0.00    -0.144 C  
BRANCH  12  13
HETATM   13  C   UNL     1      -8.987   4.923  65.441  1.00  0.00    -0.151 C  
HETATM   14  O   UNL     1      -8.075   6.137  63.582  1.00  0.00    -0.118 OA 
HETATM   15  O   UNL     1      -6.708   4.717  64.678  1.00  0.00    -0.042 OA 
HETATM   16  C   UNL     1      -7.806   5.239  64.554  1.00  0.00    -0.099 C  
ENDBRANCH  12  13
ENDBRANCH  11  12
ENDBRANCH   3  11
BRANCH  10  17
HETATM   17  N   UNL     1      -6.562   5.248  73.314  1.00  0.00    -0.069 NA 
BRANCH  17  18
HETATM   18  C   UNL     1      -5.693   4.063  73.201  1.00  0.00    -0.003 C  
HETATM   19 CL   UNL     1      -7.815   2.333  73.562  1.00  0.00    -0.042 Cl 
HETATM   20  C   UNL     1      -6.177   2.868  74.031  1.00  0.00    -0.015 C  
ENDBRANCH  17  18
BRANCH  17  21
HETATM   21  C   UNL     1      -6.288   6.168  74.438  1.00  0.00    -0.070 C  
HETATM   22 CL   UNL     1      -6.257   8.421  72.848  1.00  0.00    -0.084 Cl 
HETATM   23  C   UNL     1      -5.434   7.380  74.043  1.00  0.00    -0.050 C  
ENDBRANCH  17  21
ENDBRANCH  10  17
TORSDOF 6
ENDMDL
MODEL      250
REMARK 921   NORMALIZED FREE ENERGY PREDICTED BY IDOCK:   -1.49 KCAL/MOL
REMARK 922        TOTAL FREE ENERGY PREDICTED BY IDOCK:   -2.78 KCAL/MOL
REMARK 923 INTER-LIGAND FREE ENERGY PREDICTED BY IDOCK:   -3.92 KCAL/MOL
REMARK 924 INTRA-LIGAND FREE ENERGY PREDICTED BY IDOCK:    1.14 KCAL/MOL
REMARK 927      BINDING AFFINITY PREDICTED BY RF-SCORE:    0.00 PKD
ROOT
HETATM    1  C   UNL     1      -8.131   5.612  69.045  1.00  0.00    -0.097 C  
HETATM    2  N   UNL     1      -9.100   6.410  68.329  1.00  0.00    -0.116 NA 
HETATM    3  C   UNL     1      -9.990   6.006  67.355  1.00  0.00    -0.141 A  
HETATM    4  C   UNL     1      -9.264   7.766  68.522  1.00  0.00    -0.137 A  
HETATM    5  N   UNL     1     -10.722   7.025  66.947  1.00  0.00    -0.331 NA 
HETATM    6  C   UNL     1      -8.650   8.710  69.349  1.00  0.00    -0.127 A  
HETATM    7  C   UNL     1     -10.276   8.115  67.645  1.00  0.00    -0.234 A  
HETATM    8  C   UNL     1      -9.109  10.041  69.258  1.00  0.00    -0.208 A  
HETATM    9  C   UNL     1     -10.703   9.448  67.572  1.00  0.00    -0.290 A  
HETATM   10  C   UNL     1     -10.141  10.445  68.393  1.00  0.00    -0.163 A  
ENDROOT
BRANCH   3  11
HETATM   11  C   UNL     1     -10.134   4.630  66.781  1.00  0.00    -0.246 C  
BRANCH  11  12
HETATM   12  C   UNL     1      -8.989   3.738  67.276  1.00  0.00    -0.158 C  
BRANCH  12  13
HETATM   13  C   UNL     1      -9.468   2.369  67.742  1.00  0.00    -0.148 C  
HETATM   14  O   UNL     1      -7.718   1.995  69.340  1.00  0.00    -0.043 OA 
HETATM   15  O   UNL     1      -9.845   1.944  70.086  1.00  0.00     0.015 OA 
HETATM   16  C   UNL     1      -9.053   2.093  69.168  1.00  0.00    -0.121 C  
ENDBRANCH  12  13
ENDBRANCH  11  12
ENDBRANCH   3  11
BRANCH  10  17
HETATM   17  N   UNL     1     -10.614  11.753  68.352  1.00  0.00    -0.208 NA 
BRANCH  17  18
HETATM   18  C   UNL     1     -11.981  12.126  68.758  1.00  0.00    -0.239 C  
HETATM   19 CL   UNL     1     -11.718  10.870  71.203  1.00  0.00    -0.200 Cl 
HETATM   20  C   UNL     1     -12.641  11.106  69.693  1.00  0.00    -0.006 C  
ENDBRANCH  17  18
BRANCH  17  21
HETATM   21  C   UNL     1      -9.790  12.817  67.739  1.00  0.00    -0.220 C  
HETATM   22 CL   UNL     1     -10.882  14.827  69.279  1.00  0.00    -0.262 Cl 
HETATM   23  C   UNL     1     -10.501  14.174  67.661  1.00  0.00    -0.245 C  
ENDBRANCH  17  21
ENDBRANCH  10  17
TORSDOF 6
ENDMDL
MODEL      251
REMARK 921   NORMALIZED FREE ENERGY PREDICTED BY IDOCK:   -1.28 KCAL/MOL
REMARK 922        TOTAL FREE ENERGY PREDICTED BY IDOCK:   -2.50 KCAL/MOL
REMARK 923 INTER-LIGAND FREE ENERGY PREDICTED BY IDOCK:   -3.47 KCAL/MOL
REMARK 924 INTRA-LIGAND FREE ENERGY PREDICTED BY IDOCK:    0.96 KCAL/MOL
REMARK 927      BINDING AFFINITY PREDICTED BY RF-SCORE:    0.00 PKD
ROOT
HETATM    1  C   UNL     1     -12.157   8.032  70.050  1.00  0.00     0.703 C  
HETATM    2  N   UNL     1     -11.304   6.868  69.958  1.00  0.00    -0.302 NA 
HETATM    3  C   UNL     1     -10.774   6.283  68.826  1.00  0.00    -0.297 A  
HETATM    4  C   UNL     1     -10.892   6.136  71.051  1.00  0.00    -0.279 A  
HETATM    5  N   UNL     1     -10.032   5.241  69.150  1.00  0.00    -0.186 NA 
HETATM    6  C   UNL     1     -11.116   6.235  72.427  1.00  0.00    -0.307 A  
HETATM    7  C   UNL     1     -10.108   5.130  70.512  1.00  0.00    -0.256 A  
HETATM    8  C   UNL     1     -10.503   5.268  73.250  1.00  0.00    -0.262 A  
HETATM    9  C   UNL     1      -9.521   4.179  71.357  1.00  0.00    -0.229 A  
HETATM   10  C   UNL     1      -9.688   4.235  72.754  1.00  0.00    -0.135 A  
ENDROOT
BRANCH   3  11
HETATM   11  C   UNL     1     -10.996   6.704  67.405  1.00  0.00    -0.434 C  
BRANCH  11  12
HETATM   12  C   UNL     1     -10.015   5.965  66.486  1.00  0.00    -0.196 C  
BRANCH  12  13
HETATM   13  C   UNL     1     -10.665   4.804  65.744  1.00  0.00    -0.220 C  
HETATM   14  O   UNL     1      -9.127   4.760  63.903  1.00  0.00    -0.127 OA 
HETATM   15  O   UNL     1      -9.359   2.875  65.119  1.00  0.00    -0.151 OA 
HETATM   16  C   UNL     1      -9.657   4.043  64.916  1.00  0.00    -0.179 C  
ENDBRANCH  12  13
ENDBRANCH  11  12
ENDBRANCH   3  11
BRANCH  10  17
HETATM   17  N   UNL     1      -9.052   3.318  73.586  1.00  0.00    -0.089 NA 
BRANCH  17  18
HETATM   18  C   UNL     1      -9.481   1.913  73.709  1.00  0.00    -0.074 C  
HETATM   19 CL   UNL     1      -9.826   1.663  70.981  1.00  0.00    -0.167 Cl 
HETATM   20  C   UNL     1     -10.482   1.483  72.631  1.00  0.00    -0.151 C  
ENDBRANCH  17  18
BRANCH  17  21
HETATM   21  C   UNL     1      -7.994   3.773  74.513  1.00  0.00    -0.081 C  
HETATM   22 CL   UNL     1      -6.066   3.939  72.548  1.00  0.00    -0.009 Cl 
HETATM   23  C   UNL     1      -6.591   3.288  74.126  1.00  0.00    -0.034 C  
ENDBRANCH  17  21
ENDBRANCH  10  17
TORSDOF 6
ENDMDL
MODEL      252
REMARK 921   NORMALIZED FREE ENERGY PREDICTED BY IDOCK:   -0.60 KCAL/MOL
REMARK 922        TOTAL FREE ENERGY PREDICTED BY IDOCK:   -1.59 KCAL/MOL
REMARK 923 INTER-LIGAND FREE ENERGY PREDICTED BY IDOCK:   -2.03 KCAL/MOL
REMARK 924 INTRA-LIGAND FREE ENERGY PREDICTED BY IDOCK:    0.44 KCAL/MOL
REMARK 927      BINDING AFFINITY PREDICTED BY RF-SCORE:    0.00 PKD
ROOT
HETATM    1  C   UNL     1      -7.370  10.134  65.747  1.00  0.00    -0.128 C  
HETATM    2  N   UNL     1      -8.272   9.835  66.836  1.00  0.00    -0.117 NA 
HETATM    3  C   UNL     1      -8.512   8.618  67.440  1.00  0.00    -0.123 A  
HETATM    4  C   UNL     1      -9.072  10.779  67.446  1.00  0.00    -0.143 A  
HETATM    5  N   UNL     1      -9.396   8.750  68.411  1.00  0.00    -0.137 NA 
HETATM    6  C   UNL     1      -9.271  12.150  67.258  1.00  0.00    -0.185 A  
HETATM    7  C   UNL     1      -9.760  10.070  68.415  1.00  0.00    -0.146 A  
HETATM    8  C   UNL     1     -10.202  12.787  68.106  1.00  0.00    -0.241 A  
HETATM    9  C   UNL     1     -10.685  10.730  69.234  1.00  0.00    -0.268 A  
HETATM   10  C   UNL     1     -10.916  12.114  69.113  1.00  0.00    -0.161 A  
ENDROOT
BRANCH   3  11
HETATM   11  C   UNL     1      -7.909   7.296  67.074  1.00  0.00    -0.112 C  
BRANCH  11  12
HETATM   12  C   UNL     1      -7.874   6.383  68.306  1.00  0.00    -0.105 C  
BRANCH  12  13
HETATM   13  C   UNL     1      -8.803   5.182  68.174  1.00  0.00    -0.107 C  
HETATM   14  O   UNL     1      -7.216   3.724  67.117  1.00  0.00    -0.062 OA 
HETATM   15  O   UNL     1      -8.146   3.034  69.053  1.00  0.00    -0.055 OA 
HETATM   16  C   UNL     1      -8.031   3.883  68.181  1.00  0.00    -0.076 C  
ENDBRANCH  12  13
ENDBRANCH  11  12
ENDBRANCH   3  11
BRANCH  10  17
HETATM   17  N   UNL     1     -11.795  12.768  69.972  1.00  0.00    -0.314 NA 
BRANCH  17  18
HETATM   18  C   UNL     1     -11.421  13.968  70.741  1.00  0.00     0.151 C  
HETATM   19 CL   UNL     1     -13.795  15.238  70.128  1.00  0.00     0.628 Cl 
HETATM   20  C   UNL     1     -12.010  15.265  70.176  1.00  0.00    -0.338 C  
ENDBRANCH  17  18
BRANCH  17  21
HETATM   21  C   UNL     1     -13.118  12.177  70.265  1.00  0.00     0.734 C  
HETATM   22 CL   UNL     1     -13.341  13.401  72.726  1.00  0.00    -0.494 Cl 
HETATM   23  C   UNL     1     -13.347  11.901  71.757  1.00  0.00    -0.232 C  
ENDBRANCH  17  21
ENDBRANCH  10  17
TORSDOF 6
ENDMDL
MODEL      253
REMARK 921   NORMALIZED FREE ENERGY PREDICTED BY IDOCK:    0.07 KCAL/MOL
REMARK 922        TOTAL FREE ENERGY PREDICTED BY IDOCK:   -0.68 KCAL/MOL
REMARK 923 INTER-LIGAND FREE ENERGY PREDICTED BY IDOCK:   -0.86 KCAL/MOL
REMARK 924 INTRA-LIGAND FREE ENERGY PREDICTED BY IDOCK:    0.19 KCAL/MOL
REMARK 927      BINDING AFFINITY PREDICTED BY RF-SCORE:    0.00 PKD
ROOT
HETATM    1  C   UNL     1      -9.781  17.649  65.671  1.00  0.00     0.295 C  
HETATM    2  N   UNL     1     -10.014  16.628  66.669  1.00  0.00    -0.270 NA 
HETATM    3  C   UNL     1     -10.688  16.742  67.867  1.00  0.00    -0.347 A  
HETATM    4  C   UNL     1      -9.555  15.333  66.557  1.00  0.00    -0.271 A  
HETATM    5  N   UNL     1     -10.701  15.584  68.501  1.00  0.00    -0.250 NA 
HETATM    6  C   UNL     1      -8.812  14.646  65.592  1.00  0.00     1.028 A  
HETATM    7  C   UNL     1      -9.995  14.714  67.714  1.00  0.00    -0.224 A  
HETATM    8  C   UNL     1      -8.534  13.286  65.844  1.00  0.00     1.366 A  
HETATM    9  C   UNL     1      -9.693  13.364  67.938  1.00  0.00    -0.226 A  
HETATM   10  C   UNL     1      -8.969  12.608  66.996  1.00  0.00    -0.216 A  
ENDROOT
BRANCH   3  11
HETATM   11  C   UNL     1     -11.312  17.979  68.437  1.00  0.00     0.983 C  
BRANCH  11  12
HETATM   12  C   UNL     1     -10.244  18.819  69.148  1.00  0.00    -0.086 C  
BRANCH  12  13
HETATM   13  C   UNL     1      -9.350  19.579  68.176  1.00  0.00    -0.422 C  
HETATM   14  O   UNL     1      -7.394  19.607  69.566  1.00  0.00    -0.308 OA 
HETATM   15  O   UNL     1      -7.214  18.671  67.522  1.00  0.00    -0.210 OA 
HETATM   16  C   UNL     1      -7.895  19.227  68.371  1.00  0.00    -0.341 C  
ENDBRANCH  12  13
ENDBRANCH  11  12
ENDBRANCH   3  11
BRANCH  10  17
HETATM   17  N   UNL     1      -8.725  11.253  67.204  1.00  0.00    -0.147 NA 
BRANCH  17  18
HETATM   18  C   UNL     1      -8.512  10.672  68.542  1.00  0.00    -0.136 C  
HETATM   19 CL   UNL     1     -11.094   9.701  68.655  1.00  0.00    -0.142 Cl 
HETATM   20  C   UNL     1      -9.778  10.645  69.406  1.00  0.00    -0.116 C  
ENDBRANCH  17  18
BRANCH  17  21
HETATM   21  C   UNL     1      -8.515  10.355  66.049  1.00  0.00    -0.146 C  
HETATM   22 CL   UNL     1     -10.784  11.198  64.727  1.00  0.00    -0.364 Cl 
HETATM   23  C   UNL     1      -9.821   9.860  65.414  1.00  0.00    -0.313 C  
ENDBRANCH  17  21
ENDBRANCH  10  17
TORSDOF 6
ENDMDL
MODEL      254
REMARK 921   NORMALIZED FREE ENERGY PREDICTED BY IDOCK:    0.30 KCAL/MOL
REMARK 922        TOTAL FREE ENERGY PREDICTED BY IDOCK:   -0.37 KCAL/MOL
REMARK 923 INTER-LIGAND FREE ENERGY PREDICTED BY IDOCK:   -0.96 KCAL/MOL
REMARK 924 INTRA-LIGAND FREE ENERGY PREDICTED BY IDOCK:    0.60 KCAL/MOL
REMARK 927      BINDING AFFINITY PREDICTED BY RF-SCORE:    0.00 PKD
ROOT
HETATM    1  C   UNL     1      -8.572  16.448  65.526  1.00  0.00     0.944 C  
HETATM    2  N   UNL     1      -9.541  16.211  66.572  1.00  0.00    -0.245 NA 
HETATM    3  C   UNL     1     -10.506  17.071  67.055  1.00  0.00    -0.279 A  
HETATM    4  C   UNL     1      -9.627  15.031  67.280  1.00  0.00    -0.207 A  
HETATM    5  N   UNL     1     -11.210  16.487  68.006  1.00  0.00    -0.271 NA 
HETATM    6  C   UNL     1      -8.919  13.826  67.249  1.00  0.00    -0.227 A  
HETATM    7  C   UNL     1     -10.671  15.239  68.165  1.00  0.00    -0.257 A  
HETATM    8  C   UNL     1      -9.317  12.822  68.156  1.00  0.00    -0.214 A  
HETATM    9  C   UNL     1     -11.035  14.224  69.061  1.00  0.00    -0.282 A  
HETATM   10  C   UNL     1     -10.377  12.979  69.066  1.00  0.00     0.061 A  
ENDROOT
BRANCH   3  11
HETATM   11  C   UNL     1     -10.752  18.484  66.624  1.00  0.00    -0.278 C  
BRANCH  11  12
HETATM   12  C   UNL     1      -9.644  19.394  67.171  1.00  0.00    -0.412 C  
BRANCH  12  13
HETATM   13  C   UNL     1      -8.709  18.669  68.132  1.00  0.00    -0.336 C  
HETATM   14  O   UNL     1      -6.667  19.226  67.002  1.00  0.00    -0.197 OA 
HETATM   15  O   UNL     1      -6.872  19.845  69.161  1.00  0.00    -0.329 OA 
HETATM   16  C   UNL     1      -7.344  19.313  68.166  1.00  0.00    -0.281 C  
ENDBRANCH  12  13
ENDBRANCH  11  12
ENDBRANCH   3  11
BRANCH  10  17
HETATM   17  N   UNL     1     -10.787  11.960  69.921  1.00  0.00     0.277 NA 
BRANCH  17  18
HETATM   18  C   UNL     1     -11.704  12.182  71.054  1.00  0.00     0.854 C  
HETATM   19 CL   UNL     1     -13.560  10.405  70.044  1.00  0.00     0.612 Cl 
HETATM   20  C   UNL     1     -13.183  12.029  70.682  1.00  0.00     0.590 C  
ENDBRANCH  17  18
BRANCH  17  21
HETATM   21  C   UNL     1     -10.180  10.616  69.812  1.00  0.00    -0.052 C  
HETATM   22 CL   UNL     1     -11.015  10.232  67.212  1.00  0.00    -0.315 Cl 
HETATM   23  C   UNL     1     -10.966   9.662  68.903  1.00  0.00    -0.121 C  
ENDBRANCH  17  21
ENDBRANCH  10  17
TORSDOF 6
ENDMDL
MODEL      255
REMARK 921   NORMALIZED FREE ENERGY PREDICTED BY IDOCK:    1.15 KCAL/MOL
REMARK 922        TOTAL FREE ENERGY PREDICTED BY IDOCK:    0.78 KCAL/MOL
REMARK 923 INTER-LIGAND FREE ENERGY PREDICTED BY IDOCK:    0.62 KCAL/MOL
REMARK 924 INTRA-LIGAND FREE ENERGY PREDICTED BY IDOCK:    0.17 KCAL/MOL
REMARK 927      BINDING AFFINITY PREDICTED BY RF-SCORE:    0.00 PKD
ROOT
HETATM    1  C   UNL     1      -7.181  10.220  65.848  1.00  0.00    -0.131 C  
HETATM    2  N   UNL     1      -7.983  10.199  67.051  1.00  0.00    -0.109 NA 
HETATM    3  C   UNL     1      -8.283   9.122  67.860  1.00  0.00    -0.112 A  
HETATM    4  C   UNL     1      -8.604  11.313  67.574  1.00  0.00    -0.134 A  
HETATM    5  N   UNL     1      -9.034   9.504  68.876  1.00  0.00    -0.138 NA 
HETATM    6  C   UNL     1      -8.674  12.656  67.190  1.00  0.00    -0.201 A  
HETATM    7  C   UNL     1      -9.251  10.844  68.704  1.00  0.00    -0.187 A  
HETATM    8  C   UNL     1      -9.431  13.520  68.009  1.00  0.00    -0.220 A  
HETATM    9  C   UNL     1     -10.002  11.727  69.491  1.00  0.00     0.671 A  
HETATM   10  C   UNL     1     -10.096  13.096  69.173  1.00  0.00     0.299 A  
ENDROOT
BRANCH   3  11
HETATM   11  C   UNL     1      -7.870   7.697  67.655  1.00  0.00    -0.123 C  
BRANCH  11  12
HETATM   12  C   UNL     1      -7.582   7.039  69.010  1.00  0.00    -0.104 C  
BRANCH  12  13
HETATM   13  C   UNL     1      -8.492   5.850  69.292  1.00  0.00    -0.113 C  
HETATM   14  O   UNL     1      -7.052   4.175  68.355  1.00  0.00    -0.054 OA 
HETATM   15  O   UNL     1      -7.660   3.944  70.515  1.00  0.00    -0.044 OA 
HETATM   16  C   UNL     1      -7.699   4.577  69.469  1.00  0.00    -0.055 C  
ENDBRANCH  12  13
ENDBRANCH  11  12
ENDBRANCH   3  11
BRANCH  10  17
HETATM   17  N   UNL     1     -10.798  13.973  69.996  1.00  0.00     0.177 NA 
BRANCH  17  18
HETATM   18  C   UNL     1     -12.269  14.000  70.070  1.00  0.00    -0.352 C  
HETATM   19 CL   UNL     1     -12.234  14.536  72.778  1.00  0.00    -0.241 Cl 
HETATM   20  C   UNL     1     -12.821  13.535  71.422  1.00  0.00    -0.355 C  
ENDBRANCH  17  18
BRANCH  17  21
HETATM   21  C   UNL     1     -10.076  15.038  70.725  1.00  0.00     0.713 C  
HETATM   22 CL   UNL     1     -12.007  16.948  70.249  1.00  0.00     1.333 Cl 
HETATM   23  C   UNL     1     -10.299  16.439  70.141  1.00  0.00     0.095 C  
ENDBRANCH  17  21
ENDBRANCH  10  17
TORSDOF 6
ENDMDL
MODEL      256
REMARK 921   NORMALIZED FREE ENERGY PREDICTED BY IDOCK:    3.86 KCAL/MOL
REMARK 922        TOTAL FREE ENERGY PREDICTED BY IDOCK:    4.44 KCAL/MOL
REMARK 923 INTER-LIGAND FREE ENERGY PREDICTED BY IDOCK:    1.29 KCAL/MOL
REMARK 924 INTRA-LIGAND FREE ENERGY PREDICTED BY IDOCK:    3.15 KCAL/MOL
REMARK 927      BINDING AFFINITY PREDICTED BY RF-SCORE:    0.00 PKD
ROOT
HETATM    1  C   UNL     1     -11.408  11.092  65.605  1.00  0.00     0.200 C  
HETATM    2  N   UNL     1     -11.683  12.373  66.218  1.00  0.00    -0.472 NA 
HETATM    3  C   UNL     1     -11.980  13.571  65.600  1.00  0.00    -0.397 A  
HETATM    4  C   UNL     1     -11.671  12.586  67.580  1.00  0.00    -0.361 A  
HETATM    5  N   UNL     1     -12.182  14.516  66.499  1.00  0.00    -0.330 NA 
HETATM    6  C   UNL     1     -11.424  11.770  68.688  1.00  0.00    -0.346 A  
HETATM    7  C   UNL     1     -11.979  13.928  67.719  1.00  0.00    -0.355 A  
HETATM    8  C   UNL     1     -11.509  12.371  69.961  1.00  0.00    -0.110 A  
HETATM    9  C   UNL     1     -12.046  14.496  68.998  1.00  0.00    -0.286 A  
HETATM   10  C   UNL     1     -11.831  13.726  70.156  1.00  0.00    -0.290 A  
ENDROOT
BRANCH   3  11
HETATM   11  C   UNL     1     -12.051  13.832  64.127  1.00  0.00    -0.478 C  
BRANCH  11  12
HETATM   12  C   UNL     1     -10.684  14.305  63.617  1.00  0.00     1.926 C  
BRANCH  12  13
HETATM   13  C   UNL     1      -9.973  15.222  64.605  1.00  0.00     0.588 C  
HETATM   14  O   UNL     1     -10.807  17.287  63.711  1.00  0.00     1.591 OA 
HETATM   15  O   UNL     1     -11.225  16.840  65.881  1.00  0.00     0.164 OA 
HETATM   16  C   UNL     1     -10.736  16.509  64.812  1.00  0.00    -0.024 C  
ENDBRANCH  12  13
ENDBRANCH  11  12
ENDBRANCH   3  11
BRANCH  10  17
HETATM   17  N   UNL     1     -11.958  14.290  71.422  1.00  0.00    -0.281 NA 
BRANCH  17  18
HETATM   18  C   UNL     1     -11.127  15.415  71.887  1.00  0.00    -0.160 C  
HETATM   19 CL   UNL     1     -11.456  16.784  69.511  1.00  0.00     0.180 Cl 
HETATM   20  C   UNL     1     -10.365  16.119  70.758  1.00  0.00     0.722 C  
ENDBRANCH  17  18
BRANCH  17  21
HETATM   21  C   UNL     1     -12.848  13.663  72.424  1.00  0.00    -0.222 C  
HETATM   22 CL   UNL     1     -14.377  15.931  72.777  1.00  0.00    -0.313 Cl 
HETATM   23  C   UNL     1     -13.360  14.645  73.485  1.00  0.00     0.340 C  
ENDBRANCH  17  21
ENDBRANCH  10  17
TORSDOF 6
ENDMDL
MODEL      257
REMARK 921   NORMALIZED FREE ENERGY PREDICTED BY IDOCK:    4.22 KCAL/MOL
REMARK 922        TOTAL FREE ENERGY PREDICTED BY IDOCK:    4.92 KCAL/MOL
REMARK 923 INTER-LIGAND FREE ENERGY PREDICTED BY IDOCK:    4.22 KCAL/MOL
REMARK 924 INTRA-LIGAND FREE ENERGY PREDICTED BY IDOCK:    0.69 KCAL/MOL
REMARK 927      BINDING AFFINITY PREDICTED BY RF-SCORE:    0.00 PKD
ROOT
HETATM    1  C   UNL     1     -11.068  11.008  65.363  1.00  0.00     0.071 C  
HETATM    2  N   UNL     1     -10.301   9.879  65.842  1.00  0.00    -0.179 NA 
HETATM    3  C   UNL     1      -9.959   9.566  67.141  1.00  0.00    -0.204 A  
HETATM    4  C   UNL     1      -9.764   8.916  65.014  1.00  0.00     0.619 A  
HETATM    5  N   UNL     1      -9.261   8.446  67.177  1.00  0.00    -0.139 NA 
HETATM    6  C   UNL     1      -9.765   8.714  63.630  1.00  0.00     2.723 A  
HETATM    7  C   UNL     1      -9.122   8.044  65.876  1.00  0.00    -0.106 A  
HETATM    8  C   UNL     1      -9.086   7.577  63.146  1.00  0.00     1.511 A  
HETATM    9  C   UNL     1      -8.448   6.929  65.361  1.00  0.00    -0.091 A  
HETATM   10  C   UNL     1      -8.429   6.655  63.981  1.00  0.00     0.288 A  
ENDROOT
BRANCH   3  11
HETATM   11  C   UNL     1     -10.278  10.356  68.373  1.00  0.00    -0.186 C  
BRANCH  11  12
HETATM   12  C   UNL     1      -9.096  11.269  68.725  1.00  0.00    -0.122 C  
BRANCH  12  13
HETATM   13  C   UNL     1      -7.772  10.518  68.789  1.00  0.00    -0.109 C  
HETATM   14  O   UNL     1      -7.665  10.353  71.180  1.00  0.00     0.849 OA 
HETATM   15  O   UNL     1      -7.610   8.435  69.994  1.00  0.00    -0.065 OA 
HETATM   16  C   UNL     1      -7.684   9.655  70.025  1.00  0.00    -0.157 C  
ENDBRANCH  12  13
ENDBRANCH  11  12
ENDBRANCH   3  11
BRANCH  10  17
HETATM   17  N   UNL     1      -7.806   5.512  63.488  1.00  0.00    -0.090 NA 
BRANCH  17  18
HETATM   18  C   UNL     1      -6.413   5.154  63.813  1.00  0.00    -0.026 C  
HETATM   19 CL   UNL     1      -7.187   3.691  66.023  1.00  0.00    -0.067 Cl 
HETATM   20  C   UNL     1      -6.164   4.970  65.314  1.00  0.00    -0.034 C  
ENDBRANCH  17  18
BRANCH  17  21
HETATM   21  C   UNL     1      -8.487   4.678  62.474  1.00  0.00    -0.103 C  
HETATM   22 CL   UNL     1      -8.621   2.456  64.102  1.00  0.00    -0.086 Cl 
HETATM   23  C   UNL     1      -8.116   3.192  62.555  1.00  0.00    -0.072 C  
ENDBRANCH  17  21
ENDBRANCH  10  17
TORSDOF 6
ENDMDL
MODEL      258
REMARK 921   NORMALIZED FREE ENERGY PREDICTED BY IDOCK:    4.70 KCAL/MOL
REMARK 922        TOTAL FREE ENERGY PREDICTED BY IDOCK:    5.57 KCAL/MOL
REMARK 923 INTER-LIGAND FREE ENERGY PREDICTED BY IDOCK:    2.55 KCAL/MOL
REMARK 924 INTRA-LIGAND FREE ENERGY PREDICTED BY IDOCK:    3.02 KCAL/MOL
REMARK 927      BINDING AFFINITY PREDICTED BY RF-SCORE:    0.00 PKD
ROOT
HETATM    1  C   UNL     1      -8.452  19.362  66.207  1.00  0.00    -0.334 C  
HETATM    2  N   UNL     1      -9.207  19.024  67.393  1.00  0.00    -0.287 NA 
HETATM    3  C   UNL     1      -9.417  19.790  68.522  1.00  0.00    -0.312 A  
HETATM    4  C   UNL     1      -9.845  17.814  67.573  1.00  0.00    -0.304 A  
HETATM    5  N   UNL     1     -10.172  19.140  69.387  1.00  0.00    -0.038 NA 
HETATM    6  C   UNL     1      -9.970  16.658  66.797  1.00  0.00    -0.284 A  
HETATM    7  C   UNL     1     -10.429  17.919  68.823  1.00  0.00    -0.210 A  
HETATM    8  C   UNL     1     -10.726  15.598  67.340  1.00  0.00    -0.309 A  
HETATM    9  C   UNL     1     -11.166  16.844  69.337  1.00  0.00     0.163 A  
HETATM   10  C   UNL     1     -11.350  15.660  68.598  1.00  0.00    -0.357 A  
ENDROOT
BRANCH   3  11
HETATM   11  C   UNL     1      -8.870  21.157  68.798  1.00  0.00     1.896 C  
BRANCH  11  12
HETATM   12  C   UNL     1      -7.886  21.095  69.973  1.00  0.00     4.200 C  
BRANCH  12  13
HETATM   13  C   UNL     1      -6.765  20.088  69.748  1.00  0.00    -0.286 C  
HETATM   14  O   UNL     1      -5.351  20.849  71.532  1.00  0.00    -0.539 OA 
HETATM   15  O   UNL     1      -6.003  18.690  71.559  1.00  0.00     0.309 OA 
HETATM   16  C   UNL     1      -6.023  19.791  71.029  1.00  0.00    -0.193 C  
ENDBRANCH  12  13
ENDBRANCH  11  12
ENDBRANCH   3  11
BRANCH  10  17
HETATM   17  N   UNL     1     -12.133  14.622  69.097  1.00  0.00    -0.280 NA 
BRANCH  17  18
HETATM   18  C   UNL     1     -12.021  13.232  68.621  1.00  0.00    -0.310 C  
HETATM   19 CL   UNL     1      -9.527  13.689  67.528  1.00  0.00    -0.214 Cl 
HETATM   20  C   UNL     1     -11.197  13.090  67.336  1.00  0.00    -0.288 C  
ENDBRANCH  17  18
BRANCH  17  21
HETATM   21  C   UNL     1     -13.238  14.916  70.035  1.00  0.00     0.309 C  
HETATM   22 CL   UNL     1     -11.854  14.038  72.253  1.00  0.00     0.460 Cl 
HETATM   23  C   UNL     1     -13.308  13.945  71.220  1.00  0.00    -0.243 C  
ENDBRANCH  17  21
ENDBRANCH  10  17
TORSDOF 6
ENDMDL
MODEL      259
REMARK 921   NORMALIZED FREE ENERGY PREDICTED BY IDOCK:   22.74 KCAL/MOL
REMARK 922        TOTAL FREE ENERGY PREDICTED BY IDOCK:   29.94 KCAL/MOL
REMARK 923 INTER-LIGAND FREE ENERGY PREDICTED BY IDOCK:   24.68 KCAL/MOL
REMARK 924 INTRA-LIGAND FREE ENERGY PREDICTED BY IDOCK:    5.27 KCAL/MOL
REMARK 927      BINDING AFFINITY PREDICTED BY RF-SCORE:    0.00 PKD
ROOT
HETATM    1  C   UNL     1      -8.300  14.880  70.764  1.00  0.00     2.141 C  
HETATM    2  N   UNL     1      -8.577  14.869  69.345  1.00  0.00    -0.111 NA 
HETATM    3  C   UNL     1      -8.641  13.785  68.493  1.00  0.00    -0.122 A  
HETATM    4  C   UNL     1      -8.814  16.009  68.605  1.00  0.00    -0.210 A  
HETATM    5  N   UNL     1      -8.932  14.178  67.268  1.00  0.00    -0.203 NA 
HETATM    6  C   UNL     1      -8.863  17.372  68.910  1.00  0.00    -0.153 A  
HETATM    7  C   UNL     1      -9.026  15.543  67.319  1.00  0.00    -0.201 A  
HETATM    8  C   UNL     1      -9.144  18.259  67.850  1.00  0.00    -0.288 A  
HETATM    9  C   UNL     1      -9.293  16.451  66.286  1.00  0.00    -0.348 A  
HETATM   10  C   UNL     1      -9.378  17.835  66.530  1.00  0.00    -0.279 A  
ENDROOT
BRANCH   3  11
HETATM   11  C   UNL     1      -8.398  12.349  68.843  1.00  0.00     0.243 C  
BRANCH  11  12
HETATM   12  C   UNL     1      -9.548  11.824  69.712  1.00  0.00     1.572 C  
BRANCH  12  13
HETATM   13  C   UNL     1      -9.471  10.321  69.945  1.00  0.00    -0.061 C  
HETATM   14  O   UNL     1      -9.193   9.700  67.644  1.00  0.00    -0.131 OA 
HETATM   15  O   UNL     1      -7.600   9.053  69.103  1.00  0.00    -0.071 OA 
HETATM   16  C   UNL     1      -8.650   9.637  68.878  1.00  0.00    -0.127 C  
ENDBRANCH  12  13
ENDBRANCH  11  12
ENDBRANCH   3  11
BRANCH  10  17
HETATM   17  N   UNL     1      -9.702  18.721  65.506  1.00  0.00    -0.064 NA 
BRANCH  17  18
HETATM   18  C   UNL     1     -10.352  20.022  65.745  1.00  0.00    -0.369 C  
HETATM   19 CL   UNL     1      -7.926  21.331  65.908  1.00  0.00     1.277 Cl 
HETATM   20  C   UNL     1      -9.522  20.968  66.620  1.00  0.00     0.441 C  
ENDBRANCH  17  18
BRANCH  17  21
HETATM   21  C   UNL     1      -9.539  18.310  64.095  1.00  0.00     9.423 C  
HETATM   22 CL   UNL     1     -10.031  15.645  64.607  1.00  0.00     0.513 Cl 
HETATM   23  C   UNL     1      -8.955  16.900  63.932  1.00  0.00    11.805 C  
ENDBRANCH  17  21
ENDBRANCH  10  17
TORSDOF 6
ENDMDL
MODEL      260
REMARK 921   NORMALIZED FREE ENERGY PREDICTED BY IDOCK:   48.26 KCAL/MOL
REMARK 922        TOTAL FREE ENERGY PREDICTED BY IDOCK:   64.41 KCAL/MOL
REMARK 923 INTER-LIGAND FREE ENERGY PREDICTED BY IDOCK:   38.85 KCAL/MOL
REMARK 924 INTRA-LIGAND FREE ENERGY PREDICTED BY IDOCK:   25.57 KCAL/MOL
REMARK 927      BINDING AFFINITY PREDICTED BY RF-SCORE:    0.00 PKD
ROOT
HETATM    1  C   UNL     1      -8.300  14.880  70.764  1.00  0.00     2.141 C  
HETATM    2  N   UNL     1      -8.577  14.875  69.345  1.00  0.00    -0.111 NA 
HETATM    3  C   UNL     1      -8.634  13.796  68.487  1.00  0.00    -0.122 A  
HETATM    4  C   UNL     1      -8.822  16.017  68.611  1.00  0.00    -0.210 A  
HETATM    5  N   UNL     1      -8.927  14.193  67.264  1.00  0.00    -0.203 NA 
HETATM    6  C   UNL     1      -8.879  17.378  68.924  1.00  0.00    -0.153 A  
HETATM    7  C   UNL     1      -9.030  15.557  67.323  1.00  0.00    -0.201 A  
HETATM    8  C   UNL     1      -9.166  18.269  67.868  1.00  0.00    -0.284 A  
HETATM    9  C   UNL     1      -9.303  16.469  66.295  1.00  0.00    -0.334 A  
HETATM   10  C   UNL     1      -9.397  17.851  66.546  1.00  0.00    -0.280 A  
ENDROOT
BRANCH   3  11
HETATM   11  C   UNL     1      -8.381  12.359  68.829  1.00  0.00     0.124 C  
BRANCH  11  12
HETATM   12  C   UNL     1      -7.549  12.270  70.115  1.00  0.00     2.240 C  
BRANCH  12  13
HETATM   13  C   UNL     1      -6.828  13.572  70.440  1.00  0.00     0.693 C  
HETATM   14  O   UNL     1      -5.844  13.889  68.275  1.00  0.00    -0.094 OA 
HETATM   15  O   UNL     1      -7.172  15.528  69.072  1.00  0.00    -0.132 OA 
HETATM   16  C   UNL     1      -6.653  14.430  69.209  1.00  0.00    -0.122 C  
ENDBRANCH  12  13
ENDBRANCH  11  12
ENDBRANCH   3  11
BRANCH  10  17
HETATM   17  N   UNL     1      -9.727  18.740  65.527  1.00  0.00    -0.064 NA 
BRANCH  17  18
HETATM   18  C   UNL     1     -10.386  20.035  65.773  1.00  0.00    -0.369 C  
HETATM   19 CL   UNL     1      -7.969  21.360  65.943  1.00  0.00     1.632 Cl 
HETATM   20  C   UNL     1      -9.562  20.982  66.653  1.00  0.00     0.444 C  
ENDBRANCH  17  18
BRANCH  17  21
HETATM   21  C   UNL     1      -9.561  18.338  64.113  1.00  0.00     9.423 C  
HETATM   22 CL   UNL     1     -11.401  20.162  63.170  1.00  0.00    10.176 Cl 
HETATM   23  C   UNL     1     -10.846  18.469  63.286  1.00  0.00    14.653 C  
ENDBRANCH  17  21
ENDBRANCH  10  17
TORSDOF 6
ENDMDL
