MODEL        1
REMARK 921   NORMALIZED FREE ENERGY PREDICTED BY IDOCK:   -7.68 KCAL/MOL
REMARK 922        TOTAL FREE ENERGY PREDICTED BY IDOCK:  -13.23 KCAL/MOL
REMARK 923 INTER-LIGAND FREE ENERGY PREDICTED BY IDOCK:  -11.73 KCAL/MOL
REMARK 924 INTRA-LIGAND FREE ENERGY PREDICTED BY IDOCK:   -1.51 KCAL/MOL
REMARK 927      BINDING AFFINITY PREDICTED BY RF-SCORE:    0.00 PKD
ROOT
HETATM    1  C   UNL     1      -9.479  11.431  65.784  1.00  0.00    -0.256 C  
HETATM    2  C   UNL     1     -10.425  12.288  66.643  1.00  0.00    -0.222 C  
HETATM    3  C   UNL     1     -10.496  12.046  67.987  1.00  0.00    -0.207 C  
ENDROOT
BRANCH   2   4
HETATM    4  N   UNL     1     -11.086  13.292  65.909  1.00  0.00    -0.284 N  
HETATM    5  C   UNL     1     -12.474  13.242  65.700  1.00  0.00    -0.451 C  
HETATM    6  O   UNL     1     -13.095  13.877  64.861  1.00  0.00    -0.704 OA 
BRANCH   4   7
HETATM    7  C   UNL     1     -10.336  14.097  64.920  1.00  0.00    -0.408 C  
BRANCH   7   8
HETATM    8  C   UNL     1      -9.866  15.442  65.443  1.00  0.00    -0.314 A  
HETATM    9  H2  UNL     1     -11.717  15.703  63.660  1.00  0.00     0.000 HD 
HETATM   10  C   UNL     1      -8.788  15.749  66.195  1.00  0.00    -0.311 A  
HETATM   11  N   UNL     1     -10.441  17.785  65.820  1.00  0.00    -0.583 NA 
HETATM   12  N   UNL     1      -8.582  16.901  66.932  1.00  0.00    -0.202 NA 
HETATM   13  H1  UNL     1     -12.145  17.395  63.945  1.00  0.00     0.000 HD 
HETATM   14  C   UNL     1      -9.443  19.009  67.736  1.00  0.00    -0.353 C  
HETATM   15  N   UNL     1     -11.581  16.575  64.172  1.00  0.00    -1.080 NA 
HETATM   16  C   UNL     1      -9.455  17.853  66.770  1.00  0.00    -0.287 A  
HETATM   17  C   UNL     1     -10.692  16.643  65.110  1.00  0.00    -0.189 A  
ENDBRANCH   7   8
ENDBRANCH   4   7
ENDBRANCH   2   4
BRANCH   3  18
HETATM   18  C   UNL     1      -9.378  11.156  68.690  1.00  0.00    -0.186 C  
BRANCH  18  19
HETATM   19  C   UNL     1      -9.827   9.742  69.229  1.00  0.00    -0.199 C  
BRANCH  19  20
HETATM   20  O   UNL     1     -10.266   9.696  70.639  1.00  0.00    -0.276 OA 
HETATM   21  O   UNL     1     -12.466   9.615  70.930  1.00  0.00    -0.293 OA 
HETATM   22  O   UNL     1     -10.904   8.588  72.492  1.00  0.00    -0.337 OA 
HETATM   23  P   UNL     1     -11.373   8.401  70.937  1.00  0.00    -0.246 P  
HETATM   24  O   UNL     1     -12.364   7.242  71.203  1.00  0.00    -0.341 OA 
ENDBRANCH  19  20
ENDBRANCH  18  19
ENDBRANCH   3  18
BRANCH   3  25
HETATM   25  S   UNL     1     -11.776  12.693  69.116  1.00  0.00    -0.315 SA 
BRANCH  25  26
HETATM   26  C   UNL     1     -11.610  14.468  69.443  1.00  0.00    -0.303 C  
HETATM   27  O   UNL     1     -10.962  15.189  68.693  1.00  0.00    -0.236 OA 
BRANCH  26  28
HETATM   28  C   UNL     1     -12.209  15.079  70.731  1.00  0.00    -0.386 A  
HETATM   29  C   UNL     1     -14.212  15.373  72.180  1.00  0.00    -0.660 A  
HETATM   30  C   UNL     1     -13.588  14.878  71.014  1.00  0.00    -0.402 A  
HETATM   31  C   UNL     1     -11.497  15.772  71.713  1.00  0.00    -0.484 A  
HETATM   32  C   UNL     1     -13.462  16.070  73.120  1.00  0.00    -0.587 A  
HETATM   33  C   UNL     1     -12.100  16.262  72.885  1.00  0.00    -0.625 A  
ENDBRANCH  26  28
ENDBRANCH  25  26
ENDBRANCH   3  25
TORSDOF 9
ENDMDL
MODEL        2
REMARK 921   NORMALIZED FREE ENERGY PREDICTED BY IDOCK:   -7.42 KCAL/MOL
REMARK 922        TOTAL FREE ENERGY PREDICTED BY IDOCK:  -12.84 KCAL/MOL
REMARK 923 INTER-LIGAND FREE ENERGY PREDICTED BY IDOCK:  -11.26 KCAL/MOL
REMARK 924 INTRA-LIGAND FREE ENERGY PREDICTED BY IDOCK:   -1.58 KCAL/MOL
REMARK 927      BINDING AFFINITY PREDICTED BY RF-SCORE:    0.00 PKD
ROOT
HETATM    1  C   UNL     1     -10.714  16.736  64.993  1.00  0.00    -0.118 C  
HETATM    2  C   UNL     1     -10.110  16.675  66.406  1.00  0.00    -0.315 C  
HETATM    3  C   UNL     1      -9.989  15.459  67.019  1.00  0.00    -0.238 C  
ENDROOT
BRANCH   2   4
HETATM    4  N   UNL     1      -9.690  17.931  66.886  1.00  0.00    -0.296 N  
HETATM    5  C   UNL     1     -10.623  18.897  67.298  1.00  0.00    -0.456 C  
HETATM    6  O   UNL     1     -10.399  20.089  67.452  1.00  0.00    -0.410 OA 
BRANCH   4   7
HETATM    7  C   UNL     1      -8.371  18.469  66.489  1.00  0.00    -0.281 C  
BRANCH   7   8
HETATM    8  C   UNL     1      -7.385  18.605  67.635  1.00  0.00    -0.235 A  
HETATM    9  H2  UNL     1      -7.477  20.747  66.193  1.00  0.00     0.000 HD 
HETATM   10  C   UNL     1      -6.886  17.663  68.463  1.00  0.00    -0.223 A  
HETATM   11  N   UNL     1      -6.226  20.138  69.141  1.00  0.00    -0.310 NA 
HETATM   12  N   UNL     1      -6.278  17.864  69.689  1.00  0.00    -0.237 NA 
HETATM   13  H1  UNL     1      -6.651  21.860  67.291  1.00  0.00     0.000 HD 
HETATM   14  C   UNL     1      -5.629  19.400  71.436  1.00  0.00    -0.255 C  
HETATM   15  N   UNL     1      -7.007  20.927  67.081  1.00  0.00    -0.352 NA 
HETATM   16  C   UNL     1      -6.031  19.099  70.015  1.00  0.00    -0.241 A  
HETATM   17  C   UNL     1      -6.863  19.972  67.942  1.00  0.00    -0.271 A  
ENDBRANCH   7   8
ENDBRANCH   4   7
ENDBRANCH   2   4
BRANCH   3  18
HETATM   18  C   UNL     1     -10.134  14.124  66.163  1.00  0.00    -0.324 C  
BRANCH  18  19
HETATM   19  C   UNL     1     -10.906  12.925  66.838  1.00  0.00    -0.257 C  
BRANCH  19  20
HETATM   20  O   UNL     1     -12.070  12.402  66.093  1.00  0.00    -0.611 OA 
HETATM   21  O   UNL     1     -13.540  13.942  65.458  1.00  0.00    -0.579 OA 
HETATM   22  O   UNL     1     -13.153  11.903  64.183  1.00  0.00    -0.597 OA 
HETATM   23  P   UNL     1     -12.329  13.250  64.607  1.00  0.00    -0.352 P  
HETATM   24  O   UNL     1     -12.561  14.009  63.278  1.00  0.00    -0.801 OA 
ENDBRANCH  19  20
ENDBRANCH  18  19
ENDBRANCH   3  18
BRANCH   3  25
HETATM   25  S   UNL     1      -9.628  15.193  68.789  1.00  0.00    -0.227 SA 
BRANCH  25  26
HETATM   26  C   UNL     1     -10.824  15.993  69.890  1.00  0.00    -0.351 C  
HETATM   27  O   UNL     1     -10.816  17.208  70.054  1.00  0.00    -0.031 OA 
BRANCH  26  28
HETATM   28  C   UNL     1     -11.815  15.137  70.713  1.00  0.00    -0.371 A  
HETATM   29  C   UNL     1     -13.587  15.075  72.460  1.00  0.00    -0.569 A  
HETATM   30  C   UNL     1     -12.634  15.773  71.685  1.00  0.00    -0.521 A  
HETATM   31  C   UNL     1     -12.045  13.769  70.545  1.00  0.00    -0.416 A  
HETATM   32  C   UNL     1     -13.768  13.711  72.266  1.00  0.00    -0.687 A  
HETATM   33  C   UNL     1     -12.998  13.062  71.300  1.00  0.00    -0.330 A  
ENDBRANCH  26  28
ENDBRANCH  25  26
ENDBRANCH   3  25
TORSDOF 9
ENDMDL
MODEL        3
REMARK 921   NORMALIZED FREE ENERGY PREDICTED BY IDOCK:   -7.29 KCAL/MOL
REMARK 922        TOTAL FREE ENERGY PREDICTED BY IDOCK:  -12.64 KCAL/MOL
REMARK 923 INTER-LIGAND FREE ENERGY PREDICTED BY IDOCK:  -11.17 KCAL/MOL
REMARK 924 INTRA-LIGAND FREE ENERGY PREDICTED BY IDOCK:   -1.46 KCAL/MOL
REMARK 927      BINDING AFFINITY PREDICTED BY RF-SCORE:    0.00 PKD
ROOT
HETATM    1  C   UNL     1      -9.428  11.462  65.962  1.00  0.00    -0.245 C  
HETATM    2  C   UNL     1      -9.360  12.172  67.325  1.00  0.00    -0.183 C  
HETATM    3  C   UNL     1      -9.748  13.480  67.408  1.00  0.00    -0.229 C  
ENDROOT
BRANCH   2   4
HETATM    4  N   UNL     1      -8.938  11.327  68.371  1.00  0.00    -0.162 N  
HETATM    5  C   UNL     1      -7.640  11.420  68.898  1.00  0.00    -0.114 C  
HETATM    6  O   UNL     1      -7.082  10.574  69.582  1.00  0.00    -0.111 OA 
BRANCH   4   7
HETATM    7  C   UNL     1      -9.602  10.022  68.578  1.00  0.00    -0.151 C  
BRANCH   7   8
HETATM    8  C   UNL     1     -10.569   9.995  69.747  1.00  0.00    -0.301 A  
HETATM    9  H2  UNL     1     -11.493  11.384  67.775  1.00  0.00     0.000 HD 
HETATM   10  C   UNL     1     -10.379   9.581  71.018  1.00  0.00    -0.283 A  
HETATM   11  N   UNL     1     -12.899  10.177  70.456  1.00  0.00    -0.241 NA 
HETATM   12  N   UNL     1     -11.351   9.248  71.944  1.00  0.00    -0.359 NA 
HETATM   13  H1  UNL     1     -13.183  11.502  68.280  1.00  0.00     0.000 HD 
HETATM   14  C   UNL     1     -13.690   8.908  72.438  1.00  0.00    -0.512 C  
HETATM   15  N   UNL     1     -12.231  11.171  68.445  1.00  0.00    -0.550 NA 
HETATM   16  C   UNL     1     -12.582   9.494  71.602  1.00  0.00    -0.388 A  
HETATM   17  C   UNL     1     -11.963  10.480  69.506  1.00  0.00    -0.186 A  
ENDBRANCH   7   8
ENDBRANCH   4   7
ENDBRANCH   2   4
BRANCH   3  18
HETATM   18  C   UNL     1     -10.576  14.135  66.216  1.00  0.00    -0.284 C  
BRANCH  18  19
HETATM   19  C   UNL     1     -12.137  14.260  66.416  1.00  0.00    -0.419 C  
BRANCH  19  20
HETATM   20  O   UNL     1     -12.975  13.566  65.416  1.00  0.00    -0.656 OA 
HETATM   21  O   UNL     1     -12.634  14.194  63.313  1.00  0.00    -0.766 OA 
HETATM   22  O   UNL     1     -13.336  11.937  63.904  1.00  0.00    -0.600 OA 
HETATM   23  P   UNL     1     -12.036  12.906  64.121  1.00  0.00    -0.463 P  
HETATM   24  O   UNL     1     -11.196  12.316  62.962  1.00  0.00    -0.265 OA 
ENDBRANCH  19  20
ENDBRANCH  18  19
ENDBRANCH   3  18
BRANCH   3  25
HETATM   25  S   UNL     1      -9.431  14.595  68.818  1.00  0.00    -0.172 SA 
BRANCH  25  26
HETATM   26  C   UNL     1     -10.866  15.607  69.266  1.00  0.00    -0.250 C  
HETATM   27  O   UNL     1     -11.133  16.631  68.647  1.00  0.00    -0.341 OA 
BRANCH  26  28
HETATM   28  C   UNL     1     -11.720  15.238  70.501  1.00  0.00    -0.355 A  
HETATM   29  C   UNL     1     -13.230  13.587  71.591  1.00  0.00    -0.449 A  
HETATM   30  C   UNL     1     -12.449  14.018  70.496  1.00  0.00    -0.429 A  
HETATM   31  C   UNL     1     -11.798  15.972  71.687  1.00  0.00    -0.582 A  
HETATM   32  C   UNL     1     -13.287  14.360  72.744  1.00  0.00    -0.606 A  
HETATM   33  C   UNL     1     -12.562  15.551  72.791  1.00  0.00    -0.518 A  
ENDBRANCH  26  28
ENDBRANCH  25  26
ENDBRANCH   3  25
TORSDOF 9
ENDMDL
MODEL        4
REMARK 921   NORMALIZED FREE ENERGY PREDICTED BY IDOCK:   -7.22 KCAL/MOL
REMARK 922        TOTAL FREE ENERGY PREDICTED BY IDOCK:  -12.53 KCAL/MOL
REMARK 923 INTER-LIGAND FREE ENERGY PREDICTED BY IDOCK:  -10.59 KCAL/MOL
REMARK 924 INTRA-LIGAND FREE ENERGY PREDICTED BY IDOCK:   -1.94 KCAL/MOL
REMARK 927      BINDING AFFINITY PREDICTED BY RF-SCORE:    0.00 PKD
ROOT
HETATM    1  C   UNL     1     -10.390  10.711  64.276  1.00  0.00    -0.325 C  
HETATM    2  C   UNL     1     -10.374  11.552  65.564  1.00  0.00    -0.273 C  
HETATM    3  C   UNL     1      -9.678  11.089  66.645  1.00  0.00    -0.195 C  
ENDROOT
BRANCH   2   4
HETATM    4  N   UNL     1     -11.066  12.772  65.439  1.00  0.00    -0.279 N  
HETATM    5  C   UNL     1     -12.458  12.837  65.614  1.00  0.00    -0.275 C  
HETATM    6  O   UNL     1     -13.184  13.752  65.255  1.00  0.00    -0.755 OA 
BRANCH   4   7
HETATM    7  C   UNL     1     -10.490  13.868  64.631  1.00  0.00    -0.396 C  
BRANCH   7   8
HETATM    8  C   UNL     1     -10.079  15.086  65.438  1.00  0.00    -0.396 A  
HETATM    9  H2  UNL     1     -11.507  15.736  63.386  1.00  0.00     0.000 HD 
HETATM   10  C   UNL     1      -9.168  15.201  66.428  1.00  0.00    -0.300 A  
HETATM   11  N   UNL     1     -10.617  17.387  66.052  1.00  0.00    -0.303 NA 
HETATM   12  N   UNL     1      -9.069  16.218  67.359  1.00  0.00    -0.194 NA 
HETATM   13  H1  UNL     1     -11.910  17.397  63.839  1.00  0.00     0.000 HD 
HETATM   14  C   UNL     1      -9.985  18.248  68.293  1.00  0.00    -0.382 C  
HETATM   15  N   UNL     1     -11.442  16.514  64.043  1.00  0.00    -1.122 NA 
HETATM   16  C   UNL     1      -9.846  17.245  67.177  1.00  0.00    -0.269 A  
HETATM   17  C   UNL     1     -10.764  16.381  65.138  1.00  0.00    -0.291 A  
ENDBRANCH   7   8
ENDBRANCH   4   7
ENDBRANCH   2   4
BRANCH   3  18
HETATM   18  C   UNL     1      -8.630   9.904  66.462  1.00  0.00    -0.131 C  
BRANCH  18  19
HETATM   19  C   UNL     1      -9.128   8.449  66.817  1.00  0.00    -0.157 C  
BRANCH  19  20
HETATM   20  O   UNL     1     -10.211   8.361  67.818  1.00  0.00    -0.198 OA 
HETATM   21  O   UNL     1     -11.040   6.323  68.121  1.00  0.00    -0.329 OA 
HETATM   22  O   UNL     1     -10.971   7.982  69.903  1.00  0.00    -0.242 OA 
HETATM   23  P   UNL     1      -9.916   7.126  68.993  1.00  0.00    -0.184 P  
HETATM   24  O   UNL     1      -9.652   6.021  70.044  1.00  0.00    -0.159 OA 
ENDBRANCH  19  20
ENDBRANCH  18  19
ENDBRANCH   3  18
BRANCH   3  25
HETATM   25  S   UNL     1      -9.804  11.737  68.347  1.00  0.00    -0.185 SA 
BRANCH  25  26
HETATM   26  C   UNL     1     -11.514  11.914  68.919  1.00  0.00    -0.301 C  
HETATM   27  O   UNL     1     -12.362  11.074  68.640  1.00  0.00    -0.539 OA 
BRANCH  26  28
HETATM   28  C   UNL     1     -11.946  13.181  69.692  1.00  0.00    -0.370 A  
HETATM   29  C   UNL     1     -12.941  14.140  71.763  1.00  0.00    -0.427 A  
HETATM   30  C   UNL     1     -12.544  13.038  70.974  1.00  0.00    -0.386 A  
HETATM   31  C   UNL     1     -11.740  14.500  69.277  1.00  0.00    -0.350 A  
HETATM   32  C   UNL     1     -12.728  15.433  71.299  1.00  0.00    -0.501 A  
HETATM   33  C   UNL     1     -12.119  15.608  70.055  1.00  0.00    -0.379 A  
ENDBRANCH  26  28
ENDBRANCH  25  26
ENDBRANCH   3  25
TORSDOF 9
ENDMDL
MODEL        5
REMARK 921   NORMALIZED FREE ENERGY PREDICTED BY IDOCK:   -7.18 KCAL/MOL
REMARK 922        TOTAL FREE ENERGY PREDICTED BY IDOCK:  -12.47 KCAL/MOL
REMARK 923 INTER-LIGAND FREE ENERGY PREDICTED BY IDOCK:  -11.00 KCAL/MOL
REMARK 924 INTRA-LIGAND FREE ENERGY PREDICTED BY IDOCK:   -1.47 KCAL/MOL
REMARK 927      BINDING AFFINITY PREDICTED BY RF-SCORE:    0.00 PKD
ROOT
HETATM    1  C   UNL     1      -9.433  15.157  68.879  1.00  0.00    -0.213 C  
HETATM    2  C   UNL     1     -10.524  14.337  68.170  1.00  0.00    -0.246 C  
HETATM    3  C   UNL     1     -10.868  14.665  66.888  1.00  0.00    -0.305 C  
ENDROOT
BRANCH   2   4
HETATM    4  N   UNL     1     -11.012  13.271  68.950  1.00  0.00    -0.251 N  
HETATM    5  C   UNL     1     -10.386  12.013  68.931  1.00  0.00    -0.092 C  
HETATM    6  O   UNL     1     -10.874  10.965  69.326  1.00  0.00    -0.214 OA 
BRANCH   4   7
HETATM    7  C   UNL     1     -12.429  13.254  69.373  1.00  0.00     0.129 C  
BRANCH   7   8
HETATM    8  C   UNL     1     -12.704  14.018  70.655  1.00  0.00    -0.373 A  
HETATM    9  H2  UNL     1     -13.294  11.513  70.888  1.00  0.00     0.000 HD 
HETATM   10  C   UNL     1     -12.744  15.349  70.878  1.00  0.00    -0.461 A  
HETATM   11  N   UNL     1     -12.914  13.892  73.085  1.00  0.00    -0.388 NA 
HETATM   12  N   UNL     1     -12.651  15.996  72.097  1.00  0.00    -0.452 NA 
HETATM   13  H1  UNL     1     -13.430  11.419  72.648  1.00  0.00     0.000 HD 
HETATM   14  C   UNL     1     -12.298  15.851  74.481  1.00  0.00    -0.752 C  
HETATM   15  N   UNL     1     -13.250  11.962  71.803  1.00  0.00    -0.414 NA 
HETATM   16  C   UNL     1     -12.670  15.239  73.155  1.00  0.00    -0.474 A  
HETATM   17  C   UNL     1     -12.967  13.222  71.894  1.00  0.00    -0.311 A  
ENDBRANCH   7   8
ENDBRANCH   4   7
ENDBRANCH   2   4
BRANCH   3  18
HETATM   18  C   UNL     1      -9.925  15.627  66.039  1.00  0.00    -0.359 C  
BRANCH  18  19
HETATM   19  C   UNL     1     -10.630  16.579  64.996  1.00  0.00    -0.144 C  
BRANCH  19  20
HETATM   20  O   UNL     1     -10.831  17.977  65.428  1.00  0.00    -0.547 OA 
HETATM   21  O   UNL     1     -10.786  18.290  67.627  1.00  0.00    -0.396 OA 
HETATM   22  O   UNL     1     -10.064  20.001  66.050  1.00  0.00    -0.467 OA 
HETATM   23  P   UNL     1      -9.601  18.506  66.524  1.00  0.00    -0.305 P  
HETATM   24  O   UNL     1      -8.500  18.979  67.504  1.00  0.00    -0.277 OA 
ENDBRANCH  19  20
ENDBRANCH  18  19
ENDBRANCH   3  18
BRANCH   3  25
HETATM   25  S   UNL     1     -12.343  14.063  65.997  1.00  0.00    -0.441 SA 
BRANCH  25  26
HETATM   26  C   UNL     1     -11.951  13.292  64.405  1.00  0.00    -0.406 C  
HETATM   27  O   UNL     1     -12.482  13.678  63.370  1.00  0.00    -0.784 OA 
BRANCH  26  28
HETATM   28  C   UNL     1     -11.006  12.070  64.346  1.00  0.00    -0.385 A  
HETATM   29  C   UNL     1      -9.407  10.714  63.002  1.00  0.00    -0.342 A  
HETATM   30  C   UNL     1     -10.313  11.790  63.137  1.00  0.00    -0.364 A  
HETATM   31  C   UNL     1     -10.699  11.224  65.415  1.00  0.00    -0.291 A  
HETATM   32  C   UNL     1      -9.147   9.892  64.092  1.00  0.00    -0.294 A  
HETATM   33  C   UNL     1      -9.791  10.156  65.301  1.00  0.00    -0.388 A  
ENDBRANCH  26  28
ENDBRANCH  25  26
ENDBRANCH   3  25
TORSDOF 9
ENDMDL
MODEL        6
REMARK 921   NORMALIZED FREE ENERGY PREDICTED BY IDOCK:   -7.16 KCAL/MOL
REMARK 922        TOTAL FREE ENERGY PREDICTED BY IDOCK:  -12.43 KCAL/MOL
REMARK 923 INTER-LIGAND FREE ENERGY PREDICTED BY IDOCK:  -10.67 KCAL/MOL
REMARK 924 INTRA-LIGAND FREE ENERGY PREDICTED BY IDOCK:   -1.76 KCAL/MOL
REMARK 927      BINDING AFFINITY PREDICTED BY RF-SCORE:    0.00 PKD
ROOT
HETATM    1  C   UNL     1      -8.741  14.955  66.600  1.00  0.00    -0.262 C  
HETATM    2  C   UNL     1     -10.219  15.278  66.878  1.00  0.00    -0.268 C  
HETATM    3  C   UNL     1     -10.561  15.812  68.089  1.00  0.00    -0.275 C  
ENDROOT
BRANCH   2   4
HETATM    4  N   UNL     1     -11.060  15.020  65.778  1.00  0.00    -0.346 N  
HETATM    5  C   UNL     1     -11.359  16.024  64.843  1.00  0.00    -0.229 C  
HETATM    6  O   UNL     1     -12.278  16.002  64.038  1.00  0.00    -0.792 OA 
BRANCH   4   7
HETATM    7  C   UNL     1     -12.045  13.919  65.846  1.00  0.00    -0.433 C  
BRANCH   7   8
HETATM    8  C   UNL     1     -11.497  12.566  65.431  1.00  0.00    -0.383 A  
HETATM    9  H2  UNL     1     -12.958  13.614  63.576  1.00  0.00     0.000 HD 
HETATM   10  C   UNL     1     -10.891  11.614  66.173  1.00  0.00    -0.294 A  
HETATM   11  N   UNL     1     -10.857  11.121  63.570  1.00  0.00    -0.300 NA 
HETATM   12  N   UNL     1     -10.107  10.571  65.716  1.00  0.00    -0.260 NA 
HETATM   13  H1  UNL     1     -12.482  12.578  62.225  1.00  0.00     0.000 HD 
HETATM   14  C   UNL     1      -9.023   9.474  63.859  1.00  0.00    -0.217 C  
HETATM   15  N   UNL     1     -12.406  12.839  63.209  1.00  0.00    -0.660 NA 
HETATM   16  C   UNL     1     -10.063  10.404  64.427  1.00  0.00    -0.272 A  
HETATM   17  C   UNL     1     -11.609  12.184  63.990  1.00  0.00    -0.423 A  
ENDBRANCH   7   8
ENDBRANCH   4   7
ENDBRANCH   2   4
BRANCH   3  18
HETATM   18  C   UNL     1      -9.429  16.410  69.037  1.00  0.00    -0.258 C  
BRANCH  18  19
HETATM   19  C   UNL     1      -9.125  17.952  68.899  1.00  0.00    -0.125 C  
BRANCH  19  20
HETATM   20  O   UNL     1      -9.894  18.675  67.866  1.00  0.00    -0.304 OA 
HETATM   21  O   UNL     1      -9.089  20.675  67.331  1.00  0.00    -0.358 OA 
HETATM   22  O   UNL     1     -10.288  19.280  65.733  1.00  0.00    -0.478 OA 
HETATM   23  P   UNL     1      -8.887  19.240  66.577  1.00  0.00    -0.350 P  
HETATM   24  O   UNL     1      -7.987  19.745  65.424  1.00  0.00    -0.319 OA 
ENDBRANCH  19  20
ENDBRANCH  18  19
ENDBRANCH   3  18
BRANCH   3  25
HETATM   25  S   UNL     1     -12.258  15.948  68.749  1.00  0.00     0.444 SA 
BRANCH  25  26
HETATM   26  C   UNL     1     -12.418  15.326  70.443  1.00  0.00    -0.381 C  
HETATM   27  O   UNL     1     -12.357  16.087  71.402  1.00  0.00    -0.440 OA 
BRANCH  26  28
HETATM   28  C   UNL     1     -12.539  13.807  70.704  1.00  0.00    -0.386 A  
HETATM   29  C   UNL     1     -11.930  11.500  69.994  1.00  0.00    -0.435 A  
HETATM   30  C   UNL     1     -11.897  12.901  69.816  1.00  0.00    -0.380 A  
HETATM   31  C   UNL     1     -13.178  13.215  71.796  1.00  0.00    -0.494 A  
HETATM   32  C   UNL     1     -12.591  10.959  71.089  1.00  0.00    -0.532 A  
HETATM   33  C   UNL     1     -13.210  11.823  71.994  1.00  0.00    -0.460 A  
ENDBRANCH  26  28
ENDBRANCH  25  26
ENDBRANCH   3  25
TORSDOF 9
ENDMDL
MODEL        7
REMARK 921   NORMALIZED FREE ENERGY PREDICTED BY IDOCK:   -7.10 KCAL/MOL
REMARK 922        TOTAL FREE ENERGY PREDICTED BY IDOCK:  -12.35 KCAL/MOL
REMARK 923 INTER-LIGAND FREE ENERGY PREDICTED BY IDOCK:  -10.49 KCAL/MOL
REMARK 924 INTRA-LIGAND FREE ENERGY PREDICTED BY IDOCK:   -1.86 KCAL/MOL
REMARK 927      BINDING AFFINITY PREDICTED BY RF-SCORE:    0.00 PKD
ROOT
HETATM    1  C   UNL     1     -11.051  16.768  64.963  1.00  0.00    -0.063 C  
HETATM    2  C   UNL     1     -10.482  16.644  66.386  1.00  0.00    -0.266 C  
HETATM    3  C   UNL     1     -10.694  15.487  67.083  1.00  0.00    -0.315 C  
ENDROOT
BRANCH   2   4
HETATM    4  N   UNL     1      -9.736  17.770  66.786  1.00  0.00    -0.295 N  
HETATM    5  C   UNL     1     -10.363  19.001  67.043  1.00  0.00    -0.409 C  
HETATM    6  O   UNL     1      -9.808  20.087  67.109  1.00  0.00    -0.371 OA 
BRANCH   4   7
HETATM    7  C   UNL     1      -8.300  17.863  66.445  1.00  0.00    -0.242 C  
BRANCH   7   8
HETATM    8  C   UNL     1      -7.388  17.090  67.380  1.00  0.00    -0.182 A  
HETATM    9  H2  UNL     1      -7.445  19.607  67.963  1.00  0.00     0.000 HD 
HETATM   10  C   UNL     1      -6.917  15.829  67.281  1.00  0.00    -0.197 A  
HETATM   11  N   UNL     1      -6.358  17.000  69.591  1.00  0.00    -0.238 NA 
HETATM   12  N   UNL     1      -6.388  15.053  68.296  1.00  0.00    -0.108 NA 
HETATM   13  H1  UNL     1      -6.713  19.539  69.571  1.00  0.00     0.000 HD 
HETATM   14  C   UNL     1      -5.882  14.803  70.644  1.00  0.00    -0.149 C  
HETATM   15  N   UNL     1      -7.034  19.067  68.725  1.00  0.00    -0.297 NA 
HETATM   16  C   UNL     1      -6.191  15.648  69.436  1.00  0.00    -0.136 A  
HETATM   17  C   UNL     1      -6.918  17.782  68.619  1.00  0.00    -0.247 A  
ENDBRANCH   7   8
ENDBRANCH   4   7
ENDBRANCH   2   4
BRANCH   3  18
HETATM   18  C   UNL     1     -11.199  14.185  66.318  1.00  0.00    -0.329 C  
BRANCH  18  19
HETATM   19  C   UNL     1     -12.758  13.947  66.267  1.00  0.00    -0.213 C  
BRANCH  19  20
HETATM   20  O   UNL     1     -13.272  13.282  65.052  1.00  0.00    -0.698 OA 
HETATM   21  O   UNL     1     -12.417  14.031  63.144  1.00  0.00    -0.733 OA 
HETATM   22  O   UNL     1     -13.151  11.726  63.429  1.00  0.00    -0.622 OA 
HETATM   23  P   UNL     1     -11.998  12.721  64.025  1.00  0.00    -0.520 P  
HETATM   24  O   UNL     1     -10.858  12.218  63.107  1.00  0.00    -0.377 OA 
ENDBRANCH  19  20
ENDBRANCH  18  19
ENDBRANCH   3  18
BRANCH   3  25
HETATM   25  S   UNL     1     -10.414  15.258  68.873  1.00  0.00    -0.251 SA 
BRANCH  25  26
HETATM   26  C   UNL     1     -11.934  14.911  69.795  1.00  0.00    -0.323 C  
HETATM   27  O   UNL     1     -12.692  15.816  70.126  1.00  0.00    -0.302 OA 
BRANCH  26  28
HETATM   28  C   UNL     1     -12.247  13.470  70.259  1.00  0.00    -0.417 A  
HETATM   29  C   UNL     1     -11.947  11.028  69.876  1.00  0.00    -0.427 A  
HETATM   30  C   UNL     1     -11.736  12.376  69.509  1.00  0.00    -0.388 A  
HETATM   31  C   UNL     1     -12.946  13.120  71.418  1.00  0.00    -0.386 A  
HETATM   32  C   UNL     1     -12.662  10.732  71.030  1.00  0.00    -0.513 A  
HETATM   33  C   UNL     1     -13.155  11.783  71.804  1.00  0.00    -0.480 A  
ENDBRANCH  26  28
ENDBRANCH  25  26
ENDBRANCH   3  25
TORSDOF 9
ENDMDL
MODEL        8
REMARK 921   NORMALIZED FREE ENERGY PREDICTED BY IDOCK:   -7.01 KCAL/MOL
REMARK 922        TOTAL FREE ENERGY PREDICTED BY IDOCK:  -12.20 KCAL/MOL
REMARK 923 INTER-LIGAND FREE ENERGY PREDICTED BY IDOCK:  -10.56 KCAL/MOL
REMARK 924 INTRA-LIGAND FREE ENERGY PREDICTED BY IDOCK:   -1.64 KCAL/MOL
REMARK 927      BINDING AFFINITY PREDICTED BY RF-SCORE:    0.00 PKD
ROOT
HETATM    1  C   UNL     1     -12.777  13.512  65.631  1.00  0.00    -0.478 C  
HETATM    2  C   UNL     1     -11.274  13.463  65.954  1.00  0.00    -0.300 C  
HETATM    3  C   UNL     1     -10.767  14.338  66.873  1.00  0.00    -0.290 C  
ENDROOT
BRANCH   2   4
HETATM    4  N   UNL     1     -10.592  12.439  65.267  1.00  0.00    -0.281 N  
HETATM    5  C   UNL     1     -10.277  12.565  63.905  1.00  0.00    -0.360 C  
HETATM    6  O   UNL     1      -9.958  11.654  63.155  1.00  0.00    -0.390 OA 
BRANCH   4   7
HETATM    7  C   UNL     1     -10.656  11.048  65.765  1.00  0.00    -0.195 C  
BRANCH   7   8
HETATM    8  C   UNL     1     -10.008  10.841  67.121  1.00  0.00    -0.230 A  
HETATM    9  H2  UNL     1     -12.491  11.522  67.341  1.00  0.00     0.000 HD 
HETATM   10  C   UNL     1      -8.705  10.703  67.445  1.00  0.00    -0.125 A  
HETATM   11  N   UNL     1     -10.359  10.278  69.471  1.00  0.00    -0.230 NA 
HETATM   12  N   UNL     1      -8.185  10.178  68.614  1.00  0.00    -0.106 NA 
HETATM   13  H1  UNL     1     -12.749  11.099  69.038  1.00  0.00     0.000 HD 
HETATM   14  C   UNL     1      -8.579   9.100  70.738  1.00  0.00    -0.265 C  
HETATM   15  N   UNL     1     -12.136  11.155  68.224  1.00  0.00    -0.607 NA 
HETATM   16  C   UNL     1      -9.039   9.920  69.561  1.00  0.00    -0.223 A  
HETATM   17  C   UNL     1     -10.907  10.760  68.314  1.00  0.00    -0.229 A  
ENDBRANCH   7   8
ENDBRANCH   4   7
ENDBRANCH   2   4
BRANCH   3  18
HETATM   18  C   UNL     1     -11.756  15.133  67.835  1.00  0.00    -0.275 C  
BRANCH  18  19
HETATM   19  C   UNL     1     -11.916  14.584  69.306  1.00  0.00    -0.319 C  
BRANCH  19  20
HETATM   20  O   UNL     1     -12.151  15.599  70.354  1.00  0.00    -0.361 OA 
HETATM   21  O   UNL     1     -14.183  15.562  71.251  1.00  0.00    -0.544 OA 
HETATM   22  O   UNL     1     -12.215  16.264  72.505  1.00  0.00    -0.493 OA 
HETATM   23  P   UNL     1     -12.793  14.904  71.803  1.00  0.00    -0.395 P  
HETATM   24  O   UNL     1     -13.368  14.283  73.099  1.00  0.00    -0.643 OA 
ENDBRANCH  19  20
ENDBRANCH  18  19
ENDBRANCH   3  18
BRANCH   3  25
HETATM   25  S   UNL     1      -8.996  14.683  67.150  1.00  0.00    -0.237 SA 
BRANCH  25  26
HETATM   26  C   UNL     1      -8.702  16.186  68.118  1.00  0.00    -0.175 C  
HETATM   27  O   UNL     1      -8.043  16.151  69.151  1.00  0.00    -0.229 OA 
BRANCH  26  28
HETATM   28  C   UNL     1      -9.364  17.519  67.700  1.00  0.00    -0.244 A  
HETATM   29  C   UNL     1     -10.089  19.804  68.373  1.00  0.00    -0.568 A  
HETATM   30  C   UNL     1      -9.524  18.545  68.672  1.00  0.00    -0.373 A  
HETATM   31  C   UNL     1      -9.771  17.858  66.407  1.00  0.00    -0.321 A  
HETATM   32  C   UNL     1     -10.492  20.087  67.073  1.00  0.00    -0.513 A  
HETATM   33  C   UNL     1     -10.324  19.112  66.090  1.00  0.00    -0.561 A  
ENDBRANCH  26  28
ENDBRANCH  25  26
ENDBRANCH   3  25
TORSDOF 9
ENDMDL
MODEL        9
REMARK 921   NORMALIZED FREE ENERGY PREDICTED BY IDOCK:   -6.95 KCAL/MOL
REMARK 922        TOTAL FREE ENERGY PREDICTED BY IDOCK:  -12.11 KCAL/MOL
REMARK 923 INTER-LIGAND FREE ENERGY PREDICTED BY IDOCK:  -10.54 KCAL/MOL
REMARK 924 INTRA-LIGAND FREE ENERGY PREDICTED BY IDOCK:   -1.58 KCAL/MOL
REMARK 927      BINDING AFFINITY PREDICTED BY RF-SCORE:    0.00 PKD
ROOT
HETATM    1  C   UNL     1     -10.225  10.646  64.224  1.00  0.00    -0.391 C  
HETATM    2  C   UNL     1     -10.330  11.491  65.505  1.00  0.00    -0.273 C  
HETATM    3  C   UNL     1      -9.708  11.048  66.639  1.00  0.00    -0.195 C  
ENDROOT
BRANCH   2   4
HETATM    4  N   UNL     1     -11.040  12.693  65.321  1.00  0.00    -0.288 N  
HETATM    5  C   UNL     1     -12.444  12.713  65.325  1.00  0.00    -0.416 C  
HETATM    6  O   UNL     1     -13.149  13.616  64.898  1.00  0.00    -0.713 OA 
BRANCH   4   7
HETATM    7  C   UNL     1     -10.404  13.825  64.612  1.00  0.00    -0.368 C  
BRANCH   7   8
HETATM    8  C   UNL     1     -10.019  14.985  65.512  1.00  0.00    -0.390 A  
HETATM    9  H2  UNL     1     -11.351  15.778  63.445  1.00  0.00     0.000 HD 
HETATM   10  C   UNL     1      -9.152  15.028  66.546  1.00  0.00    -0.286 A  
HETATM   11  N   UNL     1     -10.566  17.249  66.246  1.00  0.00    -0.244 NA 
HETATM   12  N   UNL     1      -9.086  15.983  67.543  1.00  0.00    -0.198 NA 
HETATM   13  H1  UNL     1     -11.759  17.411  63.983  1.00  0.00     0.000 HD 
HETATM   14  C   UNL     1     -10.026  17.960  68.563  1.00  0.00    -0.379 C  
HETATM   15  N   UNL     1     -11.308  16.512  64.152  1.00  0.00    -1.047 NA 
HETATM   16  C   UNL     1      -9.847  17.028  67.392  1.00  0.00    -0.262 A  
HETATM   17  C   UNL     1     -10.681  16.303  65.264  1.00  0.00    -0.332 A  
ENDBRANCH   7   8
ENDBRANCH   4   7
ENDBRANCH   2   4
BRANCH   3  18
HETATM   18  C   UNL     1      -8.621   9.889  66.544  1.00  0.00    -0.131 C  
BRANCH  18  19
HETATM   19  C   UNL     1      -8.737   8.713  67.590  1.00  0.00    -0.136 C  
BRANCH  19  20
HETATM   20  O   UNL     1      -9.413   7.488  67.115  1.00  0.00    -0.141 OA 
HETATM   21  O   UNL     1      -9.125   5.703  68.405  1.00  0.00    -0.117 OA 
HETATM   22  O   UNL     1     -11.146   6.051  67.090  1.00  0.00    -0.301 OA 
HETATM   23  P   UNL     1     -10.376   6.753  68.350  1.00  0.00    -0.224 P  
HETATM   24  O   UNL     1     -11.238   6.096  69.455  1.00  0.00    -0.389 OA 
ENDBRANCH  19  20
ENDBRANCH  18  19
ENDBRANCH   3  18
BRANCH   3  25
HETATM   25  S   UNL     1      -9.982  11.698  68.323  1.00  0.00    -0.204 SA 
BRANCH  25  26
HETATM   26  C   UNL     1     -11.373  10.911  69.176  1.00  0.00    -0.283 C  
HETATM   27  O   UNL     1     -12.531  11.181  68.877  1.00  0.00    -0.460 OA 
BRANCH  26  28
HETATM   28  C   UNL     1     -11.114   9.952  70.361  1.00  0.00    -0.382 A  
HETATM   29  C   UNL     1     -12.081   8.566  72.190  1.00  0.00    -0.449 A  
HETATM   30  C   UNL     1     -12.221   9.467  71.112  1.00  0.00    -0.421 A  
HETATM   31  C   UNL     1      -9.871   9.440  70.740  1.00  0.00    -0.348 A  
HETATM   32  C   UNL     1     -10.819   8.098  72.537  1.00  0.00    -0.431 A  
HETATM   33  C   UNL     1      -9.715   8.533  71.804  1.00  0.00    -0.337 A  
ENDBRANCH  26  28
ENDBRANCH  25  26
ENDBRANCH   3  25
TORSDOF 9
ENDMDL
MODEL       10
REMARK 921   NORMALIZED FREE ENERGY PREDICTED BY IDOCK:   -6.91 KCAL/MOL
REMARK 922        TOTAL FREE ENERGY PREDICTED BY IDOCK:  -12.06 KCAL/MOL
REMARK 923 INTER-LIGAND FREE ENERGY PREDICTED BY IDOCK:  -10.36 KCAL/MOL
REMARK 924 INTRA-LIGAND FREE ENERGY PREDICTED BY IDOCK:   -1.70 KCAL/MOL
REMARK 927      BINDING AFFINITY PREDICTED BY RF-SCORE:    0.00 PKD
ROOT
HETATM    1  C   UNL     1      -7.928   8.261  67.199  1.00  0.00    -0.105 C  
HETATM    2  C   UNL     1      -8.566   9.425  67.976  1.00  0.00    -0.120 C  
HETATM    3  C   UNL     1      -9.178  10.427  67.277  1.00  0.00    -0.142 C  
ENDROOT
BRANCH   2   4
HETATM    4  N   UNL     1      -8.478   9.273  69.374  1.00  0.00    -0.130 N  
HETATM    5  C   UNL     1      -7.456   9.896  70.108  1.00  0.00    -0.170 C  
HETATM    6  O   UNL     1      -7.116   9.612  71.247  1.00  0.00    -0.329 OA 
BRANCH   4   7
HETATM    7  C   UNL     1      -9.080   8.090  70.026  1.00  0.00    -0.152 C  
BRANCH   7   8
HETATM    8  C   UNL     1     -10.558   8.238  70.341  1.00  0.00    -0.231 A  
HETATM    9  H2  UNL     1     -10.021   5.921  69.332  1.00  0.00     0.000 HD 
HETATM   10  C   UNL     1     -11.268   9.341  70.660  1.00  0.00    -0.276 A  
HETATM   11  N   UNL     1     -12.639   7.084  70.887  1.00  0.00    -0.304 NA 
HETATM   12  N   UNL     1     -12.509   9.388  71.269  1.00  0.00    -0.327 NA 
HETATM   13  H1  UNL     1     -11.522   5.082  69.742  1.00  0.00     0.000 HD 
HETATM   14  C   UNL     1     -14.333   8.203  72.317  1.00  0.00    -0.398 C  
HETATM   15  N   UNL     1     -10.949   5.925  69.757  1.00  0.00    -0.378 NA 
HETATM   16  C   UNL     1     -13.121   8.251  71.424  1.00  0.00    -0.221 A  
HETATM   17  C   UNL     1     -11.399   7.002  70.318  1.00  0.00    -0.295 A  
ENDBRANCH   7   8
ENDBRANCH   4   7
ENDBRANCH   2   4
BRANCH   3  18
HETATM   18  C   UNL     1      -9.532  10.216  65.739  1.00  0.00    -0.262 C  
BRANCH  18  19
HETATM   19  C   UNL     1     -10.126  11.457  64.967  1.00  0.00    -0.274 C  
BRANCH  19  20
HETATM   20  O   UNL     1     -11.497  11.297  64.439  1.00  0.00    -0.165 OA 
HETATM   21  O   UNL     1     -12.952  12.822  65.141  1.00  0.00    -0.768 OA 
HETATM   22  O   UNL     1     -13.129  11.757  62.957  1.00  0.00    -0.508 OA 
HETATM   23  P   UNL     1     -12.105  12.760  63.745  1.00  0.00    -0.538 P  
HETATM   24  O   UNL     1     -12.650  14.070  63.124  1.00  0.00    -0.733 OA 
ENDBRANCH  19  20
ENDBRANCH  18  19
ENDBRANCH   3  18
BRANCH   3  25
HETATM   25  S   UNL     1      -9.687  12.042  67.961  1.00  0.00    -0.202 SA 
BRANCH  25  26
HETATM   26  C   UNL     1     -11.418  12.079  68.494  1.00  0.00    -0.293 C  
HETATM   27  O   UNL     1     -12.246  11.322  68.000  1.00  0.00    -0.621 OA 
BRANCH  26  28
HETATM   28  C   UNL     1     -11.893  13.138  69.516  1.00  0.00    -0.383 A  
HETATM   29  C   UNL     1     -12.265  15.546  70.025  1.00  0.00    -0.380 A  
HETATM   30  C   UNL     1     -11.826  14.514  69.166  1.00  0.00    -0.354 A  
HETATM   31  C   UNL     1     -12.464  12.869  70.763  1.00  0.00    -0.370 A  
HETATM   32  C   UNL     1     -12.812  15.228  71.262  1.00  0.00    -0.494 A  
HETATM   33  C   UNL     1     -12.916  13.885  71.625  1.00  0.00    -0.433 A  
ENDBRANCH  26  28
ENDBRANCH  25  26
ENDBRANCH   3  25
TORSDOF 9
ENDMDL
MODEL       11
REMARK 921   NORMALIZED FREE ENERGY PREDICTED BY IDOCK:   -6.89 KCAL/MOL
REMARK 922        TOTAL FREE ENERGY PREDICTED BY IDOCK:  -12.02 KCAL/MOL
REMARK 923 INTER-LIGAND FREE ENERGY PREDICTED BY IDOCK:  -10.67 KCAL/MOL
REMARK 924 INTRA-LIGAND FREE ENERGY PREDICTED BY IDOCK:   -1.36 KCAL/MOL
REMARK 927      BINDING AFFINITY PREDICTED BY RF-SCORE:    0.00 PKD
ROOT
HETATM    1  C   UNL     1      -9.646  15.574  69.469  1.00  0.00    -0.278 C  
HETATM    2  C   UNL     1      -9.953  14.397  68.529  1.00  0.00    -0.237 C  
HETATM    3  C   UNL     1     -11.117  13.700  68.704  1.00  0.00    -0.272 C  
ENDROOT
BRANCH   2   4
HETATM    4  N   UNL     1      -8.978  14.214  67.530  1.00  0.00    -0.188 N  
HETATM    5  C   UNL     1      -7.640  13.946  67.864  1.00  0.00    -0.156 C  
HETATM    6  O   UNL     1      -6.679  14.055  67.117  1.00  0.00    -0.168 OA 
BRANCH   4   7
HETATM    7  C   UNL     1      -9.178  14.799  66.187  1.00  0.00    -0.202 C  
BRANCH   7   8
HETATM    8  C   UNL     1      -9.167  16.317  66.162  1.00  0.00    -0.376 A  
HETATM    9  H2  UNL     1     -10.933  15.346  64.545  1.00  0.00     0.000 HD 
HETATM   10  C   UNL     1      -8.269  17.184  66.675  1.00  0.00    -0.256 A  
HETATM   11  N   UNL     1     -10.453  18.346  65.727  1.00  0.00    -0.623 NA 
HETATM   12  N   UNL     1      -8.460  18.528  66.938  1.00  0.00    -0.264 NA 
HETATM   13  H1  UNL     1     -11.874  16.812  64.243  1.00  0.00     0.000 HD 
HETATM   14  C   UNL     1      -9.963  20.418  67.005  1.00  0.00    -0.568 C  
HETATM   15  N   UNL     1     -11.094  16.341  64.703  1.00  0.00    -0.645 NA 
HETATM   16  C   UNL     1      -9.576  19.046  66.515  1.00  0.00    -0.351 A  
HETATM   17  C   UNL     1     -10.309  17.007  65.488  1.00  0.00    -0.143 A  
ENDBRANCH   7   8
ENDBRANCH   4   7
ENDBRANCH   2   4
BRANCH   3  18
HETATM   18  C   UNL     1     -12.274  14.310  69.612  1.00  0.00    -0.371 C  
BRANCH  18  19
HETATM   19  C   UNL     1     -12.731  13.452  70.856  1.00  0.00    -0.272 C  
BRANCH  19  20
HETATM   20  O   UNL     1     -13.507  14.170  71.888  1.00  0.00    -0.347 OA 
HETATM   21  O   UNL     1     -12.436  14.488  73.808  1.00  0.00    -0.413 OA 
HETATM   22  O   UNL     1     -14.118  16.044  72.978  1.00  0.00    -0.508 OA 
HETATM   23  P   UNL     1     -12.633  15.510  72.548  1.00  0.00    -0.505 P  
HETATM   24  O   UNL     1     -11.851  16.708  73.138  1.00  0.00    -0.473 OA 
ENDBRANCH  19  20
ENDBRANCH  18  19
ENDBRANCH   3  18
BRANCH   3  25
HETATM   25  S   UNL     1     -11.514  12.089  67.944  1.00  0.00    -0.340 SA 
BRANCH  25  26
HETATM   26  C   UNL     1     -11.609  12.155  66.135  1.00  0.00    -0.354 C  
HETATM   27  O   UNL     1     -12.569  12.670  65.573  1.00  0.00    -0.634 OA 
BRANCH  26  28
HETATM   28  C   UNL     1     -10.518  11.476  65.276  1.00  0.00    -0.336 A  
HETATM   29  C   UNL     1      -8.303  10.342  65.207  1.00  0.00    -0.165 A  
HETATM   30  C   UNL     1      -9.337  11.001  65.908  1.00  0.00    -0.229 A  
HETATM   31  C   UNL     1     -10.606  11.210  63.907  1.00  0.00    -0.431 A  
HETATM   32  C   UNL     1      -8.432  10.115  63.842  1.00  0.00    -0.181 A  
HETATM   33  C   UNL     1      -9.591  10.545  63.196  1.00  0.00    -0.375 A  
ENDBRANCH  26  28
ENDBRANCH  25  26
ENDBRANCH   3  25
TORSDOF 9
ENDMDL
MODEL       12
REMARK 921   NORMALIZED FREE ENERGY PREDICTED BY IDOCK:   -6.87 KCAL/MOL
REMARK 922        TOTAL FREE ENERGY PREDICTED BY IDOCK:  -11.99 KCAL/MOL
REMARK 923 INTER-LIGAND FREE ENERGY PREDICTED BY IDOCK:  -10.68 KCAL/MOL
REMARK 924 INTRA-LIGAND FREE ENERGY PREDICTED BY IDOCK:   -1.32 KCAL/MOL
REMARK 927      BINDING AFFINITY PREDICTED BY RF-SCORE:    0.00 PKD
ROOT
HETATM    1  C   UNL     1     -11.837  14.954  69.081  1.00  0.00    -0.340 C  
HETATM    2  C   UNL     1     -11.744  13.790  68.080  1.00  0.00    -0.355 C  
HETATM    3  C   UNL     1     -11.677  12.511  68.560  1.00  0.00    -0.324 C  
ENDROOT
BRANCH   2   4
HETATM    4  N   UNL     1     -11.797  14.207  66.736  1.00  0.00    -0.407 N  
HETATM    5  C   UNL     1     -12.860  13.827  65.901  1.00  0.00    -0.315 C  
HETATM    6  O   UNL     1     -12.867  13.882  64.680  1.00  0.00    -0.660 OA 
BRANCH   4   7
HETATM    7  C   UNL     1     -10.552  14.576  66.029  1.00  0.00    -0.307 C  
BRANCH   7   8
HETATM    8  C   UNL     1     -10.146  16.029  66.201  1.00  0.00    -0.346 A  
HETATM    9  H2  UNL     1     -11.247  15.609  63.901  1.00  0.00     0.000 HD 
HETATM   10  C   UNL     1      -9.360  16.602  67.137  1.00  0.00    -0.228 A  
HETATM   11  N   UNL     1     -10.565  18.342  65.542  1.00  0.00    -0.576 NA 
HETATM   12  N   UNL     1      -9.296  17.944  67.466  1.00  0.00    -0.252 NA 
HETATM   13  H1  UNL     1     -11.564  17.284  63.432  1.00  0.00     0.000 HD 
HETATM   14  C   UNL     1     -10.150  20.181  67.158  1.00  0.00    -0.590 C  
HETATM   15  N   UNL     1     -11.200  16.608  64.104  1.00  0.00    -1.039 NA 
HETATM   16  C   UNL     1      -9.956  18.760  66.698  1.00  0.00    -0.365 A  
HETATM   17  C   UNL     1     -10.679  17.019  65.215  1.00  0.00    -0.096 A  
ENDBRANCH   7   8
ENDBRANCH   4   7
ENDBRANCH   2   4
BRANCH   3  18
HETATM   18  C   UNL     1     -12.043  12.218  70.082  1.00  0.00    -0.364 C  
BRANCH  18  19
HETATM   19  C   UNL     1     -12.363  10.721  70.463  1.00  0.00    -0.369 C  
BRANCH  19  20
HETATM   20  O   UNL     1     -11.263   9.964  71.095  1.00  0.00    -0.354 OA 
HETATM   21  O   UNL     1     -11.908   8.449  72.586  1.00  0.00    -0.393 OA 
HETATM   22  O   UNL     1      -9.896   8.180  71.238  1.00  0.00    -0.157 OA 
HETATM   23  P   UNL     1     -11.515   8.254  71.012  1.00  0.00    -0.255 P  
HETATM   24  O   UNL     1     -11.739   6.725  70.938  1.00  0.00    -0.332 OA 
ENDBRANCH  19  20
ENDBRANCH  18  19
ENDBRANCH   3  18
BRANCH   3  25
HETATM   25  S   UNL     1     -11.223  11.034  67.588  1.00  0.00    -0.282 SA 
BRANCH  25  26
HETATM   26  C   UNL     1      -9.653  11.217  66.701  1.00  0.00    -0.190 C  
HETATM   27  O   UNL     1      -8.701  11.791  67.217  1.00  0.00    -0.152 OA 
BRANCH  26  28
HETATM   28  C   UNL     1      -9.527  10.729  65.239  1.00  0.00    -0.263 A  
HETATM   29  C   UNL     1      -9.987  11.170  62.833  1.00  0.00    -0.282 A  
HETATM   30  C   UNL     1     -10.082  11.521  64.197  1.00  0.00    -0.354 A  
HETATM   31  C   UNL     1      -8.840   9.588  64.816  1.00  0.00    -0.244 A  
HETATM   32  C   UNL     1      -9.306  10.016  62.464  1.00  0.00    -0.297 A  
HETATM   33  C   UNL     1      -8.726   9.230  63.461  1.00  0.00    -0.188 A  
ENDBRANCH  26  28
ENDBRANCH  25  26
ENDBRANCH   3  25
TORSDOF 9
ENDMDL
MODEL       13
REMARK 921   NORMALIZED FREE ENERGY PREDICTED BY IDOCK:   -6.85 KCAL/MOL
REMARK 922        TOTAL FREE ENERGY PREDICTED BY IDOCK:  -11.96 KCAL/MOL
REMARK 923 INTER-LIGAND FREE ENERGY PREDICTED BY IDOCK:  -10.85 KCAL/MOL
REMARK 924 INTRA-LIGAND FREE ENERGY PREDICTED BY IDOCK:   -1.10 KCAL/MOL
REMARK 927      BINDING AFFINITY PREDICTED BY RF-SCORE:    0.00 PKD
ROOT
HETATM    1  C   UNL     1     -11.796  14.861  69.041  1.00  0.00    -0.333 C  
HETATM    2  C   UNL     1     -11.677  13.690  68.051  1.00  0.00    -0.352 C  
HETATM    3  C   UNL     1     -11.556  12.420  68.543  1.00  0.00    -0.313 C  
ENDROOT
BRANCH   2   4
HETATM    4  N   UNL     1     -11.764  14.091  66.703  1.00  0.00    -0.379 N  
HETATM    5  C   UNL     1     -12.842  13.690  65.897  1.00  0.00    -0.269 C  
HETATM    6  O   UNL     1     -12.877  13.730  64.676  1.00  0.00    -0.662 OA 
BRANCH   4   7
HETATM    7  C   UNL     1     -10.540  14.465  65.964  1.00  0.00    -0.302 C  
BRANCH   7   8
HETATM    8  C   UNL     1     -10.150  15.926  66.104  1.00  0.00    -0.334 A  
HETATM    9  H2  UNL     1     -11.403  15.478  63.889  1.00  0.00     0.000 HD 
HETATM   10  C   UNL     1      -9.311  16.517  66.981  1.00  0.00    -0.230 A  
HETATM   11  N   UNL     1     -10.659  18.229  65.472  1.00  0.00    -0.576 NA 
HETATM   12  N   UNL     1      -9.249  17.861  67.303  1.00  0.00    -0.252 NA 
HETATM   13  H1  UNL     1     -11.785  17.145  63.441  1.00  0.00     0.000 HD 
HETATM   14  C   UNL     1     -10.166  20.080  67.052  1.00  0.00    -0.587 C  
HETATM   15  N   UNL     1     -11.361  16.478  64.087  1.00  0.00    -1.047 NA 
HETATM   16  C   UNL     1      -9.978  18.661  66.581  1.00  0.00    -0.365 A  
HETATM   17  C   UNL     1     -10.771  16.903  65.157  1.00  0.00    -0.103 A  
ENDBRANCH   7   8
ENDBRANCH   4   7
ENDBRANCH   2   4
BRANCH   3  18
HETATM   18  C   UNL     1     -11.889  12.130  70.073  1.00  0.00    -0.383 C  
BRANCH  18  19
HETATM   19  C   UNL     1     -12.623  10.772  70.399  1.00  0.00    -0.314 C  
BRANCH  19  20
HETATM   20  O   UNL     1     -12.112  10.023  71.565  1.00  0.00    -0.381 OA 
HETATM   21  O   UNL     1     -13.678   9.100  72.841  1.00  0.00    -0.361 OA 
HETATM   22  O   UNL     1     -11.461   8.123  72.583  1.00  0.00    -0.392 OA 
HETATM   23  P   UNL     1     -12.775   8.427  71.658  1.00  0.00    -0.317 P  
HETATM   24  O   UNL     1     -13.367   7.000  71.741  1.00  0.00    -0.353 OA 
ENDBRANCH  19  20
ENDBRANCH  18  19
ENDBRANCH   3  18
BRANCH   3  25
HETATM   25  S   UNL     1     -11.065  10.950  67.579  1.00  0.00    -0.287 SA 
BRANCH  25  26
HETATM   26  C   UNL     1     -10.009   9.807  68.507  1.00  0.00    -0.160 C  
HETATM   27  O   UNL     1      -9.116  10.224  69.236  1.00  0.00    -0.182 OA 
BRANCH  26  28
HETATM   28  C   UNL     1     -10.163   8.280  68.317  1.00  0.00    -0.246 A  
HETATM   29  C   UNL     1     -10.707   6.400  66.778  1.00  0.00    -0.355 A  
HETATM   30  C   UNL     1     -10.570   7.780  67.050  1.00  0.00    -0.396 A  
HETATM   31  C   UNL     1      -9.866   7.305  69.273  1.00  0.00    -0.166 A  
HETATM   32  C   UNL     1     -10.414   5.470  67.767  1.00  0.00    -0.245 A  
HETATM   33  C   UNL     1      -9.986   5.927  69.014  1.00  0.00    -0.211 A  
ENDBRANCH  26  28
ENDBRANCH  25  26
ENDBRANCH   3  25
TORSDOF 9
ENDMDL
MODEL       14
REMARK 921   NORMALIZED FREE ENERGY PREDICTED BY IDOCK:   -6.82 KCAL/MOL
REMARK 922        TOTAL FREE ENERGY PREDICTED BY IDOCK:  -11.91 KCAL/MOL
REMARK 923 INTER-LIGAND FREE ENERGY PREDICTED BY IDOCK:  -10.99 KCAL/MOL
REMARK 924 INTRA-LIGAND FREE ENERGY PREDICTED BY IDOCK:   -0.92 KCAL/MOL
REMARK 927      BINDING AFFINITY PREDICTED BY RF-SCORE:    0.00 PKD
ROOT
HETATM    1  C   UNL     1     -10.810  11.176  66.661  1.00  0.00    -0.308 C  
HETATM    2  C   UNL     1     -10.177  12.019  67.782  1.00  0.00    -0.202 C  
HETATM    3  C   UNL     1      -9.885  13.331  67.535  1.00  0.00    -0.220 C  
ENDROOT
BRANCH   2   4
HETATM    4  N   UNL     1     -10.023  11.310  68.989  1.00  0.00    -0.156 N  
HETATM    5  C   UNL     1      -8.821  10.649  69.292  1.00  0.00    -0.077 C  
HETATM    6  O   UNL     1      -8.674   9.787  70.146  1.00  0.00    -0.207 OA 
BRANCH   4   7
HETATM    7  C   UNL     1     -11.213  10.795  69.700  1.00  0.00    -0.291 C  
BRANCH   7   8
HETATM    8  C   UNL     1     -12.082  11.874  70.321  1.00  0.00    -0.409 A  
HETATM    9  H2  UNL     1     -12.647   9.533  71.258  1.00  0.00     0.000 HD 
HETATM   10  C   UNL     1     -12.256  13.161  69.955  1.00  0.00    -0.225 A  
HETATM   11  N   UNL     1     -13.412  12.540  72.257  1.00  0.00    -0.509 NA 
HETATM   12  N   UNL     1     -12.767  14.188  70.727  1.00  0.00    -0.343 NA 
HETATM   13  H1  UNL     1     -13.596  10.017  72.668  1.00  0.00     0.000 HD 
HETATM   14  C   UNL     1     -13.581  14.939  72.873  1.00  0.00    -0.493 C  
HETATM   15  N   UNL     1     -13.053  10.265  71.841  1.00  0.00    -0.461 NA 
HETATM   16  C   UNL     1     -13.265  13.850  71.881  1.00  0.00    -0.397 A  
HETATM   17  C   UNL     1     -12.878  11.510  71.533  1.00  0.00    -0.380 A  
ENDBRANCH   7   8
ENDBRANCH   4   7
ENDBRANCH   2   4
BRANCH   3  18
HETATM   18  C   UNL     1     -10.507  14.053  66.259  1.00  0.00    -0.286 C  
BRANCH  18  19
HETATM   19  C   UNL     1     -12.045  14.402  66.314  1.00  0.00    -0.366 C  
BRANCH  19  20
HETATM   20  O   UNL     1     -12.912  13.661  65.375  1.00  0.00    -0.683 OA 
HETATM   21  O   UNL     1     -12.615  14.166  63.233  1.00  0.00    -0.766 OA 
HETATM   22  O   UNL     1     -13.321  11.953  63.966  1.00  0.00    -0.646 OA 
HETATM   23  P   UNL     1     -12.009  12.920  64.098  1.00  0.00    -0.485 P  
HETATM   24  O   UNL     1     -11.202  12.257  62.956  1.00  0.00    -0.265 OA 
ENDBRANCH  19  20
ENDBRANCH  18  19
ENDBRANCH   3  18
BRANCH   3  25
HETATM   25  S   UNL     1      -8.839  14.401  68.580  1.00  0.00    -0.133 SA 
BRANCH  25  26
HETATM   26  C   UNL     1      -9.644  15.957  69.043  1.00  0.00    -0.247 C  
HETATM   27  O   UNL     1     -10.397  16.014  70.009  1.00  0.00    -0.281 OA 
BRANCH  26  28
HETATM   28  C   UNL     1      -9.464  17.216  68.164  1.00  0.00    -0.269 A  
HETATM   29  C   UNL     1     -10.544  18.998  66.803  1.00  0.00    -0.508 A  
HETATM   30  C   UNL     1     -10.612  17.830  67.593  1.00  0.00    -0.385 A  
HETATM   31  C   UNL     1      -8.256  17.875  67.921  1.00  0.00    -0.246 A  
HETATM   32  C   UNL     1      -9.316  19.608  66.578  1.00  0.00    -0.464 A  
HETATM   33  C   UNL     1      -8.172  19.046  67.147  1.00  0.00    -0.286 A  
ENDBRANCH  26  28
ENDBRANCH  25  26
ENDBRANCH   3  25
TORSDOF 9
ENDMDL
MODEL       15
REMARK 921   NORMALIZED FREE ENERGY PREDICTED BY IDOCK:   -6.80 KCAL/MOL
REMARK 922        TOTAL FREE ENERGY PREDICTED BY IDOCK:  -11.89 KCAL/MOL
REMARK 923 INTER-LIGAND FREE ENERGY PREDICTED BY IDOCK:  -10.40 KCAL/MOL
REMARK 924 INTRA-LIGAND FREE ENERGY PREDICTED BY IDOCK:   -1.49 KCAL/MOL
REMARK 927      BINDING AFFINITY PREDICTED BY RF-SCORE:    0.00 PKD
ROOT
HETATM    1  C   UNL     1      -7.595  11.169  66.685  1.00  0.00    -0.147 C  
HETATM    2  C   UNL     1      -8.200  12.006  67.824  1.00  0.00    -0.151 C  
HETATM    3  C   UNL     1      -9.124  12.966  67.517  1.00  0.00    -0.191 C  
ENDROOT
BRANCH   2   4
HETATM    4  N   UNL     1      -7.742  11.622  69.099  1.00  0.00     0.001 N  
HETATM    5  C   UNL     1      -6.703  12.319  69.737  1.00  0.00     0.120 C  
HETATM    6  O   UNL     1      -6.045  11.915  70.684  1.00  0.00    -0.296 OA 
BRANCH   4   7
HETATM    7  C   UNL     1      -7.935  10.231  69.564  1.00  0.00    -0.165 C  
BRANCH   7   8
HETATM    8  C   UNL     1      -9.365   9.896  69.949  1.00  0.00    -0.250 A  
HETATM    9  H2  UNL     1      -7.657   8.685  71.464  1.00  0.00     0.000 HD 
HETATM   10  C   UNL     1     -10.517  10.135  69.288  1.00  0.00    -0.225 A  
HETATM   11  N   UNL     1     -10.868   9.179  71.734  1.00  0.00    -0.365 NA 
HETATM   12  N   UNL     1     -11.797  10.135  69.812  1.00  0.00    -0.145 NA 
HETATM   13  H1  UNL     1      -8.744   8.180  72.763  1.00  0.00     0.000 HD 
HETATM   14  C   UNL     1     -13.226   9.956  71.750  1.00  0.00    -0.535 C  
HETATM   15  N   UNL     1      -8.592   8.651  71.871  1.00  0.00    -0.281 NA 
HETATM   16  C   UNL     1     -11.918   9.722  71.040  1.00  0.00    -0.352 A  
HETATM   17  C   UNL     1      -9.587   9.206  71.257  1.00  0.00    -0.261 A  
ENDBRANCH   7   8
ENDBRANCH   4   7
ENDBRANCH   2   4
BRANCH   3  18
HETATM   18  C   UNL     1      -9.812  12.971  66.081  1.00  0.00    -0.275 C  
BRANCH  18  19
HETATM   19  C   UNL     1     -10.983  11.940  65.847  1.00  0.00    -0.307 C  
BRANCH  19  20
HETATM   20  O   UNL     1     -11.929  12.269  64.761  1.00  0.00    -0.379 OA 
HETATM   21  O   UNL     1     -13.381  13.879  65.243  1.00  0.00    -0.732 OA 
HETATM   22  O   UNL     1     -12.571  13.487  62.979  1.00  0.00    -0.716 OA 
HETATM   23  P   UNL     1     -11.971  13.966  64.423  1.00  0.00    -0.404 P  
HETATM   24  O   UNL     1     -12.008  15.484  64.121  1.00  0.00    -0.522 OA 
ENDBRANCH  19  20
ENDBRANCH  18  19
ENDBRANCH   3  18
BRANCH   3  25
HETATM   25  S   UNL     1      -9.703  14.281  68.644  1.00  0.00    -0.181 SA 
BRANCH  25  26
HETATM   26  C   UNL     1     -11.475  14.180  69.009  1.00  0.00    -0.285 C  
HETATM   27  O   UNL     1     -12.286  13.919  68.128  1.00  0.00    -0.250 OA 
BRANCH  26  28
HETATM   28  C   UNL     1     -11.996  14.515  70.426  1.00  0.00    -0.386 A  
HETATM   29  C   UNL     1     -13.348  13.799  72.389  1.00  0.00    -0.635 A  
HETATM   30  C   UNL     1     -12.850  13.589  71.084  1.00  0.00    -0.387 A  
HETATM   31  C   UNL     1     -11.646  15.639  71.179  1.00  0.00    -0.462 A  
HETATM   32  C   UNL     1     -12.982  14.941  73.091  1.00  0.00    -0.627 A  
HETATM   33  C   UNL     1     -12.123  15.857  72.484  1.00  0.00    -0.611 A  
ENDBRANCH  26  28
ENDBRANCH  25  26
ENDBRANCH   3  25
TORSDOF 9
ENDMDL
MODEL       16
REMARK 921   NORMALIZED FREE ENERGY PREDICTED BY IDOCK:   -6.79 KCAL/MOL
REMARK 922        TOTAL FREE ENERGY PREDICTED BY IDOCK:  -11.86 KCAL/MOL
REMARK 923 INTER-LIGAND FREE ENERGY PREDICTED BY IDOCK:  -10.24 KCAL/MOL
REMARK 924 INTRA-LIGAND FREE ENERGY PREDICTED BY IDOCK:   -1.63 KCAL/MOL
REMARK 927      BINDING AFFINITY PREDICTED BY RF-SCORE:    0.00 PKD
ROOT
HETATM    1  C   UNL     1      -8.898  14.698  66.445  1.00  0.00    -0.113 C  
HETATM    2  C   UNL     1     -10.379  14.554  66.833  1.00  0.00    -0.264 C  
HETATM    3  C   UNL     1     -10.774  14.943  68.083  1.00  0.00    -0.251 C  
ENDROOT
BRANCH   2   4
HETATM    4  N   UNL     1     -11.184  14.068  65.784  1.00  0.00    -0.300 N  
HETATM    5  C   UNL     1     -11.781  14.944  64.864  1.00  0.00    -0.371 C  
HETATM    6  O   UNL     1     -12.706  14.672  64.112  1.00  0.00    -0.738 OA 
BRANCH   4   7
HETATM    7  C   UNL     1     -11.848  12.753  65.913  1.00  0.00    -0.437 C  
BRANCH   7   8
HETATM    8  C   UNL     1     -10.931  11.567  65.676  1.00  0.00    -0.296 A  
HETATM    9  H2  UNL     1     -12.031  12.378  63.483  1.00  0.00     0.000 HD 
HETATM   10  C   UNL     1     -10.356  10.727  66.563  1.00  0.00    -0.244 A  
HETATM   11  N   UNL     1      -9.521  10.383  64.072  1.00  0.00    -0.276 NA 
HETATM   12  N   UNL     1      -9.273   9.895  66.346  1.00  0.00    -0.153 NA 
HETATM   13  H1  UNL     1     -11.000  11.533  62.322  1.00  0.00     0.000 HD 
HETATM   14  C   UNL     1      -7.521   9.143  64.864  1.00  0.00    -0.105 C  
HETATM   15  N   UNL     1     -11.248  11.754  63.287  1.00  0.00    -0.326 NA 
HETATM   16  C   UNL     1      -8.850   9.806  65.119  1.00  0.00    -0.181 A  
HETATM   17  C   UNL     1     -10.568  11.243  64.262  1.00  0.00    -0.358 A  
ENDBRANCH   7   8
ENDBRANCH   4   7
ENDBRANCH   2   4
BRANCH   3  18
HETATM   18  C   UNL     1      -9.807  15.843  68.973  1.00  0.00    -0.234 C  
BRANCH  18  19
HETATM   19  C   UNL     1     -10.150  17.380  69.067  1.00  0.00    -0.295 C  
BRANCH  19  20
HETATM   20  O   UNL     1     -10.701  17.997  67.843  1.00  0.00    -0.395 OA 
HETATM   21  O   UNL     1      -9.961  20.048  67.416  1.00  0.00    -0.380 OA 
HETATM   22  O   UNL     1     -10.611  18.500  65.650  1.00  0.00    -0.616 OA 
HETATM   23  P   UNL     1      -9.461  18.617  66.808  1.00  0.00    -0.338 P  
HETATM   24  O   UNL     1      -8.352  19.170  65.881  1.00  0.00    -0.451 OA 
ENDBRANCH  19  20
ENDBRANCH  18  19
ENDBRANCH   3  18
BRANCH   3  25
HETATM   25  S   UNL     1     -12.378  14.549  68.861  1.00  0.00     0.072 SA 
BRANCH  25  26
HETATM   26  C   UNL     1     -12.213  13.830  70.515  1.00  0.00    -0.369 C  
HETATM   27  O   UNL     1     -12.013  14.540  71.494  1.00  0.00    -0.348 OA 
BRANCH  26  28
HETATM   28  C   UNL     1     -12.228  12.295  70.699  1.00  0.00    -0.378 A  
HETATM   29  C   UNL     1     -13.128  10.339  71.949  1.00  0.00    -0.568 A  
HETATM   30  C   UNL     1     -13.029  11.730  71.729  1.00  0.00    -0.466 A  
HETATM   31  C   UNL     1     -11.568  11.369  69.886  1.00  0.00    -0.402 A  
HETATM   32  C   UNL     1     -12.439   9.460  71.122  1.00  0.00    -0.370 A  
HETATM   33  C   UNL     1     -11.665   9.980  70.085  1.00  0.00    -0.285 A  
ENDBRANCH  26  28
ENDBRANCH  25  26
ENDBRANCH   3  25
TORSDOF 9
ENDMDL
MODEL       17
REMARK 921   NORMALIZED FREE ENERGY PREDICTED BY IDOCK:   -6.72 KCAL/MOL
REMARK 922        TOTAL FREE ENERGY PREDICTED BY IDOCK:  -11.77 KCAL/MOL
REMARK 923 INTER-LIGAND FREE ENERGY PREDICTED BY IDOCK:  -10.03 KCAL/MOL
REMARK 924 INTRA-LIGAND FREE ENERGY PREDICTED BY IDOCK:   -1.74 KCAL/MOL
REMARK 927      BINDING AFFINITY PREDICTED BY RF-SCORE:    0.00 PKD
ROOT
HETATM    1  C   UNL     1     -10.127  12.467  65.002  1.00  0.00    -0.269 C  
HETATM    2  C   UNL     1     -10.816  13.463  65.950  1.00  0.00    -0.274 C  
HETATM    3  C   UNL     1     -11.184  13.040  67.197  1.00  0.00    -0.286 C  
ENDROOT
BRANCH   2   4
HETATM    4  N   UNL     1     -10.937  14.756  65.405  1.00  0.00    -0.338 N  
HETATM    5  C   UNL     1     -12.029  15.101  64.592  1.00  0.00    -0.298 C  
HETATM    6  O   UNL     1     -12.091  16.069  63.848  1.00  0.00    -0.880 OA 
BRANCH   4   7
HETATM    7  C   UNL     1      -9.731  15.591  65.214  1.00  0.00    -0.084 C  
BRANCH   7   8
HETATM    8  C   UNL     1      -9.380  16.458  66.410  1.00  0.00    -0.322 A  
HETATM    9  H2  UNL     1      -8.074  14.228  66.427  1.00  0.00     0.000 HD 
HETATM   10  C   UNL     1      -9.986  17.568  66.882  1.00  0.00    -0.313 A  
HETATM   11  N   UNL     1      -7.696  17.006  68.091  1.00  0.00    -0.190 NA 
HETATM   12  N   UNL     1      -9.451  18.512  67.740  1.00  0.00    -0.285 NA 
HETATM   13  H1  UNL     1      -6.846  14.632  67.633  1.00  0.00     0.000 HD 
HETATM   14  C   UNL     1      -7.540  19.321  68.974  1.00  0.00    -0.354 C  
HETATM   15  N   UNL     1      -7.664  14.894  67.082  1.00  0.00    -0.191 NA 
HETATM   16  C   UNL     1      -8.293  18.229  68.261  1.00  0.00    -0.302 A  
HETATM   17  C   UNL     1      -8.181  16.073  67.216  1.00  0.00    -0.182 A  
ENDBRANCH   7   8
ENDBRANCH   4   7
ENDBRANCH   2   4
BRANCH   3  18
HETATM   18  C   UNL     1     -10.598  11.676  67.774  1.00  0.00    -0.227 C  
BRANCH  18  19
HETATM   19  C   UNL     1     -11.507  10.883  68.792  1.00  0.00    -0.308 C  
BRANCH  19  20
HETATM   20  O   UNL     1     -10.897  10.578  70.103  1.00  0.00    -0.283 OA 
HETATM   21  O   UNL     1     -12.295  10.669  71.826  1.00  0.00    -0.302 OA 
HETATM   22  O   UNL     1     -10.377   9.167  71.778  1.00  0.00    -0.344 OA 
HETATM   23  P   UNL     1     -11.785   9.374  70.971  1.00  0.00    -0.355 P  
HETATM   24  O   UNL     1     -12.578   8.296  71.748  1.00  0.00    -0.308 OA 
ENDBRANCH  19  20
ENDBRANCH  18  19
ENDBRANCH   3  18
BRANCH   3  25
HETATM   25  S   UNL     1     -12.300  13.931  68.335  1.00  0.00     0.249 SA 
BRANCH  25  26
HETATM   26  C   UNL     1     -11.429  14.735  69.706  1.00  0.00    -0.291 C  
HETATM   27  O   UNL     1     -10.217  14.914  69.664  1.00  0.00    -0.187 OA 
BRANCH  26  28
HETATM   28  C   UNL     1     -12.196  15.122  70.991  1.00  0.00    -0.393 A  
HETATM   29  C   UNL     1     -12.076  15.839  73.372  1.00  0.00    -0.596 A  
HETATM   30  C   UNL     1     -11.460  15.446  72.164  1.00  0.00    -0.525 A  
HETATM   31  C   UNL     1     -13.582  15.257  71.105  1.00  0.00    -0.540 A  
HETATM   32  C   UNL     1     -13.460  15.944  73.438  1.00  0.00    -0.513 A  
HETATM   33  C   UNL     1     -14.211  15.659  72.298  1.00  0.00    -0.538 A  
ENDBRANCH  26  28
ENDBRANCH  25  26
ENDBRANCH   3  25
TORSDOF 9
ENDMDL
MODEL       18
REMARK 921   NORMALIZED FREE ENERGY PREDICTED BY IDOCK:   -6.71 KCAL/MOL
REMARK 922        TOTAL FREE ENERGY PREDICTED BY IDOCK:  -11.75 KCAL/MOL
REMARK 923 INTER-LIGAND FREE ENERGY PREDICTED BY IDOCK:  -10.13 KCAL/MOL
REMARK 924 INTRA-LIGAND FREE ENERGY PREDICTED BY IDOCK:   -1.61 KCAL/MOL
REMARK 927      BINDING AFFINITY PREDICTED BY RF-SCORE:    0.00 PKD
ROOT
HETATM    1  C   UNL     1     -11.993  13.765  68.269  1.00  0.00    -0.392 C  
HETATM    2  C   UNL     1     -11.160  13.026  67.208  1.00  0.00    -0.273 C  
HETATM    3  C   UNL     1     -10.300  12.043  67.613  1.00  0.00    -0.198 C  
ENDROOT
BRANCH   2   4
HETATM    4  N   UNL     1     -11.445  13.438  65.892  1.00  0.00    -0.314 N  
HETATM    5  C   UNL     1     -12.501  12.865  65.166  1.00  0.00    -0.501 C  
HETATM    6  O   UNL     1     -12.657  12.930  63.955  1.00  0.00    -0.625 OA 
BRANCH   4   7
HETATM    7  C   UNL     1     -10.383  14.052  65.066  1.00  0.00    -0.409 C  
BRANCH   7   8
HETATM    8  C   UNL     1     -10.019  15.468  65.472  1.00  0.00    -0.377 A  
HETATM    9  H2  UNL     1     -11.759  15.439  63.563  1.00  0.00     0.000 HD 
HETATM   10  C   UNL     1      -9.011  15.912  66.253  1.00  0.00    -0.346 A  
HETATM   11  N   UNL     1     -10.741  17.799  65.567  1.00  0.00    -0.546 NA 
HETATM   12  N   UNL     1      -8.916  17.143  66.876  1.00  0.00    -0.226 NA 
HETATM   13  H1  UNL     1     -12.293  17.122  63.643  1.00  0.00     0.000 HD 
HETATM   14  C   UNL     1      -9.939  19.267  67.402  1.00  0.00    -0.462 C  
HETATM   15  N   UNL     1     -11.703  16.364  63.988  1.00  0.00    -1.045 NA 
HETATM   16  C   UNL     1      -9.825  18.021  66.563  1.00  0.00    -0.353 A  
HETATM   17  C   UNL     1     -10.883  16.579  64.966  1.00  0.00    -0.229 A  
ENDBRANCH   7   8
ENDBRANCH   4   7
ENDBRANCH   2   4
BRANCH   3  18
HETATM   18  C   UNL     1     -10.420  11.443  69.083  1.00  0.00    -0.159 C  
BRANCH  18  19
HETATM   19  C   UNL     1      -9.429  10.274  69.461  1.00  0.00    -0.185 C  
BRANCH  19  20
HETATM   20  O   UNL     1     -10.053   9.032  69.959  1.00  0.00    -0.181 OA 
HETATM   21  O   UNL     1     -10.308   8.935  72.164  1.00  0.00    -0.333 OA 
HETATM   22  O   UNL     1     -11.833   7.823  70.623  1.00  0.00    -0.239 OA 
HETATM   23  P   UNL     1     -11.390   9.348  71.012  1.00  0.00    -0.396 P  
HETATM   24  O   UNL     1     -12.585   9.632  71.953  1.00  0.00    -0.377 OA 
ENDBRANCH  19  20
ENDBRANCH  18  19
ENDBRANCH   3  18
BRANCH   3  25
HETATM   25  S   UNL     1      -8.990  11.290  66.588  1.00  0.00    -0.181 SA 
BRANCH  25  26
HETATM   26  C   UNL     1      -9.575   9.890  65.597  1.00  0.00    -0.256 C  
HETATM   27  O   UNL     1     -10.079  10.066  64.493  1.00  0.00    -0.243 OA 
BRANCH  26  28
HETATM   28  C   UNL     1      -9.531   8.457  66.176  1.00  0.00    -0.263 A  
HETATM   29  C   UNL     1     -10.742   6.633  67.362  1.00  0.00    -0.409 A  
HETATM   30  C   UNL     1     -10.683   7.941  66.830  1.00  0.00    -0.219 A  
HETATM   31  C   UNL     1      -8.464   7.562  66.059  1.00  0.00    -0.152 A  
HETATM   32  C   UNL     1      -9.648   5.786  67.232  1.00  0.00    -0.122 A  
HETATM   33  C   UNL     1      -8.511   6.253  66.572  1.00  0.00    -0.121 A  
ENDBRANCH  26  28
ENDBRANCH  25  26
ENDBRANCH   3  25
TORSDOF 9
ENDMDL
MODEL       19
REMARK 921   NORMALIZED FREE ENERGY PREDICTED BY IDOCK:   -6.69 KCAL/MOL
REMARK 922        TOTAL FREE ENERGY PREDICTED BY IDOCK:  -11.72 KCAL/MOL
REMARK 923 INTER-LIGAND FREE ENERGY PREDICTED BY IDOCK:  -10.05 KCAL/MOL
REMARK 924 INTRA-LIGAND FREE ENERGY PREDICTED BY IDOCK:   -1.67 KCAL/MOL
REMARK 927      BINDING AFFINITY PREDICTED BY RF-SCORE:    0.00 PKD
ROOT
HETATM    1  C   UNL     1      -7.241   9.526  66.941  1.00  0.00    -0.087 C  
HETATM    2  C   UNL     1      -8.434   9.649  67.904  1.00  0.00    -0.122 C  
HETATM    3  C   UNL     1      -9.684   9.842  67.385  1.00  0.00    -0.162 C  
ENDROOT
BRANCH   2   4
HETATM    4  N   UNL     1      -8.075   9.485  69.256  1.00  0.00    -0.096 N  
HETATM    5  C   UNL     1      -7.233  10.407  69.899  1.00  0.00    -0.153 C  
HETATM    6  O   UNL     1      -6.635  10.220  70.949  1.00  0.00    -0.330 OA 
BRANCH   4   7
HETATM    7  C   UNL     1      -8.111   8.141  69.872  1.00  0.00    -0.115 C  
BRANCH   7   8
HETATM    8  C   UNL     1      -9.466   7.750  70.433  1.00  0.00    -0.164 A  
HETATM    9  H2  UNL     1      -7.937   8.770  72.249  1.00  0.00     0.000 HD 
HETATM   10  C   UNL     1     -10.446   7.000  69.885  1.00  0.00    -0.217 A  
HETATM   11  N   UNL     1     -11.138   8.160  72.165  1.00  0.00    -0.295 NA 
HETATM   12  N   UNL     1     -11.775   6.954  70.264  1.00  0.00    -0.319 NA 
HETATM   13  H1  UNL     1      -9.151   9.081  73.496  1.00  0.00     0.000 HD 
HETATM   14  C   UNL     1     -13.545   7.811  71.665  1.00  0.00    -0.416 C  
HETATM   15  N   UNL     1      -8.906   8.736  72.567  1.00  0.00    -0.389 NA 
HETATM   16  C   UNL     1     -12.087   7.593  71.353  1.00  0.00    -0.316 A  
HETATM   17  C   UNL     1      -9.825   8.255  71.794  1.00  0.00    -0.218 A  
ENDBRANCH   7   8
ENDBRANCH   4   7
ENDBRANCH   2   4
BRANCH   3  18
HETATM   18  C   UNL     1      -9.942   9.590  65.834  1.00  0.00    -0.342 C  
BRANCH  18  19
HETATM   19  C   UNL     1     -10.196  10.863  64.936  1.00  0.00    -0.316 C  
BRANCH  19  20
HETATM   20  O   UNL     1     -11.145  11.858  65.477  1.00  0.00    -0.302 OA 
HETATM   21  O   UNL     1     -10.924  13.906  64.645  1.00  0.00    -0.376 OA 
HETATM   22  O   UNL     1     -13.068  13.026  65.397  1.00  0.00    -0.607 OA 
HETATM   23  P   UNL     1     -11.969  12.722  64.225  1.00  0.00    -0.475 P  
HETATM   24  O   UNL     1     -12.706  13.496  63.104  1.00  0.00    -0.718 OA 
ENDBRANCH  19  20
ENDBRANCH  18  19
ENDBRANCH   3  18
BRANCH   3  25
HETATM   25  S   UNL     1     -11.160  10.350  68.331  1.00  0.00    -0.252 SA 
BRANCH  25  26
HETATM   26  C   UNL     1     -11.084  12.066  68.908  1.00  0.00    -0.247 C  
HETATM   27  O   UNL     1     -10.261  12.850  68.449  1.00  0.00    -0.235 OA 
BRANCH  26  28
HETATM   28  C   UNL     1     -12.000  12.538  70.061  1.00  0.00    -0.372 A  
HETATM   29  C   UNL     1     -13.375  11.914  72.040  1.00  0.00    -0.425 A  
HETATM   30  C   UNL     1     -12.553  11.571  70.944  1.00  0.00    -0.438 A  
HETATM   31  C   UNL     1     -12.295  13.867  70.377  1.00  0.00    -0.433 A  
HETATM   32  C   UNL     1     -13.650  13.250  72.304  1.00  0.00    -0.703 A  
HETATM   33  C   UNL     1     -13.101  14.226  71.472  1.00  0.00    -0.413 A  
ENDBRANCH  26  28
ENDBRANCH  25  26
ENDBRANCH   3  25
TORSDOF 9
ENDMDL
MODEL       20
REMARK 921   NORMALIZED FREE ENERGY PREDICTED BY IDOCK:   -6.69 KCAL/MOL
REMARK 922        TOTAL FREE ENERGY PREDICTED BY IDOCK:  -11.72 KCAL/MOL
REMARK 923 INTER-LIGAND FREE ENERGY PREDICTED BY IDOCK:  -10.44 KCAL/MOL
REMARK 924 INTRA-LIGAND FREE ENERGY PREDICTED BY IDOCK:   -1.29 KCAL/MOL
REMARK 927      BINDING AFFINITY PREDICTED BY RF-SCORE:    0.00 PKD
ROOT
HETATM    1  C   UNL     1      -8.671  15.474  69.450  1.00  0.00    -0.258 C  
HETATM    2  C   UNL     1      -9.529  14.391  68.773  1.00  0.00    -0.161 C  
HETATM    3  C   UNL     1     -10.801  14.178  69.227  1.00  0.00    -0.190 C  
ENDROOT
BRANCH   2   4
HETATM    4  N   UNL     1      -8.881  13.767  67.689  1.00  0.00    -0.178 N  
HETATM    5  C   UNL     1      -7.548  13.337  67.791  1.00  0.00    -0.161 C  
HETATM    6  O   UNL     1      -6.812  13.058  66.857  1.00  0.00     0.035 OA 
BRANCH   4   7
HETATM    7  C   UNL     1      -9.352  14.012  66.309  1.00  0.00    -0.175 C  
BRANCH   7   8
HETATM    8  C   UNL     1      -9.485  15.480  65.948  1.00  0.00    -0.377 A  
HETATM    9  H2  UNL     1     -11.226  14.030  64.707  1.00  0.00     0.000 HD 
HETATM   10  C   UNL     1      -8.649  16.511  66.196  1.00  0.00    -0.299 A  
HETATM   11  N   UNL     1     -10.974  17.248  65.161  1.00  0.00    -0.556 NA 
HETATM   12  N   UNL     1      -8.953  17.860  66.167  1.00  0.00    -0.499 NA 
HETATM   13  H1  UNL     1     -12.312  15.309  64.151  1.00  0.00     0.000 HD 
HETATM   14  C   UNL     1     -10.620  19.587  65.914  1.00  0.00    -0.572 C  
HETATM   15  N   UNL     1     -11.471  15.018  64.651  1.00  0.00    -0.401 NA 
HETATM   16  C   UNL     1     -10.131  18.177  65.715  1.00  0.00    -0.020 A  
HETATM   17  C   UNL     1     -10.717  15.906  65.215  1.00  0.00    -0.424 A  
ENDBRANCH   7   8
ENDBRANCH   4   7
ENDBRANCH   2   4
BRANCH   3  18
HETATM   18  C   UNL     1     -11.491  15.253  70.178  1.00  0.00    -0.319 C  
BRANCH  18  19
HETATM   19  C   UNL     1     -13.065  15.348  70.124  1.00  0.00     0.044 C  
BRANCH  19  20
HETATM   20  O   UNL     1     -13.734  15.747  71.379  1.00  0.00    -0.531 OA 
HETATM   21  O   UNL     1     -14.065  14.096  72.827  1.00  0.00    -0.610 OA 
HETATM   22  O   UNL     1     -13.701  16.398  73.534  1.00  0.00    -0.555 OA 
HETATM   23  P   UNL     1     -12.871  15.209  72.779  1.00  0.00    -0.511 P  
HETATM   24  O   UNL     1     -12.099  14.728  74.031  1.00  0.00    -0.452 OA 
ENDBRANCH  19  20
ENDBRANCH  18  19
ENDBRANCH   3  18
BRANCH   3  25
HETATM   25  S   UNL     1     -11.851  12.744  68.811  1.00  0.00    -0.267 SA 
BRANCH  25  26
HETATM   26  C   UNL     1     -11.058  11.153  69.162  1.00  0.00    -0.248 C  
HETATM   27  O   UNL     1     -10.174  10.714  68.435  1.00  0.00    -0.161 OA 
BRANCH  26  28
HETATM   28  C   UNL     1     -11.556  10.281  70.338  1.00  0.00    -0.411 A  
HETATM   29  C   UNL     1     -13.444   9.657  71.837  1.00  0.00    -0.496 A  
HETATM   30  C   UNL     1     -12.895  10.432  70.791  1.00  0.00    -0.450 A  
HETATM   31  C   UNL     1     -10.823   9.278  70.978  1.00  0.00    -0.385 A  
HETATM   32  C   UNL     1     -12.668   8.681  72.451  1.00  0.00    -0.423 A  
HETATM   33  C   UNL     1     -11.358   8.490  72.013  1.00  0.00    -0.425 A  
ENDBRANCH  26  28
ENDBRANCH  25  26
ENDBRANCH   3  25
TORSDOF 9
ENDMDL
MODEL       21
REMARK 921   NORMALIZED FREE ENERGY PREDICTED BY IDOCK:   -6.67 KCAL/MOL
REMARK 922        TOTAL FREE ENERGY PREDICTED BY IDOCK:  -11.69 KCAL/MOL
REMARK 923 INTER-LIGAND FREE ENERGY PREDICTED BY IDOCK:  -10.33 KCAL/MOL
REMARK 924 INTRA-LIGAND FREE ENERGY PREDICTED BY IDOCK:   -1.36 KCAL/MOL
REMARK 927      BINDING AFFINITY PREDICTED BY RF-SCORE:    0.00 PKD
ROOT
HETATM    1  C   UNL     1      -9.471  16.819  66.613  1.00  0.00    -0.275 C  
HETATM    2  C   UNL     1      -9.574  16.522  68.119  1.00  0.00    -0.226 C  
HETATM    3  C   UNL     1     -10.760  16.063  68.620  1.00  0.00    -0.281 C  
ENDROOT
BRANCH   2   4
HETATM    4  N   UNL     1      -8.361  16.718  68.808  1.00  0.00    -0.248 N  
HETATM    5  C   UNL     1      -7.549  17.832  68.541  1.00  0.00    -0.276 C  
HETATM    6  O   UNL     1      -6.374  17.953  68.854  1.00  0.00    -0.201 OA 
BRANCH   4   7
HETATM    7  C   UNL     1      -7.657  15.564  69.406  1.00  0.00    -0.225 C  
BRANCH   7   8
HETATM    8  C   UNL     1      -7.583  14.345  68.505  1.00  0.00    -0.125 A  
HETATM    9  H2  UNL     1      -5.695  16.031  67.989  1.00  0.00     0.000 HD 
HETATM   10  C   UNL     1      -8.488  13.363  68.302  1.00  0.00    -0.166 A  
HETATM   11  N   UNL     1      -6.149  12.917  67.140  1.00  0.00    -0.277 NA 
HETATM   12  N   UNL     1      -8.257  12.113  67.758  1.00  0.00    -0.143 NA 
HETATM   13  H1  UNL     1      -4.649  14.992  67.014  1.00  0.00     0.000 HD 
HETATM   14  C   UNL     1      -6.674  10.501  66.906  1.00  0.00    -0.086 C  
HETATM   15  N   UNL     1      -5.501  15.126  67.560  1.00  0.00    -0.341 NA 
HETATM   16  C   UNL     1      -7.073  11.911  67.258  1.00  0.00    -0.143 A  
HETATM   17  C   UNL     1      -6.335  14.148  67.706  1.00  0.00    -0.156 A  
ENDBRANCH   7   8
ENDBRANCH   4   7
ENDBRANCH   2   4
BRANCH   3  18
HETATM   18  C   UNL     1     -11.879  15.516  67.628  1.00  0.00     0.076 C  
BRANCH  18  19
HETATM   19  C   UNL     1     -11.566  14.167  66.872  1.00  0.00    -0.391 C  
BRANCH  19  20
HETATM   20  O   UNL     1     -12.627  13.665  65.975  1.00  0.00    -0.441 OA 
HETATM   21  O   UNL     1     -12.560  14.472  63.907  1.00  0.00    -0.827 OA 
HETATM   22  O   UNL     1     -13.409  12.245  64.413  1.00  0.00    -0.786 OA 
HETATM   23  P   UNL     1     -11.990  13.055  64.487  1.00  0.00    -0.451 P  
HETATM   24  O   UNL     1     -11.420  12.509  63.156  1.00  0.00    -0.414 OA 
ENDBRANCH  19  20
ENDBRANCH  18  19
ENDBRANCH   3  18
BRANCH   3  25
HETATM   25  S   UNL     1     -11.202  15.975  70.390  1.00  0.00    -0.378 SA 
BRANCH  25  26
HETATM   26  C   UNL     1     -12.687  14.987  70.707  1.00  0.00    -0.381 C  
HETATM   27  O   UNL     1     -13.770  15.524  70.910  1.00  0.00    -0.524 OA 
BRANCH  26  28
HETATM   28  C   UNL     1     -12.586  13.448  70.818  1.00  0.00    -0.369 A  
HETATM   29  C   UNL     1     -13.260  11.382  72.034  1.00  0.00    -0.432 A  
HETATM   30  C   UNL     1     -13.271  12.785  71.873  1.00  0.00    -0.511 A  
HETATM   31  C   UNL     1     -11.925  12.607  69.919  1.00  0.00    -0.365 A  
HETATM   32  C   UNL     1     -12.575  10.590  71.120  1.00  0.00    -0.520 A  
HETATM   33  C   UNL     1     -11.914  11.207  70.058  1.00  0.00    -0.447 A  
ENDBRANCH  26  28
ENDBRANCH  25  26
ENDBRANCH   3  25
TORSDOF 9
ENDMDL
MODEL       22
REMARK 921   NORMALIZED FREE ENERGY PREDICTED BY IDOCK:   -6.67 KCAL/MOL
REMARK 922        TOTAL FREE ENERGY PREDICTED BY IDOCK:  -11.68 KCAL/MOL
REMARK 923 INTER-LIGAND FREE ENERGY PREDICTED BY IDOCK:   -9.90 KCAL/MOL
REMARK 924 INTRA-LIGAND FREE ENERGY PREDICTED BY IDOCK:   -1.78 KCAL/MOL
REMARK 927      BINDING AFFINITY PREDICTED BY RF-SCORE:    0.00 PKD
ROOT
HETATM    1  C   UNL     1      -6.860  11.692  66.923  1.00  0.00    -0.129 C  
HETATM    2  C   UNL     1      -8.107  11.392  67.772  1.00  0.00    -0.121 C  
HETATM    3  C   UNL     1      -9.337  11.724  67.277  1.00  0.00    -0.171 C  
ENDROOT
BRANCH   2   4
HETATM    4  N   UNL     1      -7.810  10.734  68.981  1.00  0.00    -0.131 N  
HETATM    5  C   UNL     1      -6.909  11.289  69.905  1.00  0.00    -0.013 C  
HETATM    6  O   UNL     1      -6.367  10.692  70.824  1.00  0.00    -0.324 OA 
BRANCH   4   7
HETATM    7  C   UNL     1      -7.989   9.270  69.088  1.00  0.00    -0.097 C  
BRANCH   7   8
HETATM    8  C   UNL     1      -9.263   8.849  69.798  1.00  0.00    -0.167 A  
HETATM    9  H2  UNL     1      -9.428   8.494  67.244  1.00  0.00     0.000 HD 
HETATM   10  C   UNL     1      -9.660   9.075  71.068  1.00  0.00    -0.279 A  
HETATM   11  N   UNL     1     -11.244   7.424  69.731  1.00  0.00    -0.153 NA 
HETATM   12  N   UNL     1     -10.639   8.396  71.771  1.00  0.00    -0.259 NA 
HETATM   13  H1  UNL     1     -10.854   7.449  67.198  1.00  0.00     0.000 HD 
HETATM   14  C   UNL     1     -12.234   6.585  71.848  1.00  0.00    -0.373 C  
HETATM   15  N   UNL     1     -10.174   7.994  67.729  1.00  0.00    -0.208 NA 
HETATM   16  C   UNL     1     -11.351   7.544  71.093  1.00  0.00    -0.267 A  
HETATM   17  C   UNL     1     -10.259   8.051  69.019  1.00  0.00    -0.210 A  
ENDBRANCH   7   8
ENDBRANCH   4   7
ENDBRANCH   2   4
BRANCH   3  18
HETATM   18  C   UNL     1      -9.499  12.078  65.733  1.00  0.00    -0.186 C  
BRANCH  18  19
HETATM   19  C   UNL     1     -10.526  11.211  64.906  1.00  0.00    -0.308 C  
BRANCH  19  20
HETATM   20  O   UNL     1     -11.333  11.942  63.907  1.00  0.00    -0.372 OA 
HETATM   21  O   UNL     1     -13.515  11.987  64.323  1.00  0.00    -0.654 OA 
HETATM   22  O   UNL     1     -12.371  13.791  63.150  1.00  0.00    -0.726 OA 
HETATM   23  P   UNL     1     -12.374  13.113  64.639  1.00  0.00    -0.370 P  
HETATM   24  O   UNL     1     -13.306  14.162  65.294  1.00  0.00    -0.715 OA 
ENDBRANCH  19  20
ENDBRANCH  18  19
ENDBRANCH   3  18
BRANCH   3  25
HETATM   25  S   UNL     1     -10.890  11.775  68.236  1.00  0.00    -0.236 SA 
BRANCH  25  26
HETATM   26  C   UNL     1     -11.379  13.452  68.717  1.00  0.00    -0.292 C  
HETATM   27  O   UNL     1     -11.026  14.424  68.059  1.00  0.00    -0.248 OA 
BRANCH  26  28
HETATM   28  C   UNL     1     -12.172  13.685  70.023  1.00  0.00    -0.395 A  
HETATM   29  C   UNL     1     -13.378  15.297  71.488  1.00  0.00    -0.559 A  
HETATM   30  C   UNL     1     -12.621  14.998  70.334  1.00  0.00    -0.399 A  
HETATM   31  C   UNL     1     -12.567  12.694  70.925  1.00  0.00    -0.338 A  
HETATM   32  C   UNL     1     -13.733  14.277  72.363  1.00  0.00    -0.616 A  
HETATM   33  C   UNL     1     -13.331  12.973  72.073  1.00  0.00    -0.588 A  
ENDBRANCH  26  28
ENDBRANCH  25  26
ENDBRANCH   3  25
TORSDOF 9
ENDMDL
MODEL       23
REMARK 921   NORMALIZED FREE ENERGY PREDICTED BY IDOCK:   -6.67 KCAL/MOL
REMARK 922        TOTAL FREE ENERGY PREDICTED BY IDOCK:  -11.68 KCAL/MOL
REMARK 923 INTER-LIGAND FREE ENERGY PREDICTED BY IDOCK:  -10.42 KCAL/MOL
REMARK 924 INTRA-LIGAND FREE ENERGY PREDICTED BY IDOCK:   -1.27 KCAL/MOL
REMARK 927      BINDING AFFINITY PREDICTED BY RF-SCORE:    0.00 PKD
ROOT
HETATM    1  C   UNL     1      -6.995  16.993  66.456  1.00  0.00    -0.291 C  
HETATM    2  C   UNL     1      -7.443  16.573  67.867  1.00  0.00    -0.150 C  
HETATM    3  C   UNL     1      -8.420  15.626  67.993  1.00  0.00    -0.146 C  
ENDROOT
BRANCH   2   4
HETATM    4  N   UNL     1      -6.717  17.209  68.892  1.00  0.00    -0.197 N  
HETATM    5  C   UNL     1      -5.869  16.478  69.740  1.00  0.00    -0.196 C  
HETATM    6  O   UNL     1      -5.428  16.859  70.814  1.00  0.00    -0.193 OA 
BRANCH   4   7
HETATM    7  C   UNL     1      -7.196  18.493  69.449  1.00  0.00    -0.011 C  
BRANCH   7   8
HETATM    8  C   UNL     1      -8.284  19.159  68.627  1.00  0.00    -0.404 A  
HETATM    9  H2  UNL     1      -6.001  20.328  68.318  1.00  0.00     0.000 HD 
HETATM   10  C   UNL     1      -9.624  19.003  68.677  1.00  0.00    -0.403 A  
HETATM   11  N   UNL     1      -8.799  20.503  66.655  1.00  0.00    -0.143 NA 
HETATM   12  N   UNL     1     -10.543  19.350  67.703  1.00  0.00    -0.458 NA 
HETATM   13  H1  UNL     1      -6.369  21.288  66.880  1.00  0.00     0.000 HD 
HETATM   14  C   UNL     1     -10.966  20.196  65.482  1.00  0.00     0.010 C  
HETATM   15  N   UNL     1      -6.658  20.619  67.594  1.00  0.00    -0.289 NA 
HETATM   16  C   UNL     1     -10.085  20.029  66.693  1.00  0.00    -0.479 A  
HETATM   17  C   UNL     1      -7.861  20.140  67.581  1.00  0.00    -0.300 A  
ENDBRANCH   7   8
ENDBRANCH   4   7
ENDBRANCH   2   4
BRANCH   3  18
HETATM   18  C   UNL     1      -8.824  14.734  66.737  1.00  0.00    -0.281 C  
BRANCH  18  19
HETATM   19  C   UNL     1      -9.327  13.268  67.034  1.00  0.00    -0.242 C  
BRANCH  19  20
HETATM   20  O   UNL     1     -10.092  12.614  65.953  1.00  0.00    -0.257 OA 
HETATM   21  O   UNL     1     -12.152  11.996  66.510  1.00  0.00    -0.617 OA 
HETATM   22  O   UNL     1     -11.554  12.653  64.241  1.00  0.00    -0.330 OA 
HETATM   23  P   UNL     1     -11.647  13.337  65.724  1.00  0.00    -0.374 P  
HETATM   24  O   UNL     1     -13.038  13.983  65.519  1.00  0.00    -0.713 OA 
ENDBRANCH  19  20
ENDBRANCH  18  19
ENDBRANCH   3  18
BRANCH   3  25
HETATM   25  S   UNL     1      -9.329  15.235  69.527  1.00  0.00    -0.138 SA 
BRANCH  25  26
HETATM   26  C   UNL     1     -11.101  15.601  69.422  1.00  0.00    -0.303 C  
HETATM   27  O   UNL     1     -11.613  15.935  68.359  1.00  0.00    -0.371 OA 
BRANCH  26  28
HETATM   28  C   UNL     1     -11.973  15.588  70.698  1.00  0.00    -0.416 A  
HETATM   29  C   UNL     1     -12.196  16.221  73.096  1.00  0.00    -0.620 A  
HETATM   30  C   UNL     1     -11.458  16.162  71.893  1.00  0.00    -0.360 A  
HETATM   31  C   UNL     1     -13.286  15.117  70.784  1.00  0.00    -0.433 A  
HETATM   32  C   UNL     1     -13.493  15.725  73.134  1.00  0.00    -0.652 A  
HETATM   33  C   UNL     1     -14.038  15.179  71.971  1.00  0.00    -0.659 A  
ENDBRANCH  26  28
ENDBRANCH  25  26
ENDBRANCH   3  25
TORSDOF 9
ENDMDL
MODEL       24
REMARK 921   NORMALIZED FREE ENERGY PREDICTED BY IDOCK:   -6.66 KCAL/MOL
REMARK 922        TOTAL FREE ENERGY PREDICTED BY IDOCK:  -11.67 KCAL/MOL
REMARK 923 INTER-LIGAND FREE ENERGY PREDICTED BY IDOCK:  -10.19 KCAL/MOL
REMARK 924 INTRA-LIGAND FREE ENERGY PREDICTED BY IDOCK:   -1.49 KCAL/MOL
REMARK 927      BINDING AFFINITY PREDICTED BY RF-SCORE:    0.00 PKD
ROOT
HETATM    1  C   UNL     1      -9.332  11.988  65.522  1.00  0.00    -0.042 C  
HETATM    2  C   UNL     1     -10.671  12.091  66.271  1.00  0.00    -0.267 C  
HETATM    3  C   UNL     1     -10.732  11.679  67.573  1.00  0.00    -0.215 C  
ENDROOT
BRANCH   2   4
HETATM    4  N   UNL     1     -11.696  12.674  65.500  1.00  0.00    -0.380 N  
HETATM    5  C   UNL     1     -11.899  12.299  64.162  1.00  0.00    -0.419 C  
HETATM    6  O   UNL     1     -12.544  12.923  63.333  1.00  0.00    -0.709 OA 
BRANCH   4   7
HETATM    7  C   UNL     1     -12.218  14.011  65.857  1.00  0.00    -0.456 C  
BRANCH   7   8
HETATM    8  C   UNL     1     -11.144  15.064  66.061  1.00  0.00    -0.329 A  
HETATM    9  H2  UNL     1     -12.176  15.198  63.697  1.00  0.00     0.000 HD 
HETATM   10  C   UNL     1     -10.230  15.187  67.047  1.00  0.00    -0.262 A  
HETATM   11  N   UNL     1     -10.299  17.254  65.391  1.00  0.00    -0.639 NA 
HETATM   12  N   UNL     1      -9.515  16.321  67.388  1.00  0.00    -0.226 NA 
HETATM   13  H1  UNL     1     -11.576  16.790  63.218  1.00  0.00     0.000 HD 
HETATM   14  C   UNL     1      -9.103  18.674  67.040  1.00  0.00    -0.295 C  
HETATM   15  N   UNL     1     -11.642  16.041  63.908  1.00  0.00    -0.727 NA 
HETATM   16  C   UNL     1      -9.628  17.338  66.585  1.00  0.00    -0.276 A  
HETATM   17  C   UNL     1     -11.048  16.162  65.051  1.00  0.00    -0.294 A  
ENDBRANCH   7   8
ENDBRANCH   4   7
ENDBRANCH   2   4
BRANCH   3  18
HETATM   18  C   UNL     1      -9.386  11.438  68.389  1.00  0.00    -0.194 C  
BRANCH  18  19
HETATM   19  C   UNL     1      -9.095   9.963  68.867  1.00  0.00    -0.156 C  
BRANCH  19  20
HETATM   20  O   UNL     1      -8.685   9.009  67.816  1.00  0.00    -0.124 OA 
HETATM   21  O   UNL     1      -9.050   6.872  68.299  1.00  0.00    -0.127 OA 
HETATM   22  O   UNL     1      -9.108   7.723  66.017  1.00  0.00    -0.173 OA 
HETATM   23  P   UNL     1      -9.950   7.903  67.407  1.00  0.00    -0.248 P  
HETATM   24  O   UNL     1     -11.083   6.913  67.041  1.00  0.00    -0.389 OA 
ENDBRANCH  19  20
ENDBRANCH  18  19
ENDBRANCH   3  18
BRANCH   3  25
HETATM   25  S   UNL     1     -12.262  11.394  68.527  1.00  0.00     0.354 SA 
BRANCH  25  26
HETATM   26  C   UNL     1     -12.067  11.705  70.301  1.00  0.00    -0.358 C  
HETATM   27  O   UNL     1     -11.651  10.831  71.053  1.00  0.00    -0.264 OA 
BRANCH  26  28
HETATM   28  C   UNL     1     -12.513  13.057  70.905  1.00  0.00    -0.396 A  
HETATM   29  C   UNL     1     -12.705  15.523  70.621  1.00  0.00    -0.487 A  
HETATM   30  C   UNL     1     -12.302  14.250  70.161  1.00  0.00    -0.413 A  
HETATM   31  C   UNL     1     -13.188  13.225  72.117  1.00  0.00    -0.562 A  
HETATM   32  C   UNL     1     -13.360  15.639  71.841  1.00  0.00    -0.537 A  
HETATM   33  C   UNL     1     -13.607  14.484  72.584  1.00  0.00    -0.577 A  
ENDBRANCH  26  28
ENDBRANCH  25  26
ENDBRANCH   3  25
TORSDOF 9
ENDMDL
MODEL       25
REMARK 921   NORMALIZED FREE ENERGY PREDICTED BY IDOCK:   -6.66 KCAL/MOL
REMARK 922        TOTAL FREE ENERGY PREDICTED BY IDOCK:  -11.67 KCAL/MOL
REMARK 923 INTER-LIGAND FREE ENERGY PREDICTED BY IDOCK:  -10.20 KCAL/MOL
REMARK 924 INTRA-LIGAND FREE ENERGY PREDICTED BY IDOCK:   -1.47 KCAL/MOL
REMARK 927      BINDING AFFINITY PREDICTED BY RF-SCORE:    0.00 PKD
ROOT
HETATM    1  C   UNL     1     -10.556   9.186  67.568  1.00  0.00    -0.317 C  
HETATM    2  C   UNL     1     -10.732  10.456  68.418  1.00  0.00    -0.225 C  
HETATM    3  C   UNL     1     -10.363  11.661  67.887  1.00  0.00    -0.188 C  
ENDROOT
BRANCH   2   4
HETATM    4  N   UNL     1     -11.328  10.209  69.670  1.00  0.00    -0.248 N  
HETATM    5  C   UNL     1     -12.579  10.756  69.997  1.00  0.00    -0.181 C  
HETATM    6  O   UNL     1     -13.048  10.849  71.122  1.00  0.00    -0.355 OA 
BRANCH   4   7
HETATM    7  C   UNL     1     -10.484   9.847  70.830  1.00  0.00    -0.183 C  
BRANCH   7   8
HETATM    8  C   UNL     1     -10.562   8.383  71.223  1.00  0.00    -0.279 A  
HETATM    9  H2  UNL     1      -8.356   9.470  72.014  1.00  0.00     0.000 HD 
HETATM   10  C   UNL     1     -11.421   7.423  70.818  1.00  0.00    -0.288 A  
HETATM   11  N   UNL     1      -9.820   6.663  72.788  1.00  0.00    -0.167 NA 
HETATM   12  N   UNL     1     -11.681   6.217  71.443  1.00  0.00    -0.296 NA 
HETATM   13  H1  UNL     1      -7.827   8.231  73.159  1.00  0.00     0.000 HD 
HETATM   14  C   UNL     1     -11.319   4.759  73.333  1.00  0.00    -0.397 C  
HETATM   15  N   UNL     1      -8.508   8.576  72.482  1.00  0.00    -0.351 NA 
HETATM   16  C   UNL     1     -10.916   5.911  72.449  1.00  0.00    -0.264 A  
HETATM   17  C   UNL     1      -9.564   7.878  72.215  1.00  0.00    -0.195 A  
ENDBRANCH   7   8
ENDBRANCH   4   7
ENDBRANCH   2   4
BRANCH   3  18
HETATM   18  C   UNL     1     -10.099  11.787  66.322  1.00  0.00    -0.248 C  
BRANCH  18  19
HETATM   19  C   UNL     1      -9.555  13.174  65.800  1.00  0.00    -0.059 C  
BRANCH  19  20
HETATM   20  O   UNL     1     -10.487  13.964  64.969  1.00  0.00    -0.363 OA 
HETATM   21  O   UNL     1     -11.364  12.866  63.249  1.00  0.00    -0.392 OA 
HETATM   22  O   UNL     1     -12.553  14.654  64.399  1.00  0.00    -0.662 OA 
HETATM   23  P   UNL     1     -11.996  13.152  64.728  1.00  0.00    -0.446 P  
HETATM   24  O   UNL     1     -13.346  12.426  64.513  1.00  0.00    -0.800 OA 
ENDBRANCH  19  20
ENDBRANCH  18  19
ENDBRANCH   3  18
BRANCH   3  25
HETATM   25  S   UNL     1     -10.165  13.217  68.821  1.00  0.00    -0.035 SA 
BRANCH  25  26
HETATM   26  C   UNL     1     -11.696  14.178  68.941  1.00  0.00    -0.334 C  
HETATM   27  O   UNL     1     -12.331  14.481  67.937  1.00  0.00    -0.188 OA 
BRANCH  26  28
HETATM   28  C   UNL     1     -12.173  14.711  70.312  1.00  0.00    -0.389 A  
HETATM   29  C   UNL     1     -13.960  14.746  72.045  1.00  0.00    -0.582 A  
HETATM   30  C   UNL     1     -13.456  14.332  70.792  1.00  0.00    -0.079 A  
HETATM   31  C   UNL     1     -11.419  15.497  71.189  1.00  0.00    -0.442 A  
HETATM   32  C   UNL     1     -13.176  15.540  72.874  1.00  0.00    -0.633 A  
HETATM   33  C   UNL     1     -11.901  15.908  72.444  1.00  0.00    -0.618 A  
ENDBRANCH  26  28
ENDBRANCH  25  26
ENDBRANCH   3  25
TORSDOF 9
ENDMDL
MODEL       26
REMARK 921   NORMALIZED FREE ENERGY PREDICTED BY IDOCK:   -6.66 KCAL/MOL
REMARK 922        TOTAL FREE ENERGY PREDICTED BY IDOCK:  -11.67 KCAL/MOL
REMARK 923 INTER-LIGAND FREE ENERGY PREDICTED BY IDOCK:  -10.64 KCAL/MOL
REMARK 924 INTRA-LIGAND FREE ENERGY PREDICTED BY IDOCK:   -1.03 KCAL/MOL
REMARK 927      BINDING AFFINITY PREDICTED BY RF-SCORE:    0.00 PKD
ROOT
HETATM    1  C   UNL     1     -10.470   8.411  67.054  1.00  0.00    -0.375 C  
HETATM    2  C   UNL     1      -9.983   9.783  67.550  1.00  0.00    -0.184 C  
HETATM    3  C   UNL     1      -9.747  10.770  66.634  1.00  0.00    -0.190 C  
ENDROOT
BRANCH   2   4
HETATM    4  N   UNL     1      -9.891   9.866  68.953  1.00  0.00    -0.168 N  
HETATM    5  C   UNL     1      -8.644   9.844  69.599  1.00  0.00    -0.194 C  
HETATM    6  O   UNL     1      -8.456   9.622  70.786  1.00  0.00    -0.245 OA 
BRANCH   4   7
HETATM    7  C   UNL     1     -11.034   9.450  69.793  1.00  0.00    -0.215 C  
BRANCH   7   8
HETATM    8  C   UNL     1     -11.870  10.602  70.321  1.00  0.00    -0.430 A  
HETATM    9  H2  UNL     1     -12.807   8.317  71.077  1.00  0.00     0.000 HD 
HETATM   10  C   UNL     1     -11.854  11.909  69.982  1.00  0.00    -0.328 A  
HETATM   11  N   UNL     1     -13.397  11.366  72.066  1.00  0.00    -0.413 NA 
HETATM   12  N   UNL     1     -12.365  12.968  70.709  1.00  0.00    -0.360 NA 
HETATM   13  H1  UNL     1     -13.900   8.869  72.352  1.00  0.00     0.000 HD 
HETATM   14  C   UNL     1     -13.406  13.756  72.741  1.00  0.00    -0.519 C  
HETATM   15  N   UNL     1     -13.217   9.075  71.622  1.00  0.00    -0.355 NA 
HETATM   16  C   UNL     1     -13.061  12.661  71.765  1.00  0.00    -0.360 A  
HETATM   17  C   UNL     1     -12.871  10.300  71.390  1.00  0.00    -0.441 A  
ENDBRANCH   7   8
ENDBRANCH   4   7
ENDBRANCH   2   4
BRANCH   3  18
HETATM   18  C   UNL     1     -10.299  10.617  65.148  1.00  0.00    -0.331 C  
BRANCH  18  19
HETATM   19  C   UNL     1      -9.988  11.796  64.146  1.00  0.00    -0.272 C  
BRANCH  19  20
HETATM   20  O   UNL     1     -11.140  12.322  63.386  1.00  0.00    -0.443 OA 
HETATM   21  O   UNL     1     -13.103  12.114  64.405  1.00  0.00    -0.740 OA 
HETATM   22  O   UNL     1     -12.615  13.944  62.872  1.00  0.00    -0.580 OA 
HETATM   23  P   UNL     1     -12.105  13.405  64.330  1.00  0.00    -0.402 P  
HETATM   24  O   UNL     1     -12.968  14.374  65.174  1.00  0.00    -0.631 OA 
ENDBRANCH  19  20
ENDBRANCH  18  19
ENDBRANCH   3  18
BRANCH   3  25
HETATM   25  S   UNL     1      -8.855  12.330  66.958  1.00  0.00    -0.208 SA 
BRANCH  25  26
HETATM   26  C   UNL     1      -9.957  13.718  67.337  1.00  0.00    -0.237 C  
HETATM   27  O   UNL     1     -11.085  13.525  67.776  1.00  0.00    -0.255 OA 
BRANCH  26  28
HETATM   28  C   UNL     1      -9.517  15.166  67.020  1.00  0.00    -0.237 A  
HETATM   29  C   UNL     1     -10.163  17.563  66.838  1.00  0.00    -0.329 A  
HETATM   30  C   UNL     1     -10.481  16.209  67.082  1.00  0.00    -0.305 A  
HETATM   31  C   UNL     1      -8.213  15.579  66.737  1.00  0.00    -0.277 A  
HETATM   32  C   UNL     1      -8.852  17.921  66.546  1.00  0.00    -0.281 A  
HETATM   33  C   UNL     1      -7.877  16.925  66.504  1.00  0.00    -0.330 A  
ENDBRANCH  26  28
ENDBRANCH  25  26
ENDBRANCH   3  25
TORSDOF 9
ENDMDL
MODEL       27
REMARK 921   NORMALIZED FREE ENERGY PREDICTED BY IDOCK:   -6.65 KCAL/MOL
REMARK 922        TOTAL FREE ENERGY PREDICTED BY IDOCK:  -11.66 KCAL/MOL
REMARK 923 INTER-LIGAND FREE ENERGY PREDICTED BY IDOCK:   -9.87 KCAL/MOL
REMARK 924 INTRA-LIGAND FREE ENERGY PREDICTED BY IDOCK:   -1.79 KCAL/MOL
REMARK 927      BINDING AFFINITY PREDICTED BY RF-SCORE:    0.00 PKD
ROOT
HETATM    1  C   UNL     1     -10.280  11.311  65.535  1.00  0.00    -0.312 C  
HETATM    2  C   UNL     1      -9.815  11.967  66.846  1.00  0.00    -0.204 C  
HETATM    3  C   UNL     1     -10.548  12.999  67.363  1.00  0.00    -0.234 C  
ENDROOT
BRANCH   2   4
HETATM    4  N   UNL     1      -8.671  11.357  67.397  1.00  0.00    -0.142 N  
HETATM    5  C   UNL     1      -7.400  11.936  67.252  1.00  0.00    -0.146 C  
HETATM    6  O   UNL     1      -6.331  11.370  67.427  1.00  0.00    -0.066 OA 
BRANCH   4   7
HETATM    7  C   UNL     1      -8.666   9.902  67.661  1.00  0.00    -0.121 C  
BRANCH   7   8
HETATM    8  C   UNL     1      -9.669   9.456  68.709  1.00  0.00    -0.161 A  
HETATM    9  H2  UNL     1      -9.597   7.832  66.701  1.00  0.00     0.000 HD 
HETATM   10  C   UNL     1     -10.161  10.123  69.774  1.00  0.00    -0.247 A  
HETATM   11  N   UNL     1     -10.874   7.572  69.689  1.00  0.00    -0.231 NA 
HETATM   12  N   UNL     1     -10.789   9.582  70.882  1.00  0.00    -0.311 NA 
HETATM   13  H1  UNL     1     -10.456   6.462  67.416  1.00  0.00     0.000 HD 
HETATM   14  C   UNL     1     -11.487   7.615  72.095  1.00  0.00    -0.345 C  
HETATM   15  N   UNL     1     -10.081   7.408  67.493  1.00  0.00    -0.174 NA 
HETATM   16  C   UNL     1     -11.061   8.312  70.828  1.00  0.00    -0.258 A  
HETATM   17  C   UNL     1     -10.219   8.070  68.596  1.00  0.00    -0.206 A  
ENDBRANCH   7   8
ENDBRANCH   4   7
ENDBRANCH   2   4
BRANCH   3  18
HETATM   18  C   UNL     1     -12.020  13.271  66.822  1.00  0.00    -0.438 C  
BRANCH  18  19
HETATM   19  C   UNL     1     -12.186  14.413  65.746  1.00  0.00    -0.343 C  
BRANCH  19  20
HETATM   20  O   UNL     1     -10.933  14.982  65.207  1.00  0.00    -0.337 OA 
HETATM   21  O   UNL     1     -11.162  16.939  64.182  1.00  0.00    -1.176 OA 
HETATM   22  O   UNL     1      -9.122  16.311  65.356  1.00  0.00    -0.265 OA 
HETATM   23  P   UNL     1     -10.688  16.618  65.712  1.00  0.00    -0.003 P  
HETATM   24  O   UNL     1     -10.468  18.083  66.164  1.00  0.00    -0.386 OA 
ENDBRANCH  19  20
ENDBRANCH  18  19
ENDBRANCH   3  18
BRANCH   3  25
HETATM   25  S   UNL     1     -10.004  14.127  68.691  1.00  0.00    -0.191 SA 
BRANCH  25  26
HETATM   26  C   UNL     1     -11.359  15.094  69.407  1.00  0.00    -0.294 C  
HETATM   27  O   UNL     1     -11.516  16.274  69.112  1.00  0.00    -0.320 OA 
BRANCH  26  28
HETATM   28  C   UNL     1     -12.282  14.464  70.476  1.00  0.00    -0.411 A  
HETATM   29  C   UNL     1     -14.082  14.808  72.160  1.00  0.00    -0.604 A  
HETATM   30  C   UNL     1     -13.183  15.301  71.190  1.00  0.00    -0.567 A  
HETATM   31  C   UNL     1     -12.374  13.102  70.774  1.00  0.00    -0.404 A  
HETATM   32  C   UNL     1     -14.125  13.446  72.431  1.00  0.00    -0.517 A  
HETATM   33  C   UNL     1     -13.272  12.593  71.729  1.00  0.00    -0.457 A  
ENDBRANCH  26  28
ENDBRANCH  25  26
ENDBRANCH   3  25
TORSDOF 9
ENDMDL
MODEL       28
REMARK 921   NORMALIZED FREE ENERGY PREDICTED BY IDOCK:   -6.63 KCAL/MOL
REMARK 922        TOTAL FREE ENERGY PREDICTED BY IDOCK:  -11.63 KCAL/MOL
REMARK 923 INTER-LIGAND FREE ENERGY PREDICTED BY IDOCK:  -10.62 KCAL/MOL
REMARK 924 INTRA-LIGAND FREE ENERGY PREDICTED BY IDOCK:   -1.02 KCAL/MOL
REMARK 927      BINDING AFFINITY PREDICTED BY RF-SCORE:    0.00 PKD
ROOT
HETATM    1  C   UNL     1      -9.415  11.480  65.786  1.00  0.00    -0.255 C  
HETATM    2  C   UNL     1      -9.202  12.157  67.150  1.00  0.00    -0.193 C  
HETATM    3  C   UNL     1      -9.474  13.491  67.274  1.00  0.00    -0.230 C  
ENDROOT
BRANCH   2   4
HETATM    4  N   UNL     1      -8.787  11.262  68.156  1.00  0.00    -0.152 N  
HETATM    5  C   UNL     1      -7.458  11.248  68.609  1.00  0.00    -0.118 C  
HETATM    6  O   UNL     1      -6.927  10.350  69.246  1.00  0.00    -0.062 OA 
BRANCH   4   7
HETATM    7  C   UNL     1      -9.534  10.006  68.379  1.00  0.00    -0.141 C  
BRANCH   7   8
HETATM    8  C   UNL     1     -10.480  10.047  69.565  1.00  0.00    -0.260 A  
HETATM    9  H2  UNL     1     -11.352  11.474  67.596  1.00  0.00     0.000 HD 
HETATM   10  C   UNL     1     -10.292   9.633  70.837  1.00  0.00    -0.264 A  
HETATM   11  N   UNL     1     -12.781  10.376  70.312  1.00  0.00    -0.235 NA 
HETATM   12  N   UNL     1     -11.266   9.366  71.782  1.00  0.00    -0.360 NA 
HETATM   13  H1  UNL     1     -13.022  11.698  68.130  1.00  0.00     0.000 HD 
HETATM   14  C   UNL     1     -13.612   9.173  72.319  1.00  0.00    -0.548 C  
HETATM   15  N   UNL     1     -12.090  11.311  68.281  1.00  0.00    -0.623 NA 
HETATM   16  C   UNL     1     -12.486   9.684  71.459  1.00  0.00    -0.386 A  
HETATM   17  C   UNL     1     -11.845  10.614  69.344  1.00  0.00    -0.253 A  
ENDBRANCH   7   8
ENDBRANCH   4   7
ENDBRANCH   2   4
BRANCH   3  18
HETATM   18  C   UNL     1     -10.319  14.233  66.146  1.00  0.00    -0.305 C  
BRANCH  18  19
HETATM   19  C   UNL     1     -11.850  14.473  66.444  1.00  0.00    -0.349 C  
BRANCH  19  20
HETATM   20  O   UNL     1     -12.799  13.841  65.505  1.00  0.00    -0.596 OA 
HETATM   21  O   UNL     1     -12.447  14.310  63.363  1.00  0.00    -0.761 OA 
HETATM   22  O   UNL     1     -13.409  12.195  64.095  1.00  0.00    -0.750 OA 
HETATM   23  P   UNL     1     -11.992  13.000  64.226  1.00  0.00    -0.453 P  
HETATM   24  O   UNL     1     -11.269  12.248  63.083  1.00  0.00    -0.370 OA 
ENDBRANCH  19  20
ENDBRANCH  18  19
ENDBRANCH   3  18
BRANCH   3  25
HETATM   25  S   UNL     1      -8.976  14.551  68.674  1.00  0.00    -0.157 SA 
BRANCH  25  26
HETATM   26  C   UNL     1     -10.072  15.974  68.918  1.00  0.00    -0.229 C  
HETATM   27  O   UNL     1     -11.135  15.855  69.517  1.00  0.00    -0.266 OA 
BRANCH  26  28
HETATM   28  C   UNL     1      -9.720  17.341  68.288  1.00  0.00    -0.294 A  
HETATM   29  C   UNL     1     -10.482  19.291  66.941  1.00  0.00    -0.547 A  
HETATM   30  C   UNL     1     -10.706  18.025  67.526  1.00  0.00    -0.352 A  
HETATM   31  C   UNL     1      -8.515  18.030  68.454  1.00  0.00    -0.306 A  
HETATM   32  C   UNL     1      -9.261  19.928  67.123  1.00  0.00    -0.463 A  
HETATM   33  C   UNL     1      -8.280  19.296  67.888  1.00  0.00    -0.340 A  
ENDBRANCH  26  28
ENDBRANCH  25  26
ENDBRANCH   3  25
TORSDOF 9
ENDMDL
MODEL       29
REMARK 921   NORMALIZED FREE ENERGY PREDICTED BY IDOCK:   -6.61 KCAL/MOL
REMARK 922        TOTAL FREE ENERGY PREDICTED BY IDOCK:  -11.60 KCAL/MOL
REMARK 923 INTER-LIGAND FREE ENERGY PREDICTED BY IDOCK:   -9.77 KCAL/MOL
REMARK 924 INTRA-LIGAND FREE ENERGY PREDICTED BY IDOCK:   -1.82 KCAL/MOL
REMARK 927      BINDING AFFINITY PREDICTED BY RF-SCORE:    0.00 PKD
ROOT
HETATM    1  C   UNL     1     -12.026  14.030  68.924  1.00  0.00    -0.387 C  
HETATM    2  C   UNL     1     -11.702  13.175  67.687  1.00  0.00    -0.369 C  
HETATM    3  C   UNL     1     -11.469  11.838  67.853  1.00  0.00    -0.317 C  
ENDROOT
BRANCH   2   4
HETATM    4  N   UNL     1     -11.742  13.903  66.483  1.00  0.00    -0.372 N  
HETATM    5  C   UNL     1     -12.786  13.723  65.561  1.00  0.00    -0.488 C  
HETATM    6  O   UNL     1     -12.775  14.071  64.389  1.00  0.00    -0.663 OA 
BRANCH   4   7
HETATM    7  C   UNL     1     -10.492  14.448  65.908  1.00  0.00    -0.308 C  
BRANCH   7   8
HETATM    8  C   UNL     1     -10.149  15.849  66.381  1.00  0.00    -0.306 A  
HETATM    9  H2  UNL     1     -11.122  15.858  63.987  1.00  0.00     0.000 HD 
HETATM   10  C   UNL     1      -9.431  16.249  67.452  1.00  0.00    -0.227 A  
HETATM   11  N   UNL     1     -10.622  18.234  66.161  1.00  0.00    -0.371 NA 
HETATM   12  N   UNL     1      -9.433  17.502  68.038  1.00  0.00    -0.272 NA 
HETATM   13  H1  UNL     1     -11.479  17.583  63.835  1.00  0.00     0.000 HD 
HETATM   14  C   UNL     1     -10.354  19.732  68.124  1.00  0.00    -0.561 C  
HETATM   15  N   UNL     1     -11.123  16.798  64.382  1.00  0.00    -1.072 NA 
HETATM   16  C   UNL     1     -10.085  18.434  67.408  1.00  0.00    -0.353 A  
HETATM   17  C   UNL     1     -10.671  16.998  65.579  1.00  0.00    -0.138 A  
ENDBRANCH   7   8
ENDBRANCH   4   7
ENDBRANCH   2   4
BRANCH   3  18
HETATM   18  C   UNL     1     -11.872  11.129  69.220  1.00  0.00    -0.422 C  
BRANCH  18  19
HETATM   19  C   UNL     1     -10.825  10.123  69.838  1.00  0.00    -0.299 C  
BRANCH  19  20
HETATM   20  O   UNL     1     -11.094   9.676  71.221  1.00  0.00    -0.346 OA 
HETATM   21  O   UNL     1     -13.240   9.372  71.703  1.00  0.00    -0.354 OA 
HETATM   22  O   UNL     1     -11.469   8.076  72.760  1.00  0.00    -0.402 OA 
HETATM   23  P   UNL     1     -12.110   8.276  71.269  1.00  0.00    -0.215 P  
HETATM   24  O   UNL     1     -13.018   7.024  71.312  1.00  0.00    -0.378 OA 
ENDBRANCH  19  20
ENDBRANCH  18  19
ENDBRANCH   3  18
BRANCH   3  25
HETATM   25  S   UNL     1     -10.744  10.723  66.602  1.00  0.00    -0.164 SA 
BRANCH  25  26
HETATM   26  C   UNL     1      -8.970  10.993  66.348  1.00  0.00    -0.181 C  
HETATM   27  O   UNL     1      -8.435  10.705  65.283  1.00  0.00    -0.169 OA 
BRANCH  26  28
HETATM   28  C   UNL     1      -8.089  11.505  67.510  1.00  0.00    -0.137 A  
HETATM   29  C   UNL     1      -6.459  10.955  69.310  1.00  0.00    -0.071 A  
HETATM   30  C   UNL     1      -7.315  10.573  68.253  1.00  0.00    -0.088 A  
HETATM   31  C   UNL     1      -7.915  12.843  67.873  1.00  0.00    -0.156 A  
HETATM   32  C   UNL     1      -6.333  12.298  69.643  1.00  0.00    -0.111 A  
HETATM   33  C   UNL     1      -7.058  13.242  68.915  1.00  0.00    -0.079 A  
ENDBRANCH  26  28
ENDBRANCH  25  26
ENDBRANCH   3  25
TORSDOF 9
ENDMDL
MODEL       30
REMARK 921   NORMALIZED FREE ENERGY PREDICTED BY IDOCK:   -6.61 KCAL/MOL
REMARK 922        TOTAL FREE ENERGY PREDICTED BY IDOCK:  -11.59 KCAL/MOL
REMARK 923 INTER-LIGAND FREE ENERGY PREDICTED BY IDOCK:  -10.05 KCAL/MOL
REMARK 924 INTRA-LIGAND FREE ENERGY PREDICTED BY IDOCK:   -1.54 KCAL/MOL
REMARK 927      BINDING AFFINITY PREDICTED BY RF-SCORE:    0.00 PKD
ROOT
HETATM    1  C   UNL     1      -8.616  14.858  66.556  1.00  0.00    -0.131 C  
HETATM    2  C   UNL     1     -10.121  14.754  66.858  1.00  0.00    -0.246 C  
HETATM    3  C   UNL     1     -10.599  15.297  68.018  1.00  0.00    -0.261 C  
ENDROOT
BRANCH   2   4
HETATM    4  N   UNL     1     -10.853  14.132  65.828  1.00  0.00    -0.290 N  
HETATM    5  C   UNL     1     -11.776  14.856  65.056  1.00  0.00    -0.329 C  
HETATM    6  O   UNL     1     -12.654  14.378  64.353  1.00  0.00    -0.668 OA 
BRANCH   4   7
HETATM    7  C   UNL     1     -11.083  12.672  65.865  1.00  0.00    -0.289 C  
BRANCH   7   8
HETATM    8  C   UNL     1     -10.226  11.883  64.891  1.00  0.00    -0.310 A  
HETATM    9  H2  UNL     1      -9.158  11.981  67.241  1.00  0.00     0.000 HD 
HETATM   10  C   UNL     1     -10.310  11.786  63.547  1.00  0.00    -0.448 A  
HETATM   11  N   UNL     1      -8.546  10.131  64.628  1.00  0.00    -0.172 NA 
HETATM   12  N   UNL     1      -9.753  10.809  62.743  1.00  0.00    -0.295 NA 
HETATM   13  H1  UNL     1      -7.953  10.701  67.056  1.00  0.00     0.000 HD 
HETATM   14  C   UNL     1      -8.527   8.736  62.574  1.00  0.00    -0.195 C  
HETATM   15  N   UNL     1      -8.713  11.262  66.670  1.00  0.00    -0.169 NA 
HETATM   16  C   UNL     1      -8.944   9.974  63.325  1.00  0.00    -0.258 A  
HETATM   17  C   UNL     1      -9.112  11.061  65.456  1.00  0.00    -0.207 A  
ENDBRANCH   7   8
ENDBRANCH   4   7
ENDBRANCH   2   4
BRANCH   3  18
HETATM   18  C   UNL     1      -9.694  16.310  68.849  1.00  0.00    -0.248 C  
BRANCH  18  19
HETATM   19  C   UNL     1     -10.224  17.790  68.990  1.00  0.00    -0.290 C  
BRANCH  19  20
HETATM   20  O   UNL     1      -9.567  18.798  68.132  1.00  0.00    -0.304 OA 
HETATM   21  O   UNL     1      -9.088  18.105  66.077  1.00  0.00    -0.513 OA 
HETATM   22  O   UNL     1      -9.613  20.430  66.582  1.00  0.00    -0.388 OA 
HETATM   23  P   UNL     1     -10.363  18.977  66.607  1.00  0.00    -0.469 P  
HETATM   24  O   UNL     1     -11.076  19.137  65.242  1.00  0.00    -0.406 OA 
ENDBRANCH  19  20
ENDBRANCH  18  19
ENDBRANCH   3  18
BRANCH   3  25
HETATM   25  S   UNL     1     -12.253  14.995  68.729  1.00  0.00     0.010 SA 
BRANCH  25  26
HETATM   26  C   UNL     1     -12.197  14.334  70.415  1.00  0.00    -0.342 C  
HETATM   27  O   UNL     1     -11.904  15.053  71.364  1.00  0.00    -0.315 OA 
BRANCH  26  28
HETATM   28  C   UNL     1     -12.428  12.826  70.666  1.00  0.00    -0.328 A  
HETATM   29  C   UNL     1     -11.937  10.484  69.977  1.00  0.00    -0.367 A  
HETATM   30  C   UNL     1     -11.806  11.880  69.805  1.00  0.00    -0.411 A  
HETATM   31  C   UNL     1     -13.151  12.277  71.727  1.00  0.00    -0.449 A  
HETATM   32  C   UNL     1     -12.681   9.988  71.041  1.00  0.00    -0.455 A  
HETATM   33  C   UNL     1     -13.282  10.889  71.920  1.00  0.00    -0.508 A  
ENDBRANCH  26  28
ENDBRANCH  25  26
ENDBRANCH   3  25
TORSDOF 9
ENDMDL
MODEL       31
REMARK 921   NORMALIZED FREE ENERGY PREDICTED BY IDOCK:   -6.57 KCAL/MOL
REMARK 922        TOTAL FREE ENERGY PREDICTED BY IDOCK:  -11.53 KCAL/MOL
REMARK 923 INTER-LIGAND FREE ENERGY PREDICTED BY IDOCK:   -9.72 KCAL/MOL
REMARK 924 INTRA-LIGAND FREE ENERGY PREDICTED BY IDOCK:   -1.81 KCAL/MOL
REMARK 927      BINDING AFFINITY PREDICTED BY RF-SCORE:    0.00 PKD
ROOT
HETATM    1  C   UNL     1      -7.417  11.905  68.765  1.00  0.00    -0.100 C  
HETATM    2  C   UNL     1      -8.747  11.134  68.813  1.00  0.00    -0.128 C  
HETATM    3  C   UNL     1      -9.901  11.791  68.488  1.00  0.00    -0.189 C  
ENDROOT
BRANCH   2   4
HETATM    4  N   UNL     1      -8.590   9.776  69.147  1.00  0.00    -0.142 N  
HETATM    5  C   UNL     1      -8.619   9.351  70.486  1.00  0.00    -0.223 C  
HETATM    6  O   UNL     1      -8.215   8.276  70.906  1.00  0.00    -0.103 OA 
BRANCH   4   7
HETATM    7  C   UNL     1      -7.884   8.864  68.221  1.00  0.00    -0.101 C  
BRANCH   7   8
HETATM    8  C   UNL     1      -8.106   9.176  66.752  1.00  0.00    -0.111 A  
HETATM    9  H2  UNL     1      -9.999   7.704  67.714  1.00  0.00     0.000 HD 
HETATM   10  C   UNL     1      -7.262   9.711  65.844  1.00  0.00    -0.099 A  
HETATM   11  N   UNL     1      -9.743   9.425  64.958  1.00  0.00    -0.086 NA 
HETATM   12  N   UNL     1      -7.595  10.294  64.635  1.00  0.00    -0.134 NA 
HETATM   13  H1  UNL     1     -11.190   7.898  66.422  1.00  0.00     0.000 HD 
HETATM   14  C   UNL     1      -9.317  11.030  63.112  1.00  0.00    -0.339 C  
HETATM   15  N   UNL     1     -10.271   8.104  66.816  1.00  0.00    -0.303 NA 
HETATM   16  C   UNL     1      -8.838  10.190  64.267  1.00  0.00    -0.222 A  
HETATM   17  C   UNL     1      -9.452   8.873  66.175  1.00  0.00    -0.251 A  
ENDBRANCH   7   8
ENDBRANCH   4   7
ENDBRANCH   2   4
BRANCH   3  18
HETATM   18  C   UNL     1      -9.828  13.197  67.744  1.00  0.00    -0.228 C  
BRANCH  18  19
HETATM   19  C   UNL     1      -9.859  13.172  66.167  1.00  0.00    -0.280 C  
BRANCH  19  20
HETATM   20  O   UNL     1     -11.130  12.738  65.550  1.00  0.00    -0.277 OA 
HETATM   21  O   UNL     1     -12.880  14.025  66.015  1.00  0.00    -0.438 OA 
HETATM   22  O   UNL     1     -12.677  12.805  63.916  1.00  0.00    -0.676 OA 
HETATM   23  P   UNL     1     -11.915  14.023  64.698  1.00  0.00    -0.453 P  
HETATM   24  O   UNL     1     -12.616  15.172  63.934  1.00  0.00    -0.794 OA 
ENDBRANCH  19  20
ENDBRANCH  18  19
ENDBRANCH   3  18
BRANCH   3  25
HETATM   25  S   UNL     1     -11.594  11.183  68.803  1.00  0.00    -0.335 SA 
BRANCH  25  26
HETATM   26  C   UNL     1     -12.126  11.408  70.521  1.00  0.00    -0.394 C  
HETATM   27  O   UNL     1     -12.140  10.465  71.304  1.00  0.00    -0.360 OA 
BRANCH  26  28
HETATM   28  C   UNL     1     -12.660  12.779  70.995  1.00  0.00    -0.362 A  
HETATM   29  C   UNL     1     -12.727  15.242  70.640  1.00  0.00    -0.470 A  
HETATM   30  C   UNL     1     -12.265  13.953  70.297  1.00  0.00    -0.428 A  
HETATM   31  C   UNL     1     -13.577  12.984  72.029  1.00  0.00    -0.530 A  
HETATM   32  C   UNL     1     -13.627  15.395  71.688  1.00  0.00    -0.603 A  
HETATM   33  C   UNL     1     -14.056  14.260  72.377  1.00  0.00    -0.561 A  
ENDBRANCH  26  28
ENDBRANCH  25  26
ENDBRANCH   3  25
TORSDOF 9
ENDMDL
MODEL       32
REMARK 921   NORMALIZED FREE ENERGY PREDICTED BY IDOCK:   -6.55 KCAL/MOL
REMARK 922        TOTAL FREE ENERGY PREDICTED BY IDOCK:  -11.50 KCAL/MOL
REMARK 923 INTER-LIGAND FREE ENERGY PREDICTED BY IDOCK:  -10.24 KCAL/MOL
REMARK 924 INTRA-LIGAND FREE ENERGY PREDICTED BY IDOCK:   -1.26 KCAL/MOL
REMARK 927      BINDING AFFINITY PREDICTED BY RF-SCORE:    0.00 PKD
ROOT
HETATM    1  C   UNL     1     -11.815  13.140  68.293  1.00  0.00    -0.384 C  
HETATM    2  C   UNL     1     -11.431  14.362  67.441  1.00  0.00    -0.358 C  
HETATM    3  C   UNL     1     -10.955  15.479  68.069  1.00  0.00    -0.311 C  
ENDROOT
BRANCH   2   4
HETATM    4  N   UNL     1     -11.576  14.142  66.058  1.00  0.00    -0.350 N  
HETATM    5  C   UNL     1     -12.809  13.751  65.511  1.00  0.00    -0.419 C  
HETATM    6  O   UNL     1     -12.980  13.264  64.404  1.00  0.00    -0.640 OA 
BRANCH   4   7
HETATM    7  C   UNL     1     -10.395  13.796  65.238  1.00  0.00    -0.361 C  
BRANCH   7   8
HETATM    8  C   UNL     1      -9.937  12.356  65.384  1.00  0.00    -0.253 A  
HETATM    9  H2  UNL     1      -8.483  13.968  66.785  1.00  0.00     0.000 HD 
HETATM   10  C   UNL     1     -10.275  11.264  64.665  1.00  0.00    -0.301 A  
HETATM   11  N   UNL     1      -8.800  10.724  66.799  1.00  0.00    -0.140 NA 
HETATM   12  N   UNL     1     -10.119   9.940  65.033  1.00  0.00    -0.191 NA 
HETATM   13  H1  UNL     1      -7.672  12.787  67.820  1.00  0.00     0.000 HD 
HETATM   14  C   UNL     1      -9.476   8.336  66.719  1.00  0.00    -0.256 C  
HETATM   15  N   UNL     1      -8.331  13.001  67.070  1.00  0.00    -0.142 NA 
HETATM   16  C   UNL     1      -9.445   9.720  66.124  1.00  0.00    -0.205 A  
HETATM   17  C   UNL     1      -8.972  12.043  66.482  1.00  0.00    -0.193 A  
ENDBRANCH   7   8
ENDBRANCH   4   7
ENDBRANCH   2   4
BRANCH   3  18
HETATM   18  C   UNL     1     -10.478  15.391  69.586  1.00  0.00    -0.286 C  
BRANCH  18  19
HETATM   19  C   UNL     1     -11.207  16.335  70.619  1.00  0.00    -0.288 C  
BRANCH  19  20
HETATM   20  O   UNL     1     -12.571  15.928  71.018  1.00  0.00    -0.443 OA 
HETATM   21  O   UNL     1     -12.692  13.978  72.073  1.00  0.00    -0.320 OA 
HETATM   22  O   UNL     1     -14.256  15.795  72.505  1.00  0.00    -0.552 OA 
HETATM   23  P   UNL     1     -12.659  15.490  72.689  1.00  0.00    -0.516 P  
HETATM   24  O   UNL     1     -12.739  15.098  74.184  1.00  0.00    -0.499 OA 
ENDBRANCH  19  20
ENDBRANCH  18  19
ENDBRANCH   3  18
BRANCH   3  25
HETATM   25  S   UNL     1     -10.769  17.128  67.306  1.00  0.00    -0.136 SA 
BRANCH  25  26
HETATM   26  C   UNL     1      -9.103  17.433  66.663  1.00  0.00    -0.258 C  
HETATM   27  O   UNL     1      -8.623  16.718  65.791  1.00  0.00    -0.485 OA 
BRANCH  26  28
HETATM   28  C   UNL     1      -8.227  18.550  67.276  1.00  0.00    -0.254 A  
HETATM   29  C   UNL     1      -6.810  19.299  69.182  1.00  0.00    -0.371 A  
HETATM   30  C   UNL     1      -7.648  18.347  68.559  1.00  0.00    -0.319 A  
HETATM   31  C   UNL     1      -7.877  19.749  66.650  1.00  0.00    -0.320 A  
HETATM   32  C   UNL     1      -6.504  20.483  68.523  1.00  0.00    -0.310 A  
HETATM   33  C   UNL     1      -7.035  20.702  67.251  1.00  0.00    -0.384 A  
ENDBRANCH  26  28
ENDBRANCH  25  26
ENDBRANCH   3  25
TORSDOF 9
ENDMDL
MODEL       33
REMARK 921   NORMALIZED FREE ENERGY PREDICTED BY IDOCK:   -6.52 KCAL/MOL
REMARK 922        TOTAL FREE ENERGY PREDICTED BY IDOCK:  -11.46 KCAL/MOL
REMARK 923 INTER-LIGAND FREE ENERGY PREDICTED BY IDOCK:  -10.09 KCAL/MOL
REMARK 924 INTRA-LIGAND FREE ENERGY PREDICTED BY IDOCK:   -1.37 KCAL/MOL
REMARK 927      BINDING AFFINITY PREDICTED BY RF-SCORE:    0.00 PKD
ROOT
HETATM    1  C   UNL     1      -8.620   9.002  70.582  1.00  0.00    -0.245 C  
HETATM    2  C   UNL     1     -10.135   9.236  70.454  1.00  0.00    -0.236 C  
HETATM    3  C   UNL     1     -10.583  10.187  69.580  1.00  0.00    -0.245 C  
ENDROOT
BRANCH   2   4
HETATM    4  N   UNL     1     -10.901   8.364  71.251  1.00  0.00    -0.230 N  
HETATM    5  C   UNL     1     -10.612   8.186  72.614  1.00  0.00    -0.344 C  
HETATM    6  O   UNL     1     -11.007   7.267  73.316  1.00  0.00    -0.352 OA 
BRANCH   4   7
HETATM    7  C   UNL     1     -11.645   7.252  70.622  1.00  0.00    -0.290 C  
BRANCH   7   8
HETATM    8  C   UNL     1     -10.917   6.592  69.466  1.00  0.00    -0.398 A  
HETATM    9  H2  UNL     1     -10.264   5.539  71.733  1.00  0.00     0.000 HD 
HETATM   10  C   UNL     1     -10.807   6.981  68.178  1.00  0.00    -0.153 A  
HETATM   11  N   UNL     1      -9.815   4.570  68.653  1.00  0.00    -0.134 NA 
HETATM   12  N   UNL     1     -10.443   6.199  67.096  1.00  0.00    -0.226 NA 
HETATM   13  H1  UNL     1      -9.480   4.067  71.144  1.00  0.00     0.000 HD 
HETATM   14  C   UNL     1      -9.880   4.016  66.233  1.00  0.00    -0.177 C  
HETATM   15  N   UNL     1      -9.966   4.945  70.958  1.00  0.00    -0.201 NA 
HETATM   16  C   UNL     1     -10.025   4.997  67.367  1.00  0.00    -0.177 A  
HETATM   17  C   UNL     1     -10.205   5.305  69.738  1.00  0.00    -0.294 A  
ENDBRANCH   7   8
ENDBRANCH   4   7
ENDBRANCH   2   4
BRANCH   3  18
HETATM   18  C   UNL     1      -9.596  10.775  68.477  1.00  0.00    -0.183 C  
BRANCH  18  19
HETATM   19  C   UNL     1     -10.244  11.246  67.117  1.00  0.00    -0.201 C  
BRANCH  19  20
HETATM   20  O   UNL     1     -10.462  12.700  66.973  1.00  0.00    -0.231 OA 
HETATM   21  O   UNL     1     -10.646  13.413  64.877  1.00  0.00    -0.340 OA 
HETATM   22  O   UNL     1     -11.790  14.502  66.732  1.00  0.00    -0.392 OA 
HETATM   23  P   UNL     1     -11.817  13.060  65.960  1.00  0.00    -0.438 P  
HETATM   24  O   UNL     1     -13.030  13.383  65.053  1.00  0.00    -0.720 OA 
ENDBRANCH  19  20
ENDBRANCH  18  19
ENDBRANCH   3  18
BRANCH   3  25
HETATM   25  S   UNL     1     -12.279  10.859  69.519  1.00  0.00    -0.157 SA 
BRANCH  25  26
HETATM   26  C   UNL     1     -12.865  11.465  71.124  1.00  0.00    -0.341 C  
HETATM   27  O   UNL     1     -13.344  10.697  71.951  1.00  0.00    -0.424 OA 
BRANCH  26  28
HETATM   28  C   UNL     1     -12.855  12.980  71.432  1.00  0.00    -0.385 A  
HETATM   29  C   UNL     1     -12.116  15.256  70.747  1.00  0.00    -0.399 A  
HETATM   30  C   UNL     1     -12.154  13.857  70.560  1.00  0.00    -0.426 A  
HETATM   31  C   UNL     1     -13.542  13.605  72.476  1.00  0.00    -0.675 A  
HETATM   32  C   UNL     1     -12.805  15.829  71.809  1.00  0.00    -0.517 A  
HETATM   33  C   UNL     1     -13.524  14.998  72.669  1.00  0.00    -0.562 A  
ENDBRANCH  26  28
ENDBRANCH  25  26
ENDBRANCH   3  25
TORSDOF 9
ENDMDL
MODEL       34
REMARK 921   NORMALIZED FREE ENERGY PREDICTED BY IDOCK:   -6.51 KCAL/MOL
REMARK 922        TOTAL FREE ENERGY PREDICTED BY IDOCK:  -11.44 KCAL/MOL
REMARK 923 INTER-LIGAND FREE ENERGY PREDICTED BY IDOCK:  -10.69 KCAL/MOL
REMARK 924 INTRA-LIGAND FREE ENERGY PREDICTED BY IDOCK:   -0.75 KCAL/MOL
REMARK 927      BINDING AFFINITY PREDICTED BY RF-SCORE:    0.00 PKD
ROOT
HETATM    1  C   UNL     1     -12.266  12.730  64.425  1.00  0.00    -0.499 C  
HETATM    2  C   UNL     1     -11.542  13.419  65.594  1.00  0.00    -0.327 C  
HETATM    3  C   UNL     1     -11.181  12.671  66.679  1.00  0.00    -0.300 C  
ENDROOT
BRANCH   2   4
HETATM    4  N   UNL     1     -11.285  14.784  65.361  1.00  0.00    -0.336 N  
HETATM    5  C   UNL     1     -12.057  15.521  64.449  1.00  0.00    -0.139 C  
HETATM    6  O   UNL     1     -11.754  16.601  63.961  1.00  0.00    -1.143 OA 
BRANCH   4   7
HETATM    7  C   UNL     1      -9.939  15.338  65.626  1.00  0.00    -0.364 C  
BRANCH   7   8
HETATM    8  C   UNL     1      -9.926  16.501  66.601  1.00  0.00    -0.284 A  
HETATM    9  H2  UNL     1      -7.649  16.223  65.413  1.00  0.00     0.000 HD 
HETATM   10  C   UNL     1     -10.816  16.837  67.559  1.00  0.00    -0.216 A  
HETATM   11  N   UNL     1      -8.921  18.649  67.180  1.00  0.00    -0.276 NA 
HETATM   12  N   UNL     1     -10.954  18.066  68.179  1.00  0.00    -0.125 NA 
HETATM   13  H1  UNL     1      -6.928  17.785  65.819  1.00  0.00     0.000 HD 
HETATM   14  C   UNL     1     -10.280  20.379  68.332  1.00  0.00    -0.212 C  
HETATM   15  N   UNL     1      -7.710  17.132  65.872  1.00  0.00    -0.427 NA 
HETATM   16  C   UNL     1     -10.039  18.952  67.914  1.00  0.00    -0.371 A  
HETATM   17  C   UNL     1      -8.780  17.458  66.523  1.00  0.00    -0.260 A  
ENDBRANCH   7   8
ENDBRANCH   4   7
ENDBRANCH   2   4
BRANCH   3  18
HETATM   18  C   UNL     1     -11.188  11.081  66.581  1.00  0.00    -0.124 C  
BRANCH  18  19
HETATM   19  C   UNL     1     -10.109  10.420  65.638  1.00  0.00    -0.269 C  
BRANCH  19  20
HETATM   20  O   UNL     1      -9.838   8.986  65.869  1.00  0.00    -0.276 OA 
HETATM   21  O   UNL     1      -8.576   8.550  67.644  1.00  0.00    -0.131 OA 
HETATM   22  O   UNL     1     -10.283   7.006  66.845  1.00  0.00    -0.219 OA 
HETATM   23  P   UNL     1     -10.201   8.506  67.491  1.00  0.00    -0.267 P  
HETATM   24  O   UNL     1     -10.527   8.077  68.943  1.00  0.00    -0.217 OA 
ENDBRANCH  19  20
ENDBRANCH  18  19
ENDBRANCH   3  18
BRANCH   3  25
HETATM   25  S   UNL     1     -10.635  13.331  68.292  1.00  0.00    -0.256 SA 
BRANCH  25  26
HETATM   26  C   UNL     1     -11.693  12.817  69.670  1.00  0.00    -0.302 C  
HETATM   27  O   UNL     1     -12.106  11.666  69.753  1.00  0.00    -0.304 OA 
BRANCH  26  28
HETATM   28  C   UNL     1     -12.168  13.856  70.712  1.00  0.00    -0.441 A  
HETATM   29  C   UNL     1     -13.650  14.361  72.648  1.00  0.00    -0.589 A  
HETATM   30  C   UNL     1     -13.178  13.488  71.643  1.00  0.00    -0.449 A  
HETATM   31  C   UNL     1     -11.640  15.138  70.885  1.00  0.00    -0.380 A  
HETATM   32  C   UNL     1     -13.102  15.633  72.769  1.00  0.00    -0.591 A  
HETATM   33  C   UNL     1     -12.090  16.016  71.888  1.00  0.00    -0.590 A  
ENDBRANCH  26  28
ENDBRANCH  25  26
ENDBRANCH   3  25
TORSDOF 9
ENDMDL
MODEL       35
REMARK 921   NORMALIZED FREE ENERGY PREDICTED BY IDOCK:   -6.50 KCAL/MOL
REMARK 922        TOTAL FREE ENERGY PREDICTED BY IDOCK:  -11.44 KCAL/MOL
REMARK 923 INTER-LIGAND FREE ENERGY PREDICTED BY IDOCK:   -9.85 KCAL/MOL
REMARK 924 INTRA-LIGAND FREE ENERGY PREDICTED BY IDOCK:   -1.59 KCAL/MOL
REMARK 927      BINDING AFFINITY PREDICTED BY RF-SCORE:    0.00 PKD
ROOT
HETATM    1  C   UNL     1     -10.205  15.670  65.724  1.00  0.00    -0.391 C  
HETATM    2  C   UNL     1     -10.369  14.767  66.958  1.00  0.00    -0.255 C  
HETATM    3  C   UNL     1     -11.534  14.068  67.114  1.00  0.00    -0.352 C  
ENDROOT
BRANCH   2   4
HETATM    4  N   UNL     1      -9.224  14.733  67.777  1.00  0.00    -0.191 N  
HETATM    5  C   UNL     1      -8.417  13.586  67.848  1.00  0.00    -0.179 C  
HETATM    6  O   UNL     1      -7.592  13.342  68.716  1.00  0.00    -0.113 OA 
BRANCH   4   7
HETATM    7  C   UNL     1      -9.126  15.636  68.945  1.00  0.00    -0.217 C  
BRANCH   7   8
HETATM    8  C   UNL     1      -8.258  16.859  68.713  1.00  0.00    -0.244 A  
HETATM    9  H2  UNL     1     -10.747  17.344  68.217  1.00  0.00     0.000 HD 
HETATM   10  C   UNL     1      -6.914  16.966  68.643  1.00  0.00    -0.191 A  
HETATM   11  N   UNL     1      -8.172  19.298  68.638  1.00  0.00    -0.368 NA 
HETATM   12  N   UNL     1      -6.158  18.116  68.780  1.00  0.00    -0.196 NA 
HETATM   13  H1  UNL     1     -10.686  19.110  68.178  1.00  0.00     0.000 HD 
HETATM   14  C   UNL     1      -6.080  20.480  69.264  1.00  0.00    -0.348 C  
HETATM   15  N   UNL     1     -10.216  18.212  68.295  1.00  0.00    -0.376 NA 
HETATM   16  C   UNL     1      -6.817  19.236  68.842  1.00  0.00    -0.331 A  
HETATM   17  C   UNL     1      -8.947  18.175  68.542  1.00  0.00    -0.296 A  
ENDBRANCH   7   8
ENDBRANCH   4   7
ENDBRANCH   2   4
BRANCH   3  18
HETATM   18  C   UNL     1     -12.535  13.916  65.884  1.00  0.00    -0.519 C  
BRANCH  18  19
HETATM   19  C   UNL     1     -12.296  12.694  64.916  1.00  0.00    -0.498 C  
BRANCH  19  20
HETATM   20  O   UNL     1     -11.036  12.715  64.144  1.00  0.00    -0.334 OA 
HETATM   21  O   UNL     1      -9.298  11.786  65.169  1.00  0.00    -0.151 OA 
HETATM   22  O   UNL     1      -9.541  11.779  62.745  1.00  0.00    -0.318 OA 
HETATM   23  P   UNL     1     -10.303  11.151  64.049  1.00  0.00    -0.380 P  
HETATM   24  O   UNL     1      -9.647   9.751  63.963  1.00  0.00    -0.190 OA 
ENDBRANCH  19  20
ENDBRANCH  18  19
ENDBRANCH   3  18
BRANCH   3  25
HETATM   25  S   UNL     1     -12.070  13.225  68.641  1.00  0.00    -0.114 SA 
BRANCH  25  26
HETATM   26  C   UNL     1     -11.762  11.439  68.618  1.00  0.00    -0.329 C  
HETATM   27  O   UNL     1     -11.492  10.860  67.572  1.00  0.00    -0.483 OA 
BRANCH  26  28
HETATM   28  C   UNL     1     -11.929  10.606  69.910  1.00  0.00    -0.385 A  
HETATM   29  C   UNL     1     -10.915   8.998  71.517  1.00  0.00    -0.418 A  
HETATM   30  C   UNL     1     -10.861   9.769  70.335  1.00  0.00    -0.370 A  
HETATM   31  C   UNL     1     -13.031  10.645  70.769  1.00  0.00    -0.396 A  
HETATM   32  C   UNL     1     -12.040   9.059  72.330  1.00  0.00    -0.358 A  
HETATM   33  C   UNL     1     -13.095   9.892  71.955  1.00  0.00    -0.559 A  
ENDBRANCH  26  28
ENDBRANCH  25  26
ENDBRANCH   3  25
TORSDOF 9
ENDMDL
MODEL       36
REMARK 921   NORMALIZED FREE ENERGY PREDICTED BY IDOCK:   -6.50 KCAL/MOL
REMARK 922        TOTAL FREE ENERGY PREDICTED BY IDOCK:  -11.42 KCAL/MOL
REMARK 923 INTER-LIGAND FREE ENERGY PREDICTED BY IDOCK:   -9.76 KCAL/MOL
REMARK 924 INTRA-LIGAND FREE ENERGY PREDICTED BY IDOCK:   -1.67 KCAL/MOL
REMARK 927      BINDING AFFINITY PREDICTED BY RF-SCORE:    0.00 PKD
ROOT
HETATM    1  C   UNL     1     -10.145   8.549  67.032  1.00  0.00    -0.347 C  
HETATM    2  C   UNL     1      -9.308   9.695  67.625  1.00  0.00    -0.126 C  
HETATM    3  C   UNL     1      -9.457  10.954  67.113  1.00  0.00    -0.160 C  
ENDROOT
BRANCH   2   4
HETATM    4  N   UNL     1      -8.498   9.290  68.704  1.00  0.00    -0.122 N  
HETATM    5  C   UNL     1      -7.594   8.224  68.572  1.00  0.00    -0.100 C  
HETATM    6  O   UNL     1      -7.067   7.613  69.490  1.00  0.00    -0.061 OA 
BRANCH   4   7
HETATM    7  C   UNL     1      -8.920   9.579  70.092  1.00  0.00    -0.236 C  
BRANCH   7   8
HETATM    8  C   UNL     1     -10.404   9.385  70.344  1.00  0.00    -0.318 A  
HETATM    9  H2  UNL     1      -9.155   7.128  70.206  1.00  0.00     0.000 HD 
HETATM   10  C   UNL     1     -11.419  10.272  70.261  1.00  0.00    -0.317 A  
HETATM   11  N   UNL     1     -12.129   7.928  71.273  1.00  0.00    -0.299 NA 
HETATM   12  N   UNL     1     -12.677  10.157  70.824  1.00  0.00    -0.327 NA 
HETATM   13  H1  UNL     1     -10.398   6.076  70.893  1.00  0.00     0.000 HD 
HETATM   14  C   UNL     1     -14.196   8.915  72.232  1.00  0.00    -0.474 C  
HETATM   15  N   UNL     1     -10.084   7.004  70.609  1.00  0.00    -0.191 NA 
HETATM   16  C   UNL     1     -12.963   9.012  71.370  1.00  0.00    -0.291 A  
HETATM   17  C   UNL     1     -10.865   8.025  70.760  1.00  0.00    -0.232 A  
ENDBRANCH   7   8
ENDBRANCH   4   7
ENDBRANCH   2   4
BRANCH   3  18
HETATM   18  C   UNL     1     -10.707  11.287  66.185  1.00  0.00    -0.307 C  
BRANCH  18  19
HETATM   19  C   UNL     1     -10.494  11.158  64.627  1.00  0.00    -0.335 C  
BRANCH  19  20
HETATM   20  O   UNL     1     -11.314  12.054  63.785  1.00  0.00    -0.375 OA 
HETATM   21  O   UNL     1     -13.482  12.062  64.265  1.00  0.00    -0.654 OA 
HETATM   22  O   UNL     1     -12.336  14.017  63.372  1.00  0.00    -0.748 OA 
HETATM   23  P   UNL     1     -12.313  13.104  64.729  1.00  0.00    -0.395 P  
HETATM   24  O   UNL     1     -13.208  14.044  65.573  1.00  0.00    -0.710 OA 
ENDBRANCH  19  20
ENDBRANCH  18  19
ENDBRANCH   3  18
BRANCH   3  25
HETATM   25  S   UNL     1      -8.340  12.365  67.422  1.00  0.00    -0.189 SA 
BRANCH  25  26
HETATM   26  C   UNL     1      -9.187  13.966  67.390  1.00  0.00    -0.224 C  
HETATM   27  O   UNL     1      -8.905  14.812  66.549  1.00  0.00    -0.253 OA 
BRANCH  26  28
HETATM   28  C   UNL     1     -10.216  14.322  68.488  1.00  0.00    -0.245 A  
HETATM   29  C   UNL     1     -10.993  15.973  70.181  1.00  0.00    -0.369 A  
HETATM   30  C   UNL     1     -10.083  15.553  69.186  1.00  0.00    -0.239 A  
HETATM   31  C   UNL     1     -11.340  13.565  68.829  1.00  0.00    -0.329 A  
HETATM   32  C   UNL     1     -12.088  15.177  70.494  1.00  0.00    -0.390 A  
HETATM   33  C   UNL     1     -12.262  13.974  69.809  1.00  0.00    -0.396 A  
ENDBRANCH  26  28
ENDBRANCH  25  26
ENDBRANCH   3  25
TORSDOF 9
ENDMDL
MODEL       37
REMARK 921   NORMALIZED FREE ENERGY PREDICTED BY IDOCK:   -6.50 KCAL/MOL
REMARK 922        TOTAL FREE ENERGY PREDICTED BY IDOCK:  -11.42 KCAL/MOL
REMARK 923 INTER-LIGAND FREE ENERGY PREDICTED BY IDOCK:   -9.88 KCAL/MOL
REMARK 924 INTRA-LIGAND FREE ENERGY PREDICTED BY IDOCK:   -1.54 KCAL/MOL
REMARK 927      BINDING AFFINITY PREDICTED BY RF-SCORE:    0.00 PKD
ROOT
HETATM    1  C   UNL     1     -11.191  16.011  70.078  1.00  0.00    -0.362 C  
HETATM    2  C   UNL     1     -10.401  15.634  68.814  1.00  0.00    -0.218 C  
HETATM    3  C   UNL     1      -9.912  16.634  68.019  1.00  0.00    -0.258 C  
ENDROOT
BRANCH   2   4
HETATM    4  N   UNL     1     -10.228  14.245  68.660  1.00  0.00    -0.244 N  
HETATM    5  C   UNL     1      -8.948  13.687  68.508  1.00  0.00    -0.102 C  
HETATM    6  O   UNL     1      -8.701  12.566  68.088  1.00  0.00    -0.180 OA 
BRANCH   4   7
HETATM    7  C   UNL     1     -11.334  13.418  68.132  1.00  0.00    -0.287 C  
BRANCH   7   8
HETATM    8  C   UNL     1     -11.907  12.432  69.133  1.00  0.00    -0.352 A  
HETATM    9  H2  UNL     1     -11.480  11.325  66.838  1.00  0.00     0.000 HD 
HETATM   10  C   UNL     1     -12.465  12.653  70.342  1.00  0.00    -0.143 A  
HETATM   11  N   UNL     1     -12.092  10.088  69.791  1.00  0.00     0.019 NA 
HETATM   12  N   UNL     1     -12.652  11.732  71.358  1.00  0.00    -0.310 NA 
HETATM   13  H1  UNL     1     -11.598   9.628  67.318  1.00  0.00     0.000 HD 
HETATM   14  C   UNL     1     -12.311   9.492  72.192  1.00  0.00    -0.332 C  
HETATM   15  N   UNL     1     -11.630  10.619  67.559  1.00  0.00    -0.417 NA 
HETATM   16  C   UNL     1     -12.393  10.491  71.067  1.00  0.00    -0.399 A  
HETATM   17  C   UNL     1     -11.860  10.980  68.780  1.00  0.00    -0.282 A  
ENDBRANCH   7   8
ENDBRANCH   4   7
ENDBRANCH   2   4
BRANCH   3  18
HETATM   18  C   UNL     1      -9.855  18.126  68.572  1.00  0.00    -0.393 C  
BRANCH  18  19
HETATM   19  C   UNL     1      -8.724  19.060  67.991  1.00  0.00    -0.306 C  
BRANCH  19  20
HETATM   20  O   UNL     1      -7.334  18.651  68.279  1.00  0.00    -0.256 OA 
HETATM   21  O   UNL     1      -5.773  20.002  67.460  1.00  0.00    -0.178 OA 
HETATM   22  O   UNL     1      -5.449  18.725  69.509  1.00  0.00    -0.197 OA 
HETATM   23  P   UNL     1      -6.403  19.938  68.966  1.00  0.00    -0.330 P  
HETATM   24  O   UNL     1      -5.571  21.089  69.580  1.00  0.00    -0.403 OA 
ENDBRANCH  19  20
ENDBRANCH  18  19
ENDBRANCH   3  18
BRANCH   3  25
HETATM   25  S   UNL     1      -9.259  16.423  66.328  1.00  0.00    -0.328 SA 
BRANCH  25  26
HETATM   26  C   UNL     1     -10.549  16.090  65.099  1.00  0.00    -0.370 C  
HETATM   27  O   UNL     1     -11.175  17.005  64.579  1.00  0.00    -1.091 OA 
BRANCH  26  28
HETATM   28  C   UNL     1     -10.940  14.632  64.761  1.00  0.00    -0.399 A  
HETATM   29  C   UNL     1     -10.188  12.286  64.406  1.00  0.00    -0.341 A  
HETATM   30  C   UNL     1      -9.920  13.645  64.679  1.00  0.00    -0.077 A  
HETATM   31  C   UNL     1     -12.242  14.156  64.590  1.00  0.00    -0.465 A  
HETATM   32  C   UNL     1     -11.501  11.864  64.228  1.00  0.00    -0.423 A  
HETATM   33  C   UNL     1     -12.527  12.804  64.328  1.00  0.00    -0.461 A  
ENDBRANCH  26  28
ENDBRANCH  25  26
ENDBRANCH   3  25
TORSDOF 9
ENDMDL
MODEL       38
REMARK 921   NORMALIZED FREE ENERGY PREDICTED BY IDOCK:   -6.49 KCAL/MOL
REMARK 922        TOTAL FREE ENERGY PREDICTED BY IDOCK:  -11.42 KCAL/MOL
REMARK 923 INTER-LIGAND FREE ENERGY PREDICTED BY IDOCK:  -10.04 KCAL/MOL
REMARK 924 INTRA-LIGAND FREE ENERGY PREDICTED BY IDOCK:   -1.38 KCAL/MOL
REMARK 927      BINDING AFFINITY PREDICTED BY RF-SCORE:    0.00 PKD
ROOT
HETATM    1  C   UNL     1     -11.220  12.451  64.936  1.00  0.00    -0.353 C  
HETATM    2  C   UNL     1     -10.812  12.448  66.419  1.00  0.00    -0.258 C  
HETATM    3  C   UNL     1     -10.631  13.644  67.056  1.00  0.00    -0.274 C  
ENDROOT
BRANCH   2   4
HETATM    4  N   UNL     1     -10.727  11.154  66.969  1.00  0.00    -0.255 N  
HETATM    5  C   UNL     1     -10.192  10.086  66.230  1.00  0.00    -0.215 C  
HETATM    6  O   UNL     1     -10.330   8.899  66.483  1.00  0.00    -0.276 OA 
BRANCH   4   7
HETATM    7  C   UNL     1     -11.636  10.757  68.066  1.00  0.00    -0.163 C  
BRANCH   7   8
HETATM    8  C   UNL     1     -10.927  10.325  69.336  1.00  0.00    -0.289 A  
HETATM    9  H2  UNL     1     -13.424  10.836  69.761  1.00  0.00     0.000 HD 
HETATM   10  C   UNL     1      -9.608  10.188  69.586  1.00  0.00    -0.210 A  
HETATM   11  N   UNL     1     -11.163   9.309  71.543  1.00  0.00    -0.364 NA 
HETATM   12  N   UNL     1      -9.022   9.473  70.615  1.00  0.00    -0.223 NA 
HETATM   13  H1  UNL     1     -13.597  10.086  71.352  1.00  0.00     0.000 HD 
HETATM   14  C   UNL     1      -9.289   7.993  72.504  1.00  0.00    -0.289 C  
HETATM   15  N   UNL     1     -13.020  10.324  70.545  1.00  0.00    -0.270 NA 
HETATM   16  C   UNL     1      -9.827   9.000  71.521  1.00  0.00    -0.310 A  
HETATM   17  C   UNL     1     -11.774   9.976  70.518  1.00  0.00    -0.318 A  
ENDBRANCH   7   8
ENDBRANCH   4   7
ENDBRANCH   2   4
BRANCH   3  18
HETATM   18  C   UNL     1     -11.170  14.985  66.388  1.00  0.00    -0.310 C  
BRANCH  18  19
HETATM   19  C   UNL     1     -10.088  15.991  65.833  1.00  0.00    -0.353 C  
BRANCH  19  20
HETATM   20  O   UNL     1     -10.557  17.368  65.574  1.00  0.00    -0.595 OA 
HETATM   21  O   UNL     1     -10.967  18.573  67.395  1.00  0.00    -0.376 OA 
HETATM   22  O   UNL     1     -10.205  19.576  65.309  1.00  0.00    -0.213 OA 
HETATM   23  P   UNL     1      -9.637  18.546  66.446  1.00  0.00    -0.241 P  
HETATM   24  O   UNL     1      -8.814  19.600  67.226  1.00  0.00    -0.299 OA 
ENDBRANCH  19  20
ENDBRANCH  18  19
ENDBRANCH   3  18
BRANCH   3  25
HETATM   25  S   UNL     1      -9.828  13.872  68.680  1.00  0.00    -0.123 SA 
BRANCH  25  26
HETATM   26  C   UNL     1     -10.480  15.286  69.607  1.00  0.00    -0.270 C  
HETATM   27  O   UNL     1     -10.020  16.410  69.447  1.00  0.00    -0.253 OA 
BRANCH  26  28
HETATM   28  C   UNL     1     -11.567  15.072  70.686  1.00  0.00    -0.358 A  
HETATM   29  C   UNL     1     -13.262  13.546  71.684  1.00  0.00    -0.449 A  
HETATM   30  C   UNL     1     -12.276  13.840  70.717  1.00  0.00    -0.437 A  
HETATM   31  C   UNL     1     -11.886  15.966  71.711  1.00  0.00    -0.579 A  
HETATM   32  C   UNL     1     -13.554  14.476  72.675  1.00  0.00    -0.577 A  
HETATM   33  C   UNL     1     -12.858  15.685  72.689  1.00  0.00    -0.541 A  
ENDBRANCH  26  28
ENDBRANCH  25  26
ENDBRANCH   3  25
TORSDOF 9
ENDMDL
MODEL       39
REMARK 921   NORMALIZED FREE ENERGY PREDICTED BY IDOCK:   -6.49 KCAL/MOL
REMARK 922        TOTAL FREE ENERGY PREDICTED BY IDOCK:  -11.42 KCAL/MOL
REMARK 923 INTER-LIGAND FREE ENERGY PREDICTED BY IDOCK:   -9.89 KCAL/MOL
REMARK 924 INTRA-LIGAND FREE ENERGY PREDICTED BY IDOCK:   -1.52 KCAL/MOL
REMARK 927      BINDING AFFINITY PREDICTED BY RF-SCORE:    0.00 PKD
ROOT
HETATM    1  C   UNL     1      -9.167  12.665  68.007  1.00  0.00    -0.208 C  
HETATM    2  C   UNL     1     -10.365  13.499  67.523  1.00  0.00    -0.237 C  
HETATM    3  C   UNL     1     -10.805  13.337  66.239  1.00  0.00    -0.284 C  
ENDROOT
BRANCH   2   4
HETATM    4  N   UNL     1     -10.912  14.320  68.528  1.00  0.00    -0.243 N  
HETATM    5  C   UNL     1     -10.087  15.087  69.366  1.00  0.00    -0.202 C  
HETATM    6  O   UNL     1     -10.418  15.594  70.428  1.00  0.00    -0.315 OA 
BRANCH   4   7
HETATM    7  C   UNL     1     -12.250  14.017  69.081  1.00  0.00    -0.262 C  
BRANCH   7   8
HETATM    8  C   UNL     1     -12.286  12.807  69.996  1.00  0.00    -0.279 A  
HETATM    9  H2  UNL     1     -12.758  14.996  71.285  1.00  0.00     0.000 HD 
HETATM   10  C   UNL     1     -11.882  11.539  69.770  1.00  0.00    -0.357 A  
HETATM   11  N   UNL     1     -13.162  11.857  72.068  1.00  0.00    -0.456 NA 
HETATM   12  N   UNL     1     -12.241  10.407  70.480  1.00  0.00    -0.305 NA 
HETATM   13  H1  UNL     1     -13.407  14.308  72.779  1.00  0.00     0.000 HD 
HETATM   14  C   UNL     1     -13.578   9.415  72.228  1.00  0.00    -0.532 C  
HETATM   15  N   UNL     1     -13.018  14.182  71.844  1.00  0.00    -0.341 NA 
HETATM   16  C   UNL     1     -12.928  10.602  71.568  1.00  0.00    -0.461 A  
HETATM   17  C   UNL     1     -12.855  12.991  71.367  1.00  0.00    -0.292 A  
ENDBRANCH   7   8
ENDBRANCH   4   7
ENDBRANCH   2   4
BRANCH   3  18
HETATM   18  C   UNL     1     -10.326  12.077  65.392  1.00  0.00    -0.301 C  
BRANCH  18  19
HETATM   19  C   UNL     1     -10.046  12.313  63.857  1.00  0.00    -0.347 C  
BRANCH  19  20
HETATM   20  O   UNL     1      -9.230  11.284  63.181  1.00  0.00    -0.278 OA 
HETATM   21  O   UNL     1      -7.537  10.496  64.384  1.00  0.00    -0.070 OA 
HETATM   22  O   UNL     1      -8.700   9.143  62.725  1.00  0.00    -0.218 OA 
HETATM   23  P   UNL     1      -9.028   9.868  64.154  1.00  0.00    -0.243 P  
HETATM   24  O   UNL     1      -8.847   8.601  65.025  1.00  0.00    -0.165 OA 
ENDBRANCH  19  20
ENDBRANCH  18  19
ENDBRANCH   3  18
BRANCH   3  25
HETATM   25  S   UNL     1     -11.963  14.446  65.366  1.00  0.00    -0.352 SA 
BRANCH  25  26
HETATM   26  C   UNL     1     -11.225  16.038  64.914  1.00  0.00    -0.312 C  
HETATM   27  O   UNL     1     -11.471  16.564  63.835  1.00  0.00    -1.145 OA 
BRANCH  26  28
HETATM   28  C   UNL     1     -10.196  16.710  65.852  1.00  0.00    -0.358 A  
HETATM   29  C   UNL     1      -9.775  18.360  67.669  1.00  0.00    -0.306 A  
HETATM   30  C   UNL     1     -10.638  17.715  66.755  1.00  0.00    -0.224 A  
HETATM   31  C   UNL     1      -8.844  16.372  65.957  1.00  0.00    -0.296 A  
HETATM   32  C   UNL     1      -8.434  17.998  67.723  1.00  0.00    -0.247 A  
HETATM   33  C   UNL     1      -7.973  16.996  66.868  1.00  0.00    -0.256 A  
ENDBRANCH  26  28
ENDBRANCH  25  26
ENDBRANCH   3  25
TORSDOF 9
ENDMDL
MODEL       40
REMARK 921   NORMALIZED FREE ENERGY PREDICTED BY IDOCK:   -6.47 KCAL/MOL
REMARK 922        TOTAL FREE ENERGY PREDICTED BY IDOCK:  -11.38 KCAL/MOL
REMARK 923 INTER-LIGAND FREE ENERGY PREDICTED BY IDOCK:  -10.29 KCAL/MOL
REMARK 924 INTRA-LIGAND FREE ENERGY PREDICTED BY IDOCK:   -1.09 KCAL/MOL
REMARK 927      BINDING AFFINITY PREDICTED BY RF-SCORE:    0.00 PKD
ROOT
HETATM    1  C   UNL     1      -8.516   8.395  66.993  1.00  0.00    -0.122 C  
HETATM    2  C   UNL     1      -9.825   8.951  67.578  1.00  0.00    -0.184 C  
HETATM    3  C   UNL     1     -10.378  10.066  67.012  1.00  0.00    -0.243 C  
ENDROOT
BRANCH   2   4
HETATM    4  N   UNL     1     -10.336   8.173  68.635  1.00  0.00    -0.208 N  
HETATM    5  C   UNL     1     -10.666   6.821  68.445  1.00  0.00    -0.232 C  
HETATM    6  O   UNL     1     -11.368   6.145  69.183  1.00  0.00    -0.399 OA 
BRANCH   4   7
HETATM    7  C   UNL     1     -11.025   8.829  69.767  1.00  0.00    -0.140 C  
BRANCH   7   8
HETATM    8  C   UNL     1     -10.303   8.695  71.096  1.00  0.00    -0.294 A  
HETATM    9  H2  UNL     1     -12.867   8.556  71.382  1.00  0.00     0.000 HD 
HETATM   10  C   UNL     1      -9.010   8.932  71.405  1.00  0.00    -0.229 A  
HETATM   11  N   UNL     1     -10.393   7.818  73.373  1.00  0.00    -0.308 NA 
HETATM   12  N   UNL     1      -8.319   8.476  72.513  1.00  0.00    -0.352 NA 
HETATM   13  H1  UNL     1     -12.931   7.906  73.025  1.00  0.00     0.000 HD 
HETATM   14  C   UNL     1      -8.299   7.121  74.511  1.00  0.00    -0.215 C  
HETATM   15  N   UNL     1     -12.389   8.229  72.223  1.00  0.00    -0.358 NA 
HETATM   16  C   UNL     1      -9.024   7.874  73.426  1.00  0.00    -0.277 A  
HETATM   17  C   UNL     1     -11.096   8.223  72.272  1.00  0.00    -0.359 A  
ENDBRANCH   7   8
ENDBRANCH   4   7
ENDBRANCH   2   4
BRANCH   3  18
HETATM   18  C   UNL     1      -9.881  10.557  65.582  1.00  0.00    -0.311 C  
BRANCH  18  19
HETATM   19  C   UNL     1     -10.057  12.090  65.251  1.00  0.00    -0.260 C  
BRANCH  19  20
HETATM   20  O   UNL     1     -11.030  12.415  64.188  1.00  0.00    -0.312 OA 
HETATM   21  O   UNL     1     -13.158  12.098  64.740  1.00  0.00    -0.602 OA 
HETATM   22  O   UNL     1     -12.462  13.815  63.158  1.00  0.00    -0.786 OA 
HETATM   23  P   UNL     1     -12.279  13.474  64.747  1.00  0.00    -0.402 P  
HETATM   24  O   UNL     1     -13.396  14.422  65.248  1.00  0.00    -0.574 OA 
ENDBRANCH  19  20
ENDBRANCH  18  19
ENDBRANCH   3  18
BRANCH   3  25
HETATM   25  S   UNL     1     -11.711  11.078  67.743  1.00  0.00     0.090 SA 
BRANCH  25  26
HETATM   26  C   UNL     1     -11.096  12.416  68.798  1.00  0.00    -0.262 C  
HETATM   27  O   UNL     1      -9.961  12.859  68.657  1.00  0.00    -0.191 OA 
BRANCH  26  28
HETATM   28  C   UNL     1     -11.967  12.954  69.956  1.00  0.00    -0.380 A  
HETATM   29  C   UNL     1     -13.213  12.455  72.053  1.00  0.00    -0.514 A  
HETATM   30  C   UNL     1     -12.438  12.048  70.945  1.00  0.00    -0.384 A  
HETATM   31  C   UNL     1     -12.293  14.295  70.177  1.00  0.00    -0.413 A  
HETATM   32  C   UNL     1     -13.523  13.799  72.220  1.00  0.00    -0.638 A  
HETATM   33  C   UNL     1     -13.055  14.719  71.282  1.00  0.00    -0.433 A  
ENDBRANCH  26  28
ENDBRANCH  25  26
ENDBRANCH   3  25
TORSDOF 9
ENDMDL
MODEL       41
REMARK 921   NORMALIZED FREE ENERGY PREDICTED BY IDOCK:   -6.43 KCAL/MOL
REMARK 922        TOTAL FREE ENERGY PREDICTED BY IDOCK:  -11.32 KCAL/MOL
REMARK 923 INTER-LIGAND FREE ENERGY PREDICTED BY IDOCK:  -10.19 KCAL/MOL
REMARK 924 INTRA-LIGAND FREE ENERGY PREDICTED BY IDOCK:   -1.13 KCAL/MOL
REMARK 927      BINDING AFFINITY PREDICTED BY RF-SCORE:    0.00 PKD
ROOT
HETATM    1  C   UNL     1      -7.750  11.576  68.432  1.00  0.00    -0.129 C  
HETATM    2  C   UNL     1      -9.278  11.687  68.296  1.00  0.00    -0.187 C  
HETATM    3  C   UNL     1      -9.835  12.922  68.108  1.00  0.00    -0.227 C  
ENDROOT
BRANCH   2   4
HETATM    4  N   UNL     1      -9.931  10.440  68.331  1.00  0.00    -0.157 N  
HETATM    5  C   UNL     1      -9.828   9.538  67.260  1.00  0.00    -0.177 C  
HETATM    6  O   UNL     1     -10.561   8.582  67.055  1.00  0.00    -0.306 OA 
BRANCH   4   7
HETATM    7  C   UNL     1     -11.122  10.255  69.188  1.00  0.00    -0.235 C  
BRANCH   7   8
HETATM    8  C   UNL     1     -10.830   9.606  70.529  1.00  0.00    -0.371 A  
HETATM    9  H2  UNL     1     -13.225  10.572  70.435  1.00  0.00     0.000 HD 
HETATM   10  C   UNL     1      -9.656   9.195  71.052  1.00  0.00    -0.280 A  
HETATM   11  N   UNL     1     -11.768   8.510  72.498  1.00  0.00    -0.362 NA 
HETATM   12  N   UNL     1      -9.472   8.310  72.100  1.00  0.00    -0.230 NA 
HETATM   13  H1  UNL     1     -13.908   9.765  71.852  1.00  0.00     0.000 HD 
HETATM   14  C   UNL     1     -10.445   6.787  73.701  1.00  0.00    -0.374 C  
HETATM   15  N   UNL     1     -13.119   9.938  71.228  1.00  0.00    -0.385 NA 
HETATM   16  C   UNL     1     -10.543   7.946  72.742  1.00  0.00    -0.353 A  
HETATM   17  C   UNL     1     -11.985   9.353  71.443  1.00  0.00    -0.371 A  
ENDBRANCH   7   8
ENDBRANCH   4   7
ENDBRANCH   2   4
BRANCH   3  18
HETATM   18  C   UNL     1      -8.913  14.149  67.686  1.00  0.00    -0.192 C  
BRANCH  18  19
HETATM   19  C   UNL     1      -8.292  15.009  68.854  1.00  0.00    -0.183 C  
BRANCH  19  20
HETATM   20  O   UNL     1      -8.530  16.466  68.783  1.00  0.00    -0.225 OA 
HETATM   21  O   UNL     1      -6.863  17.642  67.904  1.00  0.00    -0.183 OA 
HETATM   22  O   UNL     1      -9.193  18.326  67.702  1.00  0.00    -0.263 OA 
HETATM   23  P   UNL     1      -8.234  17.100  67.201  1.00  0.00    -0.214 P  
HETATM   24  O   UNL     1      -7.970  17.667  65.785  1.00  0.00    -0.549 OA 
ENDBRANCH  19  20
ENDBRANCH  18  19
ENDBRANCH   3  18
BRANCH   3  25
HETATM   25  S   UNL     1     -11.610  13.321  68.264  1.00  0.00    -0.355 SA 
BRANCH  25  26
HETATM   26  C   UNL     1     -11.917  14.891  69.116  1.00  0.00    -0.278 C  
HETATM   27  O   UNL     1     -11.768  15.961  68.537  1.00  0.00    -0.383 OA 
BRANCH  26  28
HETATM   28  C   UNL     1     -12.282  14.900  70.618  1.00  0.00    -0.379 A  
HETATM   29  C   UNL     1     -12.059  16.029  72.826  1.00  0.00    -0.635 A  
HETATM   30  C   UNL     1     -11.755  15.925  71.451  1.00  0.00    -0.530 A  
HETATM   31  C   UNL     1     -13.160  14.016  71.250  1.00  0.00    -0.399 A  
HETATM   32  C   UNL     1     -12.927  15.115  73.411  1.00  0.00    -0.642 A  
HETATM   33  C   UNL     1     -13.482  14.112  72.616  1.00  0.00    -0.634 A  
ENDBRANCH  26  28
ENDBRANCH  25  26
ENDBRANCH   3  25
TORSDOF 9
ENDMDL
MODEL       42
REMARK 921   NORMALIZED FREE ENERGY PREDICTED BY IDOCK:   -6.39 KCAL/MOL
REMARK 922        TOTAL FREE ENERGY PREDICTED BY IDOCK:  -11.26 KCAL/MOL
REMARK 923 INTER-LIGAND FREE ENERGY PREDICTED BY IDOCK:   -9.87 KCAL/MOL
REMARK 924 INTRA-LIGAND FREE ENERGY PREDICTED BY IDOCK:   -1.39 KCAL/MOL
REMARK 927      BINDING AFFINITY PREDICTED BY RF-SCORE:    0.00 PKD
ROOT
HETATM    1  C   UNL     1      -9.051  12.204  65.672  1.00  0.00     0.132 C  
HETATM    2  C   UNL     1     -10.451  12.178  66.307  1.00  0.00    -0.239 C  
HETATM    3  C   UNL     1     -10.581  11.753  67.600  1.00  0.00    -0.205 C  
ENDROOT
BRANCH   2   4
HETATM    4  N   UNL     1     -11.457  12.669  65.453  1.00  0.00    -0.323 N  
HETATM    5  C   UNL     1     -11.520  12.276  64.106  1.00  0.00    -0.383 C  
HETATM    6  O   UNL     1     -12.149  12.841  63.224  1.00  0.00    -0.539 OA 
BRANCH   4   7
HETATM    7  C   UNL     1     -12.120  13.956  65.757  1.00  0.00    -0.425 C  
BRANCH   7   8
HETATM    8  C   UNL     1     -11.161  15.087  66.086  1.00  0.00    -0.307 A  
HETATM    9  H2  UNL     1     -12.036  15.250  63.661  1.00  0.00     0.000 HD 
HETATM   10  C   UNL     1     -10.332  15.238  67.140  1.00  0.00    -0.265 A  
HETATM   11  N   UNL     1     -10.472  17.373  65.577  1.00  0.00    -0.638 NA 
HETATM   12  N   UNL     1      -9.746  16.411  67.582  1.00  0.00    -0.236 NA 
HETATM   13  H1  UNL     1     -11.551  16.911  63.298  1.00  0.00     0.000 HD 
HETATM   14  C   UNL     1      -9.525  18.806  67.370  1.00  0.00    -0.324 C  
HETATM   15  N   UNL     1     -11.596  16.125  63.947  1.00  0.00    -0.881 NA 
HETATM   16  C   UNL     1      -9.896  17.453  66.819  1.00  0.00    -0.296 A  
HETATM   17  C   UNL     1     -11.095  16.238  65.135  1.00  0.00    -0.212 A  
ENDBRANCH   7   8
ENDBRANCH   4   7
ENDBRANCH   2   4
BRANCH   3  18
HETATM   18  C   UNL     1      -9.291  11.632  68.525  1.00  0.00    -0.169 C  
BRANCH  18  19
HETATM   19  C   UNL     1      -8.812  10.174  68.895  1.00  0.00    -0.154 C  
BRANCH  19  20
HETATM   20  O   UNL     1      -8.993   9.771  70.305  1.00  0.00    -0.232 OA 
HETATM   21  O   UNL     1      -9.802   7.722  70.593  1.00  0.00    -0.181 OA 
HETATM   22  O   UNL     1      -8.294   8.768  72.196  1.00  0.00    -0.351 OA 
HETATM   23  P   UNL     1      -8.255   8.244  70.647  1.00  0.00    -0.129 P  
HETATM   24  O   UNL     1      -7.594   6.878  70.953  1.00  0.00    -0.084 OA 
ENDBRANCH  19  20
ENDBRANCH  18  19
ENDBRANCH   3  18
BRANCH   3  25
HETATM   25  S   UNL     1     -12.152  11.322  68.424  1.00  0.00     0.174 SA 
BRANCH  25  26
HETATM   26  C   UNL     1     -12.130  11.627  70.210  1.00  0.00    -0.358 C  
HETATM   27  O   UNL     1     -11.870  10.726  70.999  1.00  0.00    -0.323 OA 
BRANCH  26  28
HETATM   28  C   UNL     1     -12.532  13.012  70.766  1.00  0.00    -0.384 A  
HETATM   29  C   UNL     1     -12.501  15.484  70.467  1.00  0.00    -0.472 A  
HETATM   30  C   UNL     1     -12.152  14.180  70.050  1.00  0.00    -0.409 A  
HETATM   31  C   UNL     1     -13.315  13.240  71.900  1.00  0.00    -0.540 A  
HETATM   32  C   UNL     1     -13.270  15.658  71.611  1.00  0.00    -0.554 A  
HETATM   33  C   UNL     1     -13.682  14.531  72.323  1.00  0.00    -0.559 A  
ENDBRANCH  26  28
ENDBRANCH  25  26
ENDBRANCH   3  25
TORSDOF 9
ENDMDL
MODEL       43
REMARK 921   NORMALIZED FREE ENERGY PREDICTED BY IDOCK:   -6.38 KCAL/MOL
REMARK 922        TOTAL FREE ENERGY PREDICTED BY IDOCK:  -11.24 KCAL/MOL
REMARK 923 INTER-LIGAND FREE ENERGY PREDICTED BY IDOCK:   -9.71 KCAL/MOL
REMARK 924 INTRA-LIGAND FREE ENERGY PREDICTED BY IDOCK:   -1.53 KCAL/MOL
REMARK 927      BINDING AFFINITY PREDICTED BY RF-SCORE:    0.00 PKD
ROOT
HETATM    1  C   UNL     1      -8.014   9.835  68.121  1.00  0.00    -0.100 C  
HETATM    2  C   UNL     1      -9.545   9.769  68.247  1.00  0.00    -0.143 C  
HETATM    3  C   UNL     1     -10.260  10.934  68.220  1.00  0.00    -0.173 C  
ENDROOT
BRANCH   2   4
HETATM    4  N   UNL     1     -10.040   8.453  68.325  1.00  0.00    -0.192 N  
HETATM    5  C   UNL     1     -10.493   7.780  67.178  1.00  0.00    -0.343 C  
HETATM    6  O   UNL     1     -11.192   6.778  67.164  1.00  0.00    -0.379 OA 
BRANCH   4   7
HETATM    7  C   UNL     1     -10.589   7.945  69.601  1.00  0.00    -0.234 C  
BRANCH   7   8
HETATM    8  C   UNL     1      -9.632   7.064  70.383  1.00  0.00    -0.169 A  
HETATM    9  H2  UNL     1      -9.454   9.540  71.098  1.00  0.00     0.000 HD 
HETATM   10  C   UNL     1      -9.261   5.784  70.166  1.00  0.00    -0.151 A  
HETATM   11  N   UNL     1      -8.370   6.781  72.453  1.00  0.00    -0.109 NA 
HETATM   12  N   UNL     1      -8.676   4.918  71.071  1.00  0.00    -0.122 NA 
HETATM   13  H1  UNL     1      -8.554   9.333  72.605  1.00  0.00     0.000 HD 
HETATM   14  C   UNL     1      -7.928   4.500  73.329  1.00  0.00    -0.095 C  
HETATM   15  N   UNL     1      -8.997   8.932  71.778  1.00  0.00    -0.353 NA 
HETATM   16  C   UNL     1      -8.313   5.432  72.210  1.00  0.00    -0.122 A  
HETATM   17  C   UNL     1      -8.981   7.651  71.594  1.00  0.00    -0.127 A  
ENDBRANCH   7   8
ENDBRANCH   4   7
ENDBRANCH   2   4
BRANCH   3  18
HETATM   18  C   UNL     1      -9.565  12.276  67.716  1.00  0.00    -0.200 C  
BRANCH  18  19
HETATM   19  C   UNL     1     -10.430  13.226  66.800  1.00  0.00    -0.270 C  
BRANCH  19  20
HETATM   20  O   UNL     1     -10.854  12.664  65.501  1.00  0.00    -0.270 OA 
HETATM   21  O   UNL     1     -13.032  12.809  65.088  1.00  0.00    -0.768 OA 
HETATM   22  O   UNL     1     -11.361  12.859  63.316  1.00  0.00    -0.392 OA 
HETATM   23  P   UNL     1     -11.815  13.778  64.590  1.00  0.00    -0.445 P  
HETATM   24  O   UNL     1     -12.674  14.775  63.775  1.00  0.00    -0.767 OA 
ENDBRANCH  19  20
ENDBRANCH  18  19
ENDBRANCH   3  18
BRANCH   3  25
HETATM   25  S   UNL     1     -12.015  11.116  68.691  1.00  0.00    -0.094 SA 
BRANCH  25  26
HETATM   26  C   UNL     1     -12.250  11.463  70.454  1.00  0.00    -0.362 C  
HETATM   27  O   UNL     1     -12.220  10.562  71.283  1.00  0.00    -0.357 OA 
BRANCH  26  28
HETATM   28  C   UNL     1     -12.585  12.898  70.924  1.00  0.00    -0.355 A  
HETATM   29  C   UNL     1     -13.528  14.356  72.708  1.00  0.00    -0.582 A  
HETATM   30  C   UNL     1     -13.213  13.082  72.186  1.00  0.00    -0.558 A  
HETATM   31  C   UNL     1     -12.261  14.075  70.245  1.00  0.00    -0.430 A  
HETATM   32  C   UNL     1     -13.198  15.497  71.986  1.00  0.00    -0.549 A  
HETATM   33  C   UNL     1     -12.556  15.352  70.756  1.00  0.00    -0.497 A  
ENDBRANCH  26  28
ENDBRANCH  25  26
ENDBRANCH   3  25
TORSDOF 9
ENDMDL
MODEL       44
REMARK 921   NORMALIZED FREE ENERGY PREDICTED BY IDOCK:   -6.35 KCAL/MOL
REMARK 922        TOTAL FREE ENERGY PREDICTED BY IDOCK:  -11.20 KCAL/MOL
REMARK 923 INTER-LIGAND FREE ENERGY PREDICTED BY IDOCK:   -9.59 KCAL/MOL
REMARK 924 INTRA-LIGAND FREE ENERGY PREDICTED BY IDOCK:   -1.61 KCAL/MOL
REMARK 927      BINDING AFFINITY PREDICTED BY RF-SCORE:    0.00 PKD
ROOT
HETATM    1  C   UNL     1      -9.360  12.582  67.953  1.00  0.00    -0.200 C  
HETATM    2  C   UNL     1      -9.678  11.082  68.075  1.00  0.00    -0.172 C  
HETATM    3  C   UNL     1      -9.611  10.301  66.955  1.00  0.00    -0.171 C  
ENDROOT
BRANCH   2   4
HETATM    4  N   UNL     1      -9.957  10.679  69.396  1.00  0.00    -0.197 N  
HETATM    5  C   UNL     1      -8.966  10.091  70.198  1.00  0.00    -0.001 C  
HETATM    6  O   UNL     1      -9.159   9.454  71.224  1.00  0.00    -0.277 OA 
BRANCH   4   7
HETATM    7  C   UNL     1     -11.346  10.366  69.793  1.00  0.00    -0.289 C  
BRANCH   7   8
HETATM    8  C   UNL     1     -12.126  11.557  70.320  1.00  0.00    -0.444 A  
HETATM    9  H2  UNL     1     -12.852   9.357  71.463  1.00  0.00     0.000 HD 
HETATM   10  C   UNL     1     -12.209  12.816  69.841  1.00  0.00    -0.175 A  
HETATM   11  N   UNL     1     -13.382  12.489  72.194  1.00  0.00    -0.510 NA 
HETATM   12  N   UNL     1     -12.634  13.943  70.522  1.00  0.00    -0.331 NA 
HETATM   13  H1  UNL     1     -13.748  10.032  72.829  1.00  0.00     0.000 HD 
HETATM   14  C   UNL     1     -13.366  14.939  72.596  1.00  0.00    -0.553 C  
HETATM   15  N   UNL     1     -13.197  10.165  71.981  1.00  0.00    -0.458 NA 
HETATM   16  C   UNL     1     -13.143  13.746  71.703  1.00  0.00    -0.375 A  
HETATM   17  C   UNL     1     -12.934  11.361  71.562  1.00  0.00    -0.399 A  
ENDBRANCH   7   8
ENDBRANCH   4   7
ENDBRANCH   2   4
BRANCH   3  18
HETATM   18  C   UNL     1      -8.884  10.851  65.650  1.00  0.00    -0.201 C  
BRANCH  18  19
HETATM   19  C   UNL     1      -9.809  11.296  64.451  1.00  0.00    -0.269 C  
BRANCH  19  20
HETATM   20  O   UNL     1     -11.249  11.426  64.758  1.00  0.00    -0.238 OA 
HETATM   21  O   UNL     1     -11.808  13.280  65.846  1.00  0.00    -0.355 OA 
HETATM   22  O   UNL     1     -13.325  12.166  64.298  1.00  0.00    -0.761 OA 
HETATM   23  P   UNL     1     -11.890  12.950  64.248  1.00  0.00    -0.467 P  
HETATM   24  O   UNL     1     -12.464  14.313  63.792  1.00  0.00    -0.810 OA 
ENDBRANCH  19  20
ENDBRANCH  18  19
ENDBRANCH   3  18
BRANCH   3  25
HETATM   25  S   UNL     1     -10.268   8.604  66.803  1.00  0.00    -0.267 SA 
BRANCH  25  26
HETATM   26  C   UNL     1      -9.248   7.364  67.642  1.00  0.00    -0.127 C  
HETATM   27  O   UNL     1      -8.238   6.915  67.111  1.00  0.00    -0.115 OA 
BRANCH  26  28
HETATM   28  C   UNL     1      -9.693   6.786  69.005  1.00  0.00    -0.145 A  
HETATM   29  C   UNL     1     -11.557   6.373  70.602  1.00  0.00    -0.412 A  
HETATM   30  C   UNL     1     -11.057   6.898  69.390  1.00  0.00    -0.249 A  
HETATM   31  C   UNL     1      -8.880   6.081  69.897  1.00  0.00    -0.138 A  
HETATM   32  C   UNL     1     -10.705   5.692  71.463  1.00  0.00    -0.306 A  
HETATM   33  C   UNL     1      -9.365   5.542  71.102  1.00  0.00    -0.181 A  
ENDBRANCH  26  28
ENDBRANCH  25  26
ENDBRANCH   3  25
TORSDOF 9
ENDMDL
MODEL       45
REMARK 921   NORMALIZED FREE ENERGY PREDICTED BY IDOCK:   -6.34 KCAL/MOL
REMARK 922        TOTAL FREE ENERGY PREDICTED BY IDOCK:  -11.18 KCAL/MOL
REMARK 923 INTER-LIGAND FREE ENERGY PREDICTED BY IDOCK:  -10.48 KCAL/MOL
REMARK 924 INTRA-LIGAND FREE ENERGY PREDICTED BY IDOCK:   -0.70 KCAL/MOL
REMARK 927      BINDING AFFINITY PREDICTED BY RF-SCORE:    0.00 PKD
ROOT
HETATM    1  C   UNL     1      -9.244  15.479  67.291  1.00  0.00    -0.219 C  
HETATM    2  C   UNL     1     -10.570  14.717  67.459  1.00  0.00    -0.259 C  
HETATM    3  C   UNL     1     -11.002  14.415  68.721  1.00  0.00    -0.250 C  
ENDROOT
BRANCH   2   4
HETATM    4  N   UNL     1     -11.224  14.465  66.238  1.00  0.00    -0.332 N  
HETATM    5  C   UNL     1     -12.603  14.200  66.196  1.00  0.00    -0.321 C  
HETATM    6  O   UNL     1     -13.207  13.694  65.261  1.00  0.00    -0.724 OA 
BRANCH   4   7
HETATM    7  C   UNL     1     -10.457  13.953  65.082  1.00  0.00    -0.393 C  
BRANCH   7   8
HETATM    8  C   UNL     1     -10.065  12.490  65.193  1.00  0.00    -0.266 A  
HETATM    9  H2  UNL     1     -12.021  12.834  63.540  1.00  0.00     0.000 HD 
HETATM   10  C   UNL     1      -9.265  11.875  66.090  1.00  0.00    -0.199 A  
HETATM   11  N   UNL     1     -10.031  10.312  64.092  1.00  0.00    -0.273 NA 
HETATM   12  N   UNL     1      -8.661  10.638  65.960  1.00  0.00    -0.171 NA 
HETATM   13  H1  UNL     1     -11.985  11.262  62.732  1.00  0.00     0.000 HD 
HETATM   14  C   UNL     1      -8.201   8.707  64.585  1.00  0.00    -0.167 C  
HETATM   15  N   UNL     1     -11.610  11.906  63.429  1.00  0.00    -0.414 NA 
HETATM   16  C   UNL     1      -9.014   9.928  64.929  1.00  0.00    -0.207 A  
HETATM   17  C   UNL     1     -10.614  11.546  64.172  1.00  0.00    -0.363 A  
ENDBRANCH   7   8
ENDBRANCH   4   7
ENDBRANCH   2   4
BRANCH   3  18
HETATM   18  C   UNL     1     -10.341  15.139  69.976  1.00  0.00    -0.180 C  
BRANCH  18  19
HETATM   19  C   UNL     1     -11.199  16.253  70.691  1.00  0.00    -0.288 C  
BRANCH  19  20
HETATM   20  O   UNL     1     -12.529  15.834  71.180  1.00  0.00    -0.423 OA 
HETATM   21  O   UNL     1     -12.515  14.060  72.516  1.00  0.00    -0.160 OA 
HETATM   22  O   UNL     1     -14.179  15.829  72.712  1.00  0.00    -0.539 OA 
HETATM   23  P   UNL     1     -12.564  15.647  72.899  1.00  0.00    -0.571 P  
HETATM   24  O   UNL     1     -12.596  15.480  74.438  1.00  0.00    -0.583 OA 
ENDBRANCH  19  20
ENDBRANCH  18  19
ENDBRANCH   3  18
BRANCH   3  25
HETATM   25  S   UNL     1     -12.339  13.243  69.134  1.00  0.00     0.193 SA 
BRANCH  25  26
HETATM   26  C   UNL     1     -11.902  11.516  68.804  1.00  0.00    -0.330 C  
HETATM   27  O   UNL     1     -11.914  11.070  67.662  1.00  0.00    -0.583 OA 
BRANCH  26  28
HETATM   28  C   UNL     1     -11.599  10.554  69.976  1.00  0.00    -0.392 A  
HETATM   29  C   UNL     1     -12.475   9.288  71.933  1.00  0.00    -0.457 A  
HETATM   30  C   UNL     1     -12.653  10.184  70.855  1.00  0.00    -0.454 A  
HETATM   31  C   UNL     1     -10.372   9.937  70.228  1.00  0.00    -0.339 A  
HETATM   32  C   UNL     1     -11.229   8.712  72.151  1.00  0.00    -0.438 A  
HETATM   33  C   UNL     1     -10.180   9.034  71.290  1.00  0.00    -0.384 A  
ENDBRANCH  26  28
ENDBRANCH  25  26
ENDBRANCH   3  25
TORSDOF 9
ENDMDL
MODEL       46
REMARK 921   NORMALIZED FREE ENERGY PREDICTED BY IDOCK:   -6.33 KCAL/MOL
REMARK 922        TOTAL FREE ENERGY PREDICTED BY IDOCK:  -11.17 KCAL/MOL
REMARK 923 INTER-LIGAND FREE ENERGY PREDICTED BY IDOCK:  -10.22 KCAL/MOL
REMARK 924 INTRA-LIGAND FREE ENERGY PREDICTED BY IDOCK:   -0.95 KCAL/MOL
REMARK 927      BINDING AFFINITY PREDICTED BY RF-SCORE:    0.00 PKD
ROOT
HETATM    1  C   UNL     1      -7.920  16.237  66.207  1.00  0.00    -0.208 C  
HETATM    2  C   UNL     1      -9.434  16.061  66.407  1.00  0.00    -0.293 C  
HETATM    3  C   UNL     1      -9.958  16.232  67.658  1.00  0.00    -0.247 C  
ENDROOT
BRANCH   2   4
HETATM    4  N   UNL     1     -10.125  15.787  65.210  1.00  0.00    -0.290 N  
HETATM    5  C   UNL     1     -11.127  16.650  64.738  1.00  0.00    -0.110 C  
HETATM    6  O   UNL     1     -11.969  16.377  63.896  1.00  0.00    -1.023 OA 
BRANCH   4   7
HETATM    7  C   UNL     1     -10.216  14.397  64.713  1.00  0.00    -0.224 C  
BRANCH   7   8
HETATM    8  C   UNL     1     -10.411  13.358  65.802  1.00  0.00    -0.291 A  
HETATM    9  H2  UNL     1     -12.663  14.336  64.998  1.00  0.00     0.000 HD 
HETATM   10  C   UNL     1      -9.506  12.787  66.626  1.00  0.00    -0.249 A  
HETATM   11  N   UNL     1     -11.923  11.713  66.787  1.00  0.00    -0.457 NA 
HETATM   12  N   UNL     1      -9.654  11.618  67.348  1.00  0.00    -0.166 NA 
HETATM   13  H1  UNL     1     -13.756  13.135  65.698  1.00  0.00     0.000 HD 
HETATM   14  C   UNL     1     -10.999   9.683  67.878  1.00  0.00    -0.205 C  
HETATM   15  N   UNL     1     -12.810  13.485  65.541  1.00  0.00    -0.591 NA 
HETATM   16  C   UNL     1     -10.841  11.085  67.347  1.00  0.00    -0.274 A  
HETATM   17  C   UNL     1     -11.797  12.847  66.032  1.00  0.00    -0.430 A  
ENDBRANCH   7   8
ENDBRANCH   4   7
ENDBRANCH   2   4
BRANCH   3  18
HETATM   18  C   UNL     1      -9.088  16.937  68.790  1.00  0.00    -0.254 C  
BRANCH  18  19
HETATM   19  C   UNL     1      -7.826  16.149  69.315  1.00  0.00    -0.203 C  
BRANCH  19  20
HETATM   20  O   UNL     1      -6.679  16.975  69.745  1.00  0.00    -0.155 OA 
HETATM   21  O   UNL     1      -5.437  17.782  68.090  1.00  0.00    -0.146 OA 
HETATM   22  O   UNL     1      -5.711  18.954  70.209  1.00  0.00    -0.240 OA 
HETATM   23  P   UNL     1      -6.635  18.503  68.936  1.00  0.00    -0.268 P  
HETATM   24  O   UNL     1      -6.595  19.871  68.212  1.00  0.00    -0.257 OA 
ENDBRANCH  19  20
ENDBRANCH  18  19
ENDBRANCH   3  18
BRANCH   3  25
HETATM   25  S   UNL     1     -11.638  15.744  68.182  1.00  0.00    -0.164 SA 
BRANCH  25  26
HETATM   26  C   UNL     1     -11.817  15.617  69.981  1.00  0.00    -0.367 C  
HETATM   27  O   UNL     1     -11.532  16.560  70.710  1.00  0.00    -0.302 OA 
BRANCH  26  28
HETATM   28  C   UNL     1     -12.245  14.279  70.626  1.00  0.00    -0.427 A  
HETATM   29  C   UNL     1     -13.577  13.128  72.386  1.00  0.00    -0.667 A  
HETATM   30  C   UNL     1     -13.111  14.301  71.753  1.00  0.00    -0.435 A  
HETATM   31  C   UNL     1     -11.913  13.005  70.158  1.00  0.00    -0.374 A  
HETATM   32  C   UNL     1     -13.206  11.884  71.891  1.00  0.00    -0.467 A  
HETATM   33  C   UNL     1     -12.377  11.826  70.770  1.00  0.00    -0.433 A  
ENDBRANCH  26  28
ENDBRANCH  25  26
ENDBRANCH   3  25
TORSDOF 9
ENDMDL
MODEL       47
REMARK 921   NORMALIZED FREE ENERGY PREDICTED BY IDOCK:   -6.32 KCAL/MOL
REMARK 922        TOTAL FREE ENERGY PREDICTED BY IDOCK:  -11.16 KCAL/MOL
REMARK 923 INTER-LIGAND FREE ENERGY PREDICTED BY IDOCK:   -9.61 KCAL/MOL
REMARK 924 INTRA-LIGAND FREE ENERGY PREDICTED BY IDOCK:   -1.55 KCAL/MOL
REMARK 927      BINDING AFFINITY PREDICTED BY RF-SCORE:    0.00 PKD
ROOT
HETATM    1  C   UNL     1     -10.376  15.212  65.739  1.00  0.00    -0.359 C  
HETATM    2  C   UNL     1      -9.903  14.250  66.842  1.00  0.00    -0.263 C  
HETATM    3  C   UNL     1     -10.601  13.093  67.052  1.00  0.00    -0.258 C  
ENDROOT
BRANCH   2   4
HETATM    4  N   UNL     1      -8.726  14.679  67.486  1.00  0.00    -0.175 N  
HETATM    5  C   UNL     1      -7.490  14.068  67.220  1.00  0.00    -0.029 C  
HETATM    6  O   UNL     1      -6.485  14.154  67.909  1.00  0.00    -0.136 OA 
BRANCH   4   7
HETATM    7  C   UNL     1      -8.810  15.370  68.791  1.00  0.00    -0.196 C  
BRANCH   7   8
HETATM    8  C   UNL     1      -9.155  16.845  68.693  1.00  0.00    -0.265 A  
HETATM    9  H2  UNL     1      -6.683  16.483  69.350  1.00  0.00     0.000 HD 
HETATM   10  C   UNL     1     -10.360  17.447  68.599  1.00  0.00    -0.364 A  
HETATM   11  N   UNL     1      -8.313  19.102  68.296  1.00  0.00    -0.322 NA 
HETATM   12  N   UNL     1     -10.620  18.734  68.167  1.00  0.00    -0.302 NA 
HETATM   13  H1  UNL     1      -6.071  18.114  69.047  1.00  0.00     0.000 HD 
HETATM   14  C   UNL     1      -9.784  20.801  67.238  1.00  0.00    -0.487 C  
HETATM   15  N   UNL     1      -6.842  17.446  69.053  1.00  0.00    -0.238 NA 
HETATM   16  C   UNL     1      -9.585  19.496  67.964  1.00  0.00    -0.359 A  
HETATM   17  C   UNL     1      -8.024  17.823  68.684  1.00  0.00    -0.276 A  
ENDBRANCH   7   8
ENDBRANCH   4   7
ENDBRANCH   2   4
BRANCH   3  18
HETATM   18  C   UNL     1     -11.646  12.592  65.960  1.00  0.00    -0.456 C  
BRANCH  18  19
HETATM   19  C   UNL     1     -11.053  12.014  64.617  1.00  0.00    -0.322 C  
BRANCH  19  20
HETATM   20  O   UNL     1     -10.636  10.597  64.649  1.00  0.00    -0.296 OA 
HETATM   21  O   UNL     1      -9.510   9.914  62.861  1.00  0.00    -0.276 OA 
HETATM   22  O   UNL     1      -9.141   8.969  65.076  1.00  0.00    -0.197 OA 
HETATM   23  P   UNL     1      -8.950  10.404  64.315  1.00  0.00    -0.253 P  
HETATM   24  O   UNL     1      -7.441  10.231  64.016  1.00  0.00    -0.137 OA 
ENDBRANCH  19  20
ENDBRANCH  18  19
ENDBRANCH   3  18
BRANCH   3  25
HETATM   25  S   UNL     1     -10.429  11.997  68.502  1.00  0.00    -0.221 SA 
BRANCH  25  26
HETATM   26  C   UNL     1     -11.952  11.853  69.474  1.00  0.00    -0.292 C  
HETATM   27  O   UNL     1     -12.687  10.880  69.353  1.00  0.00    -0.284 OA 
BRANCH  26  28
HETATM   28  C   UNL     1     -12.391  13.008  70.403  1.00  0.00    -0.351 A  
HETATM   29  C   UNL     1     -12.578  15.466  70.753  1.00  0.00    -0.497 A  
HETATM   30  C   UNL     1     -12.182  14.351  69.983  1.00  0.00    -0.408 A  
HETATM   31  C   UNL     1     -13.057  12.866  71.623  1.00  0.00    -0.430 A  
HETATM   32  C   UNL     1     -13.225  15.271  71.967  1.00  0.00    -0.499 A  
HETATM   33  C   UNL     1     -13.469  13.966  72.396  1.00  0.00    -0.661 A  
ENDBRANCH  26  28
ENDBRANCH  25  26
ENDBRANCH   3  25
TORSDOF 9
ENDMDL
MODEL       48
REMARK 921   NORMALIZED FREE ENERGY PREDICTED BY IDOCK:   -6.32 KCAL/MOL
REMARK 922        TOTAL FREE ENERGY PREDICTED BY IDOCK:  -11.15 KCAL/MOL
REMARK 923 INTER-LIGAND FREE ENERGY PREDICTED BY IDOCK:   -9.23 KCAL/MOL
REMARK 924 INTRA-LIGAND FREE ENERGY PREDICTED BY IDOCK:   -1.93 KCAL/MOL
REMARK 927      BINDING AFFINITY PREDICTED BY RF-SCORE:    0.00 PKD
ROOT
HETATM    1  C   UNL     1     -12.400  13.784  70.483  1.00  0.00    -0.429 C  
HETATM    2  C   UNL     1     -11.437  13.414  69.343  1.00  0.00    -0.274 C  
HETATM    3  C   UNL     1     -11.257  12.094  69.034  1.00  0.00    -0.260 C  
ENDROOT
BRANCH   2   4
HETATM    4  N   UNL     1     -10.881  14.536  68.699  1.00  0.00    -0.243 N  
HETATM    5  C   UNL     1      -9.896  15.316  69.327  1.00  0.00    -0.255 C  
HETATM    6  O   UNL     1      -9.560  16.445  69.000  1.00  0.00    -0.249 OA 
BRANCH   4   7
HETATM    7  C   UNL     1     -11.641  15.230  67.637  1.00  0.00    -0.239 C  
BRANCH   7   8
HETATM    8  C   UNL     1     -11.749  14.450  66.339  1.00  0.00    -0.397 A  
HETATM    9  H2  UNL     1      -9.686  16.006  66.352  1.00  0.00     0.000 HD 
HETATM   10  C   UNL     1     -12.774  13.719  65.853  1.00  0.00    -0.401 A  
HETATM   11  N   UNL     1     -10.549  13.520  64.427  1.00  0.00    -0.419 NA 
HETATM   12  N   UNL     1     -12.718  12.757  64.860  1.00  0.00    -0.748 NA 
HETATM   13  H1  UNL     1      -8.810  15.321  64.977  1.00  0.00     0.000 HD 
HETATM   14  C   UNL     1     -11.376  11.447  63.340  1.00  0.00    -0.190 C  
HETATM   15  N   UNL     1      -9.620  15.321  65.598  1.00  0.00    -0.324 NA 
HETATM   16  C   UNL     1     -11.586  12.645  64.229  1.00  0.00    -0.374 A  
HETATM   17  C   UNL     1     -10.563  14.451  65.429  1.00  0.00    -0.365 A  
ENDBRANCH   7   8
ENDBRANCH   4   7
ENDBRANCH   2   4
BRANCH   3  18
HETATM   18  C   UNL     1     -12.277  11.006  69.592  1.00  0.00    -0.370 C  
BRANCH  18  19
HETATM   19  C   UNL     1     -11.847  10.228  70.897  1.00  0.00    -0.377 C  
BRANCH  19  20
HETATM   20  O   UNL     1     -12.000   8.759  70.856  1.00  0.00    -0.279 OA 
HETATM   21  O   UNL     1     -10.148   7.616  71.296  1.00  0.00    -0.186 OA 
HETATM   22  O   UNL     1     -12.366   6.766  71.836  1.00  0.00    -0.339 OA 
HETATM   23  P   UNL     1     -11.390   7.999  72.285  1.00  0.00    -0.401 P  
HETATM   24  O   UNL     1     -10.845   7.319  73.564  1.00  0.00    -0.375 OA 
ENDBRANCH  19  20
ENDBRANCH  18  19
ENDBRANCH   3  18
BRANCH   3  25
HETATM   25  S   UNL     1      -9.932  11.423  67.974  1.00  0.00    -0.188 SA 
BRANCH  25  26
HETATM   26  C   UNL     1      -9.162   9.929  68.652  1.00  0.00    -0.139 C  
HETATM   27  O   UNL     1      -8.399   9.992  69.609  1.00  0.00    -0.156 OA 
BRANCH  26  28
HETATM   28  C   UNL     1      -9.387   8.561  67.967  1.00  0.00    -0.147 A  
HETATM   29  C   UNL     1      -8.377   6.463  67.085  1.00  0.00    -0.112 A  
HETATM   30  C   UNL     1      -8.263   7.739  67.680  1.00  0.00    -0.125 A  
HETATM   31  C   UNL     1     -10.628   8.000  67.653  1.00  0.00    -0.264 A  
HETATM   32  C   UNL     1      -9.633   5.956  66.778  1.00  0.00    -0.165 A  
HETATM   33  C   UNL     1     -10.759   6.726  67.071  1.00  0.00    -0.435 A  
ENDBRANCH  26  28
ENDBRANCH  25  26
ENDBRANCH   3  25
TORSDOF 9
ENDMDL
MODEL       49
REMARK 921   NORMALIZED FREE ENERGY PREDICTED BY IDOCK:   -6.30 KCAL/MOL
REMARK 922        TOTAL FREE ENERGY PREDICTED BY IDOCK:  -11.13 KCAL/MOL
REMARK 923 INTER-LIGAND FREE ENERGY PREDICTED BY IDOCK:   -9.63 KCAL/MOL
REMARK 924 INTRA-LIGAND FREE ENERGY PREDICTED BY IDOCK:   -1.50 KCAL/MOL
REMARK 927      BINDING AFFINITY PREDICTED BY RF-SCORE:    0.00 PKD
ROOT
HETATM    1  C   UNL     1     -12.067  12.672  67.610  1.00  0.00    -0.166 C  
HETATM    2  C   UNL     1     -11.126  13.319  66.579  1.00  0.00    -0.294 C  
HETATM    3  C   UNL     1     -10.322  14.351  66.977  1.00  0.00    -0.263 C  
ENDROOT
BRANCH   2   4
HETATM    4  N   UNL     1     -11.177  12.700  65.315  1.00  0.00    -0.292 N  
HETATM    5  C   UNL     1     -11.949  13.241  64.275  1.00  0.00    -0.421 C  
HETATM    6  O   UNL     1     -12.294  12.656  63.259  1.00  0.00    -0.596 OA 
BRANCH   4   7
HETATM    7  C   UNL     1     -10.889  11.255  65.189  1.00  0.00    -0.200 C  
BRANCH   7   8
HETATM    8  C   UNL     1      -9.504  10.942  64.651  1.00  0.00    -0.285 A  
HETATM    9  H2  UNL     1      -9.468  11.360  67.201  1.00  0.00     0.000 HD 
HETATM   10  C   UNL     1      -9.064  10.885  63.376  1.00  0.00    -0.224 A  
HETATM   11  N   UNL     1      -7.284  10.062  65.158  1.00  0.00    -0.133 NA 
HETATM   12  N   UNL     1      -7.915  10.268  62.915  1.00  0.00    -0.147 NA 
HETATM   13  H1  UNL     1      -7.867  10.708  67.569  1.00  0.00     0.000 HD 
HETATM   14  C   UNL     1      -5.981   8.903  63.391  1.00  0.00    -0.084 C  
HETATM   15  N   UNL     1      -8.601  10.920  66.893  1.00  0.00    -0.133 NA 
HETATM   16  C   UNL     1      -7.098   9.817  63.822  1.00  0.00    -0.121 A  
HETATM   17  C   UNL     1      -8.429  10.631  65.643  1.00  0.00    -0.178 A  
ENDBRANCH   7   8
ENDBRANCH   4   7
ENDBRANCH   2   4
BRANCH   3  18
HETATM   18  C   UNL     1     -10.108  14.634  68.529  1.00  0.00    -0.238 C  
BRANCH  18  19
HETATM   19  C   UNL     1     -10.862  15.879  69.139  1.00  0.00    -0.268 C  
BRANCH  19  20
HETATM   20  O   UNL     1     -12.212  15.618  69.679  1.00  0.00    -0.352 OA 
HETATM   21  O   UNL     1     -12.369  13.818  70.971  1.00  0.00    -0.355 OA 
HETATM   22  O   UNL     1     -13.780  15.779  71.288  1.00  0.00    -0.560 OA 
HETATM   23  P   UNL     1     -12.195  15.386  71.394  1.00  0.00    -0.470 P  
HETATM   24  O   UNL     1     -12.181  15.179  72.928  1.00  0.00    -0.358 OA 
ENDBRANCH  19  20
ENDBRANCH  18  19
ENDBRANCH   3  18
BRANCH   3  25
HETATM   25  S   UNL     1      -9.401  15.469  65.865  1.00  0.00    -0.256 SA 
BRANCH  25  26
HETATM   26  C   UNL     1     -10.272  17.023  65.533  1.00  0.00    -0.089 C  
HETATM   27  O   UNL     1     -11.154  17.083  64.684  1.00  0.00    -0.997 OA 
BRANCH  26  28
HETATM   28  C   UNL     1      -9.844  18.321  66.256  1.00  0.00    -0.323 A  
HETATM   29  C   UNL     1     -10.467  20.158  67.817  1.00  0.00    -0.397 A  
HETATM   30  C   UNL     1     -10.780  18.985  67.095  1.00  0.00    -0.541 A  
HETATM   31  C   UNL     1      -8.569  18.892  66.222  1.00  0.00    -0.267 A  
HETATM   32  C   UNL     1      -9.188  20.694  67.739  1.00  0.00    -0.247 A  
HETATM   33  C   UNL     1      -8.237  20.053  66.944  1.00  0.00    -0.368 A  
ENDBRANCH  26  28
ENDBRANCH  25  26
ENDBRANCH   3  25
TORSDOF 9
ENDMDL
MODEL       50
REMARK 921   NORMALIZED FREE ENERGY PREDICTED BY IDOCK:   -6.30 KCAL/MOL
REMARK 922        TOTAL FREE ENERGY PREDICTED BY IDOCK:  -11.13 KCAL/MOL
REMARK 923 INTER-LIGAND FREE ENERGY PREDICTED BY IDOCK:   -9.37 KCAL/MOL
REMARK 924 INTRA-LIGAND FREE ENERGY PREDICTED BY IDOCK:   -1.76 KCAL/MOL
REMARK 927      BINDING AFFINITY PREDICTED BY RF-SCORE:    0.00 PKD
ROOT
HETATM    1  C   UNL     1      -7.036  13.687  68.879  1.00  0.00    -0.110 C  
HETATM    2  C   UNL     1      -8.505  13.447  68.494  1.00  0.00    -0.079 C  
HETATM    3  C   UNL     1      -9.387  14.488  68.580  1.00  0.00    -0.203 C  
ENDROOT
BRANCH   2   4
HETATM    4  N   UNL     1      -8.752  12.141  68.030  1.00  0.00    -0.173 N  
HETATM    5  C   UNL     1      -8.970  11.083  68.927  1.00  0.00    -0.115 C  
HETATM    6  O   UNL     1      -8.906   9.892  68.660  1.00  0.00    -0.122 OA 
BRANCH   4   7
HETATM    7  C   UNL     1      -8.280  11.732  66.690  1.00  0.00    -0.117 C  
BRANCH   7   8
HETATM    8  C   UNL     1      -9.294  11.946  65.581  1.00  0.00    -0.125 A  
HETATM    9  H2  UNL     1      -8.398   9.523  65.603  1.00  0.00     0.000 HD 
HETATM   10  C   UNL     1      -9.817  13.093  65.097  1.00  0.00    -0.054 A  
HETATM   11  N   UNL     1     -10.951  10.906  64.121  1.00  0.00    -0.076 NA 
HETATM   12  N   UNL     1     -10.971  13.234  64.347  1.00  0.00    -0.376 NA 
HETATM   13  H1  UNL     1      -9.608   8.767  64.559  1.00  0.00     0.000 HD 
HETATM   14  C   UNL     1     -12.925  12.210  63.366  1.00  0.00    -0.258 C  
HETATM   15  N   UNL     1      -9.238   9.594  65.028  1.00  0.00    -0.239 NA 
HETATM   16  C   UNL     1     -11.535  12.134  63.943  1.00  0.00    -0.440 A  
HETATM   17  C   UNL     1      -9.835  10.734  64.893  1.00  0.00    -0.292 A  
ENDBRANCH   7   8
ENDBRANCH   4   7
ENDBRANCH   2   4
BRANCH   3  18
HETATM   18  C   UNL     1      -8.841  15.977  68.728  1.00  0.00    -0.227 C  
BRANCH  18  19
HETATM   19  C   UNL     1      -9.913  17.135  68.710  1.00  0.00    -0.315 C  
BRANCH  19  20
HETATM   20  O   UNL     1      -9.715  18.186  67.690  1.00  0.00    -0.279 OA 
HETATM   21  O   UNL     1      -8.930  17.460  65.743  1.00  0.00    -0.521 OA 
HETATM   22  O   UNL     1     -10.397  19.397  65.919  1.00  0.00    -0.465 OA 
HETATM   23  P   UNL     1     -10.469  17.785  66.185  1.00  0.00    -0.089 P  
HETATM   24  O   UNL     1     -11.143  17.427  64.839  1.00  0.00    -0.849 OA 
ENDBRANCH  19  20
ENDBRANCH  18  19
ENDBRANCH   3  18
BRANCH   3  25
HETATM   25  S   UNL     1     -11.206  14.348  68.506  1.00  0.00    -0.281 SA 
BRANCH  25  26
HETATM   26  C   UNL     1     -11.919  13.525  69.955  1.00  0.00    -0.348 C  
HETATM   27  O   UNL     1     -12.060  12.308  69.982  1.00  0.00    -0.314 OA 
BRANCH  26  28
HETATM   28  C   UNL     1     -12.446  14.363  71.142  1.00  0.00    -0.429 A  
HETATM   29  C   UNL     1     -12.070  16.273  72.695  1.00  0.00    -0.628 A  
HETATM   30  C   UNL     1     -11.655  15.437  71.635  1.00  0.00    -0.492 A  
HETATM   31  C   UNL     1     -13.692  14.214  71.757  1.00  0.00    -0.492 A  
HETATM   32  C   UNL     1     -13.313  16.073  73.283  1.00  0.00    -0.625 A  
HETATM   33  C   UNL     1     -14.126  15.045  72.805  1.00  0.00    -0.235 A  
ENDBRANCH  26  28
ENDBRANCH  25  26
ENDBRANCH   3  25
TORSDOF 9
ENDMDL
MODEL       51
REMARK 921   NORMALIZED FREE ENERGY PREDICTED BY IDOCK:   -6.28 KCAL/MOL
REMARK 922        TOTAL FREE ENERGY PREDICTED BY IDOCK:  -11.10 KCAL/MOL
REMARK 923 INTER-LIGAND FREE ENERGY PREDICTED BY IDOCK:   -9.48 KCAL/MOL
REMARK 924 INTRA-LIGAND FREE ENERGY PREDICTED BY IDOCK:   -1.62 KCAL/MOL
REMARK 927      BINDING AFFINITY PREDICTED BY RF-SCORE:    0.00 PKD
ROOT
HETATM    1  C   UNL     1      -9.427  14.449  65.776  1.00  0.00    -0.130 C  
HETATM    2  C   UNL     1     -10.073  13.227  66.449  1.00  0.00    -0.290 C  
HETATM    3  C   UNL     1      -9.270  12.334  67.103  1.00  0.00    -0.196 C  
ENDROOT
BRANCH   2   4
HETATM    4  N   UNL     1     -11.477  13.213  66.345  1.00  0.00    -0.320 N  
HETATM    5  C   UNL     1     -12.120  12.528  65.300  1.00  0.00    -0.444 C  
HETATM    6  O   UNL     1     -13.280  12.683  64.949  1.00  0.00    -0.819 OA 
BRANCH   4   7
HETATM    7  C   UNL     1     -12.273  14.296  66.961  1.00  0.00    -0.303 C  
BRANCH   7   8
HETATM    8  C   UNL     1     -11.948  14.555  68.420  1.00  0.00    -0.309 A  
HETATM    9  H2  UNL     1     -11.005  16.409  66.888  1.00  0.00     0.000 HD 
HETATM   10  C   UNL     1     -12.059  13.737  69.489  1.00  0.00    -0.334 A  
HETATM   11  N   UNL     1     -11.429  16.234  70.115  1.00  0.00    -0.288 NA 
HETATM   12  N   UNL     1     -12.088  14.104  70.822  1.00  0.00    -0.340 NA 
HETATM   13  H1  UNL     1     -10.644  17.630  68.114  1.00  0.00     0.000 HD 
HETATM   14  C   UNL     1     -12.125  15.868  72.470  1.00  0.00    -0.611 C  
HETATM   15  N   UNL     1     -10.996  16.705  67.864  1.00  0.00    -0.318 NA 
HETATM   16  C   UNL     1     -11.840  15.354  71.083  1.00  0.00    -0.371 A  
HETATM   17  C   UNL     1     -11.432  15.909  68.787  1.00  0.00    -0.393 A  
ENDBRANCH   7   8
ENDBRANCH   4   7
ENDBRANCH   2   4
BRANCH   3  18
HETATM   18  C   UNL     1      -7.771  12.733  67.461  1.00  0.00    -0.168 C  
BRANCH  18  19
HETATM   19  C   UNL     1      -7.565  13.700  68.691  1.00  0.00    -0.115 C  
BRANCH  19  20
HETATM   20  O   UNL     1      -6.440  14.651  68.586  1.00  0.00    -0.080 OA 
HETATM   21  O   UNL     1      -6.785  16.357  67.205  1.00  0.00    -0.151 OA 
HETATM   22  O   UNL     1      -5.365  16.540  69.176  1.00  0.00    -0.124 OA 
HETATM   23  P   UNL     1      -6.943  16.289  68.829  1.00  0.00    -0.183 P  
HETATM   24  O   UNL     1      -7.394  17.754  69.048  1.00  0.00    -0.249 OA 
ENDBRANCH  19  20
ENDBRANCH  18  19
ENDBRANCH   3  18
BRANCH   3  25
HETATM   25  S   UNL     1      -9.770  10.669  67.663  1.00  0.00    -0.167 SA 
BRANCH  25  26
HETATM   26  C   UNL     1      -9.308  10.325  69.381  1.00  0.00    -0.199 C  
HETATM   27  O   UNL     1      -8.150  10.457  69.761  1.00  0.00    -0.146 OA 
BRANCH  26  28
HETATM   28  C   UNL     1     -10.357   9.767  70.370  1.00  0.00    -0.354 A  
HETATM   29  C   UNL     1     -12.630   9.984  71.363  1.00  0.00    -0.518 A  
HETATM   30  C   UNL     1     -11.603  10.439  70.507  1.00  0.00    -0.433 A  
HETATM   31  C   UNL     1     -10.232   8.592  71.116  1.00  0.00    -0.294 A  
HETATM   32  C   UNL     1     -12.450   8.817  72.096  1.00  0.00    -0.460 A  
HETATM   33  C   UNL     1     -11.250   8.119  71.964  1.00  0.00    -0.372 A  
ENDBRANCH  26  28
ENDBRANCH  25  26
ENDBRANCH   3  25
TORSDOF 9
ENDMDL
MODEL       52
REMARK 921   NORMALIZED FREE ENERGY PREDICTED BY IDOCK:   -6.28 KCAL/MOL
REMARK 922        TOTAL FREE ENERGY PREDICTED BY IDOCK:  -11.09 KCAL/MOL
REMARK 923 INTER-LIGAND FREE ENERGY PREDICTED BY IDOCK:   -9.99 KCAL/MOL
REMARK 924 INTRA-LIGAND FREE ENERGY PREDICTED BY IDOCK:   -1.10 KCAL/MOL
REMARK 927      BINDING AFFINITY PREDICTED BY RF-SCORE:    0.00 PKD
ROOT
HETATM    1  C   UNL     1      -7.795  12.424  67.442  1.00  0.00    -0.174 C  
HETATM    2  C   UNL     1      -9.325  12.537  67.344  1.00  0.00    -0.187 C  
HETATM    3  C   UNL     1      -9.947  13.605  67.929  1.00  0.00    -0.244 C  
ENDROOT
BRANCH   2   4
HETATM    4  N   UNL     1      -9.910  11.507  66.583  1.00  0.00    -0.199 N  
HETATM    5  C   UNL     1      -9.890  11.542  65.179  1.00  0.00    -0.257 C  
HETATM    6  O   UNL     1     -10.596  10.877  64.435  1.00  0.00    -0.360 OA 
BRANCH   4   7
HETATM    7  C   UNL     1     -10.984  10.675  67.169  1.00  0.00    -0.247 C  
BRANCH   7   8
HETATM    8  C   UNL     1     -10.536   9.287  67.589  1.00  0.00    -0.325 A  
HETATM    9  H2  UNL     1      -9.996  11.053  69.395  1.00  0.00     0.000 HD 
HETATM   10  C   UNL     1     -10.431   8.155  66.861  1.00  0.00    -0.309 A  
HETATM   11  N   UNL     1     -10.044   7.794  69.457  1.00  0.00    -0.189 NA 
HETATM   12  N   UNL     1     -10.360   6.858  67.337  1.00  0.00    -0.202 NA 
HETATM   13  H1  UNL     1      -9.656   9.972  70.752  1.00  0.00     0.000 HD 
HETATM   14  C   UNL     1     -10.432   5.353  69.224  1.00  0.00    -0.309 C  
HETATM   15  N   UNL     1      -9.918  10.110  69.776  1.00  0.00    -0.235 NA 
HETATM   16  C   UNL     1     -10.238   6.722  68.625  1.00  0.00    -0.175 A  
HETATM   17  C   UNL     1     -10.152   9.086  69.020  1.00  0.00    -0.195 A  
ENDBRANCH   7   8
ENDBRANCH   4   7
ENDBRANCH   2   4
BRANCH   3  18
HETATM   18  C   UNL     1      -9.089  14.867  68.383  1.00  0.00    -0.185 C  
BRANCH  18  19
HETATM   19  C   UNL     1      -9.710  16.291  68.102  1.00  0.00    -0.227 C  
BRANCH  19  20
HETATM   20  O   UNL     1      -9.136  17.035  66.962  1.00  0.00    -0.211 OA 
HETATM   21  O   UNL     1     -10.574  17.508  65.337  1.00  0.00    -0.648 OA 
HETATM   22  O   UNL     1      -8.674  18.942  65.857  1.00  0.00    -0.464 OA 
HETATM   23  P   UNL     1     -10.059  18.445  66.572  1.00  0.00    -0.408 P  
HETATM   24  O   UNL     1     -10.885  19.707  66.222  1.00  0.00    -0.430 OA 
ENDBRANCH  19  20
ENDBRANCH  18  19
ENDBRANCH   3  18
BRANCH   3  25
HETATM   25  S   UNL     1     -11.741  13.757  68.228  1.00  0.00    -0.375 SA 
BRANCH  25  26
HETATM   26  C   UNL     1     -12.251  13.132  69.850  1.00  0.00    -0.225 C  
HETATM   27  O   UNL     1     -12.373  11.929  70.053  1.00  0.00    -0.220 OA 
BRANCH  26  28
HETATM   28  C   UNL     1     -12.631  14.120  70.978  1.00  0.00    -0.439 A  
HETATM   29  C   UNL     1     -11.912  15.972  72.477  1.00  0.00    -0.649 A  
HETATM   30  C   UNL     1     -11.645  15.017  71.471  1.00  0.00    -0.409 A  
HETATM   31  C   UNL     1     -13.905  14.274  71.532  1.00  0.00    -0.428 A  
HETATM   32  C   UNL     1     -13.192  16.076  73.007  1.00  0.00    -0.590 A  
HETATM   33  C   UNL     1     -14.190  15.228  72.526  1.00  0.00    -0.477 A  
ENDBRANCH  26  28
ENDBRANCH  25  26
ENDBRANCH   3  25
TORSDOF 9
ENDMDL
MODEL       53
REMARK 921   NORMALIZED FREE ENERGY PREDICTED BY IDOCK:   -6.28 KCAL/MOL
REMARK 922        TOTAL FREE ENERGY PREDICTED BY IDOCK:  -11.09 KCAL/MOL
REMARK 923 INTER-LIGAND FREE ENERGY PREDICTED BY IDOCK:   -9.38 KCAL/MOL
REMARK 924 INTRA-LIGAND FREE ENERGY PREDICTED BY IDOCK:   -1.71 KCAL/MOL
REMARK 927      BINDING AFFINITY PREDICTED BY RF-SCORE:    0.00 PKD
ROOT
HETATM    1  C   UNL     1     -10.310  15.559  65.220  1.00  0.00    -0.416 C  
HETATM    2  C   UNL     1      -9.968  14.691  66.443  1.00  0.00    -0.283 C  
HETATM    3  C   UNL     1      -8.741  14.833  67.030  1.00  0.00    -0.235 C  
ENDROOT
BRANCH   2   4
HETATM    4  N   UNL     1     -11.031  13.863  66.852  1.00  0.00    -0.293 N  
HETATM    5  C   UNL     1     -11.291  12.645  66.203  1.00  0.00    -0.330 C  
HETATM    6  O   UNL     1     -12.328  12.002  66.274  1.00  0.00    -0.432 OA 
BRANCH   4   7
HETATM    7  C   UNL     1     -12.186  14.445  67.569  1.00  0.00    -0.175 C  
BRANCH   7   8
HETATM    8  C   UNL     1     -12.022  14.493  69.077  1.00  0.00    -0.334 A  
HETATM    9  H2  UNL     1     -10.904  16.519  67.928  1.00  0.00     0.000 HD 
HETATM   10  C   UNL     1     -12.256  13.539  70.003  1.00  0.00    -0.312 A  
HETATM   11  N   UNL     1     -11.682  15.911  71.035  1.00  0.00    -0.402 NA 
HETATM   12  N   UNL     1     -12.430  13.719  71.363  1.00  0.00    -0.345 NA 
HETATM   13  H1  UNL     1     -10.673  17.552  69.344  1.00  0.00     0.000 HD 
HETATM   14  C   UNL     1     -12.637  15.241  73.227  1.00  0.00    -0.617 C  
HETATM   15  N   UNL     1     -11.001  16.678  68.931  1.00  0.00    -0.316 NA 
HETATM   16  C   UNL     1     -12.203  14.916  71.821  1.00  0.00    -0.348 A  
HETATM   17  C   UNL     1     -11.541  15.773  69.682  1.00  0.00    -0.358 A  
ENDBRANCH   7   8
ENDBRANCH   4   7
ENDBRANCH   2   4
BRANCH   3  18
HETATM   18  C   UNL     1      -7.841  16.100  66.682  1.00  0.00    -0.288 C  
BRANCH  18  19
HETATM   19  C   UNL     1      -7.402  17.016  67.890  1.00  0.00    -0.169 C  
BRANCH  19  20
HETATM   20  O   UNL     1      -7.393  18.471  67.629  1.00  0.00    -0.214 OA 
HETATM   21  O   UNL     1      -7.602  19.037  65.491  1.00  0.00    -0.460 OA 
HETATM   22  O   UNL     1      -8.428  20.443  67.302  1.00  0.00    -0.340 OA 
HETATM   23  P   UNL     1      -8.738  18.970  66.663  1.00  0.00    -0.322 P  
HETATM   24  O   UNL     1      -9.943  19.417  65.799  1.00  0.00    -0.429 OA 
ENDBRANCH  19  20
ENDBRANCH  18  19
ENDBRANCH   3  18
BRANCH   3  25
HETATM   25  S   UNL     1      -8.008  13.689  68.249  1.00  0.00    -0.156 SA 
BRANCH  25  26
HETATM   26  C   UNL     1      -8.219  11.944  67.809  1.00  0.00    -0.148 C  
HETATM   27  O   UNL     1      -7.942  11.539  66.685  1.00  0.00    -0.158 OA 
BRANCH  26  28
HETATM   28  C   UNL     1      -8.842  10.958  68.823  1.00  0.00    -0.162 A  
HETATM   29  C   UNL     1      -8.465   9.238  70.584  1.00  0.00    -0.258 A  
HETATM   30  C   UNL     1      -7.984  10.144  69.612  1.00  0.00    -0.181 A  
HETATM   31  C   UNL     1     -10.205  10.829  69.103  1.00  0.00    -0.229 A  
HETATM   32  C   UNL     1      -9.831   9.136  70.815  1.00  0.00    -0.334 A  
HETATM   33  C   UNL     1     -10.700   9.940  70.075  1.00  0.00    -0.338 A  
ENDBRANCH  26  28
ENDBRANCH  25  26
ENDBRANCH   3  25
TORSDOF 9
ENDMDL
MODEL       54
REMARK 921   NORMALIZED FREE ENERGY PREDICTED BY IDOCK:   -6.28 KCAL/MOL
REMARK 922        TOTAL FREE ENERGY PREDICTED BY IDOCK:  -11.09 KCAL/MOL
REMARK 923 INTER-LIGAND FREE ENERGY PREDICTED BY IDOCK:   -9.50 KCAL/MOL
REMARK 924 INTRA-LIGAND FREE ENERGY PREDICTED BY IDOCK:   -1.59 KCAL/MOL
REMARK 927      BINDING AFFINITY PREDICTED BY RF-SCORE:    0.00 PKD
ROOT
HETATM    1  C   UNL     1      -7.514  11.177  69.000  1.00  0.00    -0.124 C  
HETATM    2  C   UNL     1      -8.935  10.603  69.124  1.00  0.00    -0.128 C  
HETATM    3  C   UNL     1      -9.988  11.342  68.659  1.00  0.00    -0.202 C  
ENDROOT
BRANCH   2   4
HETATM    4  N   UNL     1      -8.965   9.308  69.677  1.00  0.00    -0.149 N  
HETATM    5  C   UNL     1      -9.275   9.106  71.032  1.00  0.00    -0.252 C  
HETATM    6  O   UNL     1      -9.053   8.090  71.674  1.00  0.00    -0.133 OA 
BRANCH   4   7
HETATM    7  C   UNL     1      -8.188   8.219  69.048  1.00  0.00    -0.119 C  
BRANCH   7   8
HETATM    8  C   UNL     1      -9.011   7.297  68.166  1.00  0.00    -0.132 A  
HETATM    9  H2  UNL     1      -8.164   9.362  66.864  1.00  0.00     0.000 HD 
HETATM   10  C   UNL     1      -9.800   6.255  68.503  1.00  0.00    -0.139 A  
HETATM   11  N   UNL     1      -9.453   6.530  65.891  1.00  0.00     0.047 NA 
HETATM   12  N   UNL     1     -10.246   5.242  67.675  1.00  0.00    -0.183 NA 
HETATM   13  H1  UNL     1      -8.470   8.799  65.216  1.00  0.00     0.000 HD 
HETATM   14  C   UNL     1     -10.207   4.197  65.499  1.00  0.00    -0.173 C  
HETATM   15  N   UNL     1      -8.501   8.642  66.224  1.00  0.00    -0.120 NA 
HETATM   16  C   UNL     1      -9.996   5.381  66.406  1.00  0.00    -0.191 A  
HETATM   17  C   UNL     1      -8.966   7.528  66.690  1.00  0.00    -0.153 A  
ENDBRANCH   7   8
ENDBRANCH   4   7
ENDBRANCH   2   4
BRANCH   3  18
HETATM   18  C   UNL     1      -9.718  12.586  67.703  1.00  0.00    -0.196 C  
BRANCH  18  19
HETATM   19  C   UNL     1     -10.928  13.082  66.819  1.00  0.00    -0.276 C  
BRANCH  19  20
HETATM   20  O   UNL     1     -11.112  12.391  65.526  1.00  0.00    -0.282 OA 
HETATM   21  O   UNL     1     -13.166  12.507  64.689  1.00  0.00    -0.848 OA 
HETATM   22  O   UNL     1     -11.187  12.360  63.276  1.00  0.00    -0.441 OA 
HETATM   23  P   UNL     1     -11.850  13.410  64.339  1.00  0.00    -0.446 P  
HETATM   24  O   UNL     1     -12.511  14.323  63.278  1.00  0.00    -0.705 OA 
ENDBRANCH  19  20
ENDBRANCH  18  19
ENDBRANCH   3  18
BRANCH   3  25
HETATM   25  S   UNL     1     -11.750  11.018  69.009  1.00  0.00    -0.328 SA 
BRANCH  25  26
HETATM   26  C   UNL     1     -12.239  11.469  70.694  1.00  0.00    -0.378 C  
HETATM   27  O   UNL     1     -12.324  10.620  71.575  1.00  0.00    -0.360 OA 
BRANCH  26  28
HETATM   28  C   UNL     1     -12.648  12.924  71.020  1.00  0.00    -0.376 A  
HETATM   29  C   UNL     1     -13.884  14.469  72.531  1.00  0.00    -0.555 A  
HETATM   30  C   UNL     1     -13.486  13.171  72.142  1.00  0.00    -0.653 A  
HETATM   31  C   UNL     1     -12.208  14.066  70.345  1.00  0.00    -0.433 A  
HETATM   32  C   UNL     1     -13.432  15.572  71.817  1.00  0.00    -0.576 A  
HETATM   33  C   UNL     1     -12.586  15.366  70.726  1.00  0.00    -0.497 A  
ENDBRANCH  26  28
ENDBRANCH  25  26
ENDBRANCH   3  25
TORSDOF 9
ENDMDL
MODEL       55
REMARK 921   NORMALIZED FREE ENERGY PREDICTED BY IDOCK:   -6.27 KCAL/MOL
REMARK 922        TOTAL FREE ENERGY PREDICTED BY IDOCK:  -11.08 KCAL/MOL
REMARK 923 INTER-LIGAND FREE ENERGY PREDICTED BY IDOCK:  -10.06 KCAL/MOL
REMARK 924 INTRA-LIGAND FREE ENERGY PREDICTED BY IDOCK:   -1.02 KCAL/MOL
REMARK 927      BINDING AFFINITY PREDICTED BY RF-SCORE:    0.00 PKD
ROOT
HETATM    1  C   UNL     1     -12.154  13.219  68.624  1.00  0.00    -0.257 C  
HETATM    2  C   UNL     1     -11.506  14.243  67.677  1.00  0.00    -0.346 C  
HETATM    3  C   UNL     1     -10.910  15.351  68.211  1.00  0.00    -0.269 C  
ENDROOT
BRANCH   2   4
HETATM    4  N   UNL     1     -11.566  13.862  66.322  1.00  0.00    -0.349 N  
HETATM    5  C   UNL     1     -12.787  13.511  65.722  1.00  0.00    -0.264 C  
HETATM    6  O   UNL     1     -12.919  12.902  64.670  1.00  0.00    -0.734 OA 
BRANCH   4   7
HETATM    7  C   UNL     1     -10.365  13.314  65.656  1.00  0.00    -0.287 C  
BRANCH   7   8
HETATM    8  C   UNL     1     -10.236  11.805  65.747  1.00  0.00    -0.276 A  
HETATM    9  H2  UNL     1     -10.438  12.600  63.298  1.00  0.00     0.000 HD 
HETATM   10  C   UNL     1     -10.331  10.993  66.822  1.00  0.00    -0.238 A  
HETATM   11  N   UNL     1      -9.538   9.758  64.615  1.00  0.00    -0.249 NA 
HETATM   12  N   UNL     1      -9.871   9.693  66.930  1.00  0.00    -0.188 NA 
HETATM   13  H1  UNL     1      -9.918  11.122  62.479  1.00  0.00     0.000 HD 
HETATM   14  C   UNL     1      -8.667   7.848  65.942  1.00  0.00    -0.180 C  
HETATM   15  N   UNL     1     -10.113  11.634  63.340  1.00  0.00    -0.410 NA 
HETATM   16  C   UNL     1      -9.427   9.144  65.837  1.00  0.00    -0.259 A  
HETATM   17  C   UNL     1      -9.949  11.055  64.486  1.00  0.00    -0.310 A  
ENDBRANCH   7   8
ENDBRANCH   4   7
ENDBRANCH   2   4
BRANCH   3  18
HETATM   18  C   UNL     1     -10.584  15.399  69.769  1.00  0.00    -0.304 C  
BRANCH  18  19
HETATM   19  C   UNL     1     -11.619  16.152  70.692  1.00  0.00    -0.321 C  
BRANCH  19  20
HETATM   20  O   UNL     1     -11.714  15.672  72.086  1.00  0.00    -0.407 OA 
HETATM   21  O   UNL     1     -13.654  16.084  73.086  1.00  0.00    -0.589 OA 
HETATM   22  O   UNL     1     -12.292  14.139  73.630  1.00  0.00    -0.146 OA 
HETATM   23  P   UNL     1     -13.133  14.720  72.354  1.00  0.00    -0.457 P  
HETATM   24  O   UNL     1     -14.403  13.868  72.593  1.00  0.00    -0.638 OA 
ENDBRANCH  19  20
ENDBRANCH  18  19
ENDBRANCH   3  18
BRANCH   3  25
HETATM   25  S   UNL     1     -10.395  16.834  67.280  1.00  0.00    -0.295 SA 
BRANCH  25  26
HETATM   26  C   UNL     1      -9.674  18.123  68.329  1.00  0.00    -0.337 C  
HETATM   27  O   UNL     1     -10.357  19.051  68.747  1.00  0.00    -0.332 OA 
BRANCH  26  28
HETATM   28  C   UNL     1      -8.158  18.117  68.634  1.00  0.00    -0.301 A  
HETATM   29  C   UNL     1      -6.088  19.447  69.015  1.00  0.00    -0.278 A  
HETATM   30  C   UNL     1      -7.464  19.355  68.711  1.00  0.00    -0.393 A  
HETATM   31  C   UNL     1      -7.388  16.987  68.920  1.00  0.00    -0.245 A  
HETATM   32  C   UNL     1      -5.362  18.291  69.277  1.00  0.00    -0.196 A  
HETATM   33  C   UNL     1      -6.019  17.061  69.235  1.00  0.00    -0.204 A  
ENDBRANCH  26  28
ENDBRANCH  25  26
ENDBRANCH   3  25
TORSDOF 9
ENDMDL
MODEL       56
REMARK 921   NORMALIZED FREE ENERGY PREDICTED BY IDOCK:   -6.27 KCAL/MOL
REMARK 922        TOTAL FREE ENERGY PREDICTED BY IDOCK:  -11.07 KCAL/MOL
REMARK 923 INTER-LIGAND FREE ENERGY PREDICTED BY IDOCK:   -9.70 KCAL/MOL
REMARK 924 INTRA-LIGAND FREE ENERGY PREDICTED BY IDOCK:   -1.37 KCAL/MOL
REMARK 927      BINDING AFFINITY PREDICTED BY RF-SCORE:    0.00 PKD
ROOT
HETATM    1  C   UNL     1      -8.509  10.505  66.700  1.00  0.00    -0.129 C  
HETATM    2  C   UNL     1      -9.958  10.785  67.133  1.00  0.00    -0.194 C  
HETATM    3  C   UNL     1     -10.317  10.543  68.429  1.00  0.00    -0.176 C  
ENDROOT
BRANCH   2   4
HETATM    4  N   UNL     1     -10.749  11.331  66.104  1.00  0.00    -0.266 N  
HETATM    5  C   UNL     1     -10.545  10.968  64.763  1.00  0.00    -0.280 C  
HETATM    6  O   UNL     1     -10.959  11.573  63.785  1.00  0.00    -0.375 OA 
BRANCH   4   7
HETATM    7  C   UNL     1     -11.417  12.635  66.300  1.00  0.00    -0.364 C  
BRANCH   7   8
HETATM    8  C   UNL     1     -10.508  13.835  66.108  1.00  0.00    -0.297 A  
HETATM    9  H2  UNL     1     -12.399  13.776  64.348  1.00  0.00     0.000 HD 
HETATM   10  C   UNL     1      -9.305  14.106  66.658  1.00  0.00    -0.282 A  
HETATM   11  N   UNL     1     -10.311  16.112  65.248  1.00  0.00    -0.565 NA 
HETATM   12  N   UNL     1      -8.679  15.337  66.735  1.00  0.00    -0.252 NA 
HETATM   13  H1  UNL     1     -12.266  15.430  63.737  1.00  0.00     0.000 HD 
HETATM   14  C   UNL     1      -8.771  17.719  66.349  1.00  0.00    -0.255 C  
HETATM   15  N   UNL     1     -11.949  14.692  64.366  1.00  0.00    -0.458 NA 
HETATM   16  C   UNL     1      -9.242  16.313  66.083  1.00  0.00    -0.341 A  
HETATM   17  C   UNL     1     -10.974  14.917  65.186  1.00  0.00    -0.399 A  
ENDBRANCH   7   8
ENDBRANCH   4   7
ENDBRANCH   2   4
BRANCH   3  18
HETATM   18  C   UNL     1      -9.191  10.321  69.534  1.00  0.00    -0.191 C  
BRANCH  18  19
HETATM   19  C   UNL     1      -9.091   8.882  70.172  1.00  0.00    -0.176 C  
BRANCH  19  20
HETATM   20  O   UNL     1     -10.148   7.925  69.783  1.00  0.00    -0.191 OA 
HETATM   21  O   UNL     1      -9.717   5.804  70.281  1.00  0.00    -0.164 OA 
HETATM   22  O   UNL     1     -11.983   6.696  70.222  1.00  0.00    -0.387 OA 
HETATM   23  P   UNL     1     -10.615   6.898  71.095  1.00  0.00    -0.229 P  
HETATM   24  O   UNL     1     -11.032   5.980  72.269  1.00  0.00    -0.238 OA 
ENDBRANCH  19  20
ENDBRANCH  18  19
ENDBRANCH   3  18
BRANCH   3  25
HETATM   25  S   UNL     1     -12.028  10.476  69.063  1.00  0.00     0.116 SA 
BRANCH  25  26
HETATM   26  C   UNL     1     -12.200  11.161  70.731  1.00  0.00    -0.385 C  
HETATM   27  O   UNL     1     -12.066  10.451  71.721  1.00  0.00    -0.268 OA 
BRANCH  26  28
HETATM   28  C   UNL     1     -12.612  12.639  70.925  1.00  0.00    -0.338 A  
HETATM   29  C   UNL     1     -13.860  14.309  72.285  1.00  0.00    -0.622 A  
HETATM   30  C   UNL     1     -13.458  12.983  72.015  1.00  0.00    -0.584 A  
HETATM   31  C   UNL     1     -12.169  13.717  70.154  1.00  0.00    -0.425 A  
HETATM   32  C   UNL     1     -13.403  15.346  71.480  1.00  0.00    -0.586 A  
HETATM   33  C   UNL     1     -12.550  15.045  70.417  1.00  0.00    -0.399 A  
ENDBRANCH  26  28
ENDBRANCH  25  26
ENDBRANCH   3  25
TORSDOF 9
ENDMDL
MODEL       57
REMARK 921   NORMALIZED FREE ENERGY PREDICTED BY IDOCK:   -6.26 KCAL/MOL
REMARK 922        TOTAL FREE ENERGY PREDICTED BY IDOCK:  -11.06 KCAL/MOL
REMARK 923 INTER-LIGAND FREE ENERGY PREDICTED BY IDOCK:   -9.47 KCAL/MOL
REMARK 924 INTRA-LIGAND FREE ENERGY PREDICTED BY IDOCK:   -1.60 KCAL/MOL
REMARK 927      BINDING AFFINITY PREDICTED BY RF-SCORE:    0.00 PKD
ROOT
HETATM    1  C   UNL     1      -8.044  13.847  67.759  1.00  0.00    -0.174 C  
HETATM    2  C   UNL     1      -9.154  12.789  67.882  1.00  0.00    -0.204 C  
HETATM    3  C   UNL     1     -10.456  13.202  67.927  1.00  0.00    -0.240 C  
ENDROOT
BRANCH   2   4
HETATM    4  N   UNL     1      -8.665  11.469  67.876  1.00  0.00    -0.139 N  
HETATM    5  C   UNL     1      -7.825  11.003  68.901  1.00  0.00    -0.138 C  
HETATM    6  O   UNL     1      -7.125  10.002  68.855  1.00  0.00    -0.064 OA 
BRANCH   4   7
HETATM    7  C   UNL     1      -8.563  10.725  66.602  1.00  0.00    -0.143 C  
BRANCH   7   8
HETATM    8  C   UNL     1      -9.285   9.389  66.602  1.00  0.00    -0.193 A  
HETATM    9  H2  UNL     1      -7.535   9.530  64.707  1.00  0.00     0.000 HD 
HETATM   10  C   UNL     1     -10.396   9.007  67.267  1.00  0.00    -0.273 A  
HETATM   11  N   UNL     1      -9.177   7.027  65.996  1.00  0.00    -0.082 NA 
HETATM   12  N   UNL     1     -10.818   7.713  67.515  1.00  0.00    -0.188 NA 
HETATM   13  H1  UNL     1      -7.445   7.818  64.279  1.00  0.00     0.000 HD 
HETATM   14  C   UNL     1     -10.381   5.343  67.367  1.00  0.00    -0.258 C  
HETATM   15  N   UNL     1      -7.836   8.566  64.852  1.00  0.00    -0.111 NA 
HETATM   16  C   UNL     1     -10.151   6.765  66.925  1.00  0.00    -0.202 A  
HETATM   17  C   UNL     1      -8.713   8.292  65.763  1.00  0.00    -0.166 A  
ENDBRANCH   7   8
ENDBRANCH   4   7
ENDBRANCH   2   4
BRANCH   3  18
HETATM   18  C   UNL     1     -10.828  14.693  67.508  1.00  0.00    -0.286 C  
BRANCH  18  19
HETATM   19  C   UNL     1     -11.193  14.938  65.992  1.00  0.00    -0.327 C  
BRANCH  19  20
HETATM   20  O   UNL     1     -12.367  14.201  65.481  1.00  0.00    -0.426 OA 
HETATM   21  O   UNL     1     -12.531  14.126  63.267  1.00  0.00    -0.758 OA 
HETATM   22  O   UNL     1     -13.366  12.340  64.699  1.00  0.00    -0.717 OA 
HETATM   23  P   UNL     1     -11.930  13.013  64.301  1.00  0.00    -0.453 P  
HETATM   24  O   UNL     1     -11.538  11.951  63.246  1.00  0.00    -0.379 OA 
ENDBRANCH  19  20
ENDBRANCH  18  19
ENDBRANCH   3  18
BRANCH   3  25
HETATM   25  S   UNL     1     -11.882  12.168  68.407  1.00  0.00    -0.222 SA 
BRANCH  25  26
HETATM   26  C   UNL     1     -12.135  12.089  70.200  1.00  0.00    -0.298 C  
HETATM   27  O   UNL     1     -12.169  13.109  70.878  1.00  0.00    -0.358 OA 
BRANCH  26  28
HETATM   28  C   UNL     1     -12.219  10.718  70.912  1.00  0.00    -0.487 A  
HETATM   29  C   UNL     1     -11.106   8.554  71.436  1.00  0.00    -0.328 A  
HETATM   30  C   UNL     1     -11.129   9.813  70.796  1.00  0.00    -0.415 A  
HETATM   31  C   UNL     1     -13.259  10.292  71.741  1.00  0.00    -0.534 A  
HETATM   32  C   UNL     1     -12.173   8.170  72.239  1.00  0.00    -0.397 A  
HETATM   33  C   UNL     1     -13.247   9.046  72.395  1.00  0.00    -0.507 A  
ENDBRANCH  26  28
ENDBRANCH  25  26
ENDBRANCH   3  25
TORSDOF 9
ENDMDL
MODEL       58
REMARK 921   NORMALIZED FREE ENERGY PREDICTED BY IDOCK:   -6.26 KCAL/MOL
REMARK 922        TOTAL FREE ENERGY PREDICTED BY IDOCK:  -11.06 KCAL/MOL
REMARK 923 INTER-LIGAND FREE ENERGY PREDICTED BY IDOCK:   -9.57 KCAL/MOL
REMARK 924 INTRA-LIGAND FREE ENERGY PREDICTED BY IDOCK:   -1.49 KCAL/MOL
REMARK 927      BINDING AFFINITY PREDICTED BY RF-SCORE:    0.00 PKD
ROOT
HETATM    1  C   UNL     1     -11.968  13.899  69.282  1.00  0.00    -0.402 C  
HETATM    2  C   UNL     1     -11.673  13.157  67.967  1.00  0.00    -0.355 C  
HETATM    3  C   UNL     1     -11.540  11.797  67.994  1.00  0.00    -0.316 C  
ENDROOT
BRANCH   2   4
HETATM    4  N   UNL     1     -11.628  14.009  66.847  1.00  0.00    -0.365 N  
HETATM    5  C   UNL     1     -12.659  14.007  65.894  1.00  0.00    -0.449 C  
HETATM    6  O   UNL     1     -12.594  14.474  64.766  1.00  0.00    -0.567 OA 
BRANCH   4   7
HETATM    7  C   UNL     1     -10.327  14.513  66.355  1.00  0.00    -0.293 C  
BRANCH   7   8
HETATM    8  C   UNL     1      -9.963  15.896  66.864  1.00  0.00    -0.253 A  
HETATM    9  H2  UNL     1     -10.678  15.948  64.381  1.00  0.00     0.000 HD 
HETATM   10  C   UNL     1      -9.342  16.261  68.005  1.00  0.00    -0.214 A  
HETATM   11  N   UNL     1     -10.285  18.302  66.602  1.00  0.00    -0.365 NA 
HETATM   12  N   UNL     1      -9.339  17.514  68.591  1.00  0.00    -0.285 NA 
HETATM   13  H1  UNL     1     -10.926  17.689  64.197  1.00  0.00     0.000 HD 
HETATM   14  C   UNL     1     -10.147  19.790  68.585  1.00  0.00    -0.546 C  
HETATM   15  N   UNL     1     -10.671  16.888  64.777  1.00  0.00    -0.713 NA 
HETATM   16  C   UNL     1      -9.873  18.477  67.898  1.00  0.00    -0.325 A  
HETATM   17  C   UNL     1     -10.337  17.068  66.014  1.00  0.00    -0.315 A  
ENDBRANCH   7   8
ENDBRANCH   4   7
ENDBRANCH   2   4
BRANCH   3  18
HETATM   18  C   UNL     1     -12.029  10.980  69.270  1.00  0.00    -0.410 C  
BRANCH  18  19
HETATM   19  C   UNL     1     -10.910  10.408  70.224  1.00  0.00    -0.242 C  
BRANCH  19  20
HETATM   20  O   UNL     1     -11.381   9.583  71.355  1.00  0.00    -0.350 OA 
HETATM   21  O   UNL     1     -12.365   7.678  70.776  1.00  0.00    -0.185 OA 
HETATM   22  O   UNL     1     -11.122   7.926  72.857  1.00  0.00    -0.384 OA 
HETATM   23  P   UNL     1     -10.825   7.949  71.249  1.00  0.00    -0.245 P  
HETATM   24  O   UNL     1     -10.327   6.486  71.154  1.00  0.00    -0.201 OA 
ENDBRANCH  19  20
ENDBRANCH  18  19
ENDBRANCH   3  18
BRANCH   3  25
HETATM   25  S   UNL     1     -10.862  10.769  66.646  1.00  0.00    -0.106 SA 
BRANCH  25  26
HETATM   26  C   UNL     1      -9.448   9.759  67.159  1.00  0.00    -0.154 C  
HETATM   27  O   UNL     1      -8.336  10.256  67.297  1.00  0.00    -0.121 OA 
BRANCH  26  28
HETATM   28  C   UNL     1      -9.609   8.232  67.340  1.00  0.00    -0.205 A  
HETATM   29  C   UNL     1      -8.591   6.087  68.088  1.00  0.00    -0.114 A  
HETATM   30  C   UNL     1      -8.522   7.480  67.862  1.00  0.00    -0.122 A  
HETATM   31  C   UNL     1     -10.776   7.501  67.100  1.00  0.00    -0.379 A  
HETATM   32  C   UNL     1      -9.770   5.403  67.819  1.00  0.00    -0.160 A  
HETATM   33  C   UNL     1     -10.865   6.117  67.330  1.00  0.00    -0.431 A  
ENDBRANCH  26  28
ENDBRANCH  25  26
ENDBRANCH   3  25
TORSDOF 9
ENDMDL
MODEL       59
REMARK 921   NORMALIZED FREE ENERGY PREDICTED BY IDOCK:   -6.23 KCAL/MOL
REMARK 922        TOTAL FREE ENERGY PREDICTED BY IDOCK:  -11.02 KCAL/MOL
REMARK 923 INTER-LIGAND FREE ENERGY PREDICTED BY IDOCK:   -8.78 KCAL/MOL
REMARK 924 INTRA-LIGAND FREE ENERGY PREDICTED BY IDOCK:   -2.24 KCAL/MOL
REMARK 927      BINDING AFFINITY PREDICTED BY RF-SCORE:    0.00 PKD
ROOT
HETATM    1  C   UNL     1     -12.744  12.238  71.197  1.00  0.00    -0.340 C  
HETATM    2  C   UNL     1     -12.265  10.981  70.452  1.00  0.00    -0.373 C  
HETATM    3  C   UNL     1     -11.569  11.131  69.285  1.00  0.00    -0.318 C  
ENDROOT
BRANCH   2   4
HETATM    4  N   UNL     1     -12.573   9.784  71.127  1.00  0.00    -0.332 N  
HETATM    5  C   UNL     1     -13.906   9.404  71.356  1.00  0.00    -0.189 C  
HETATM    6  O   UNL     1     -14.283   8.564  72.159  1.00  0.00    -0.424 OA 
BRANCH   4   7
HETATM    7  C   UNL     1     -11.588   9.183  72.051  1.00  0.00    -0.301 C  
BRANCH   7   8
HETATM    8  C   UNL     1     -10.938   7.914  71.529  1.00  0.00    -0.269 A  
HETATM    9  H2  UNL     1      -9.178   9.654  72.271  1.00  0.00     0.000 HD 
HETATM   10  C   UNL     1     -11.481   6.879  70.854  1.00  0.00    -0.323 A  
HETATM   11  N   UNL     1      -8.967   6.474  71.587  1.00  0.00    -0.143 NA 
HETATM   12  N   UNL     1     -10.953   5.610  70.704  1.00  0.00    -0.235 NA 
HETATM   13  H1  UNL     1      -7.755   8.608  72.329  1.00  0.00     0.000 HD 
HETATM   14  C   UNL     1      -9.216   4.026  71.255  1.00  0.00    -0.197 C  
HETATM   15  N   UNL     1      -8.752   8.735  72.154  1.00  0.00    -0.391 NA 
HETATM   16  C   UNL     1      -9.740   5.434  71.138  1.00  0.00    -0.174 A  
HETATM   17  C   UNL     1      -9.477   7.728  71.784  1.00  0.00    -0.151 A  
ENDBRANCH   7   8
ENDBRANCH   4   7
ENDBRANCH   2   4
BRANCH   3  18
HETATM   18  C   UNL     1     -10.966  12.555  68.902  1.00  0.00    -0.272 C  
BRANCH  18  19
HETATM   19  C   UNL     1     -11.675  13.337  67.729  1.00  0.00    -0.358 C  
BRANCH  19  20
HETATM   20  O   UNL     1     -11.237  12.989  66.361  1.00  0.00    -0.285 OA 
HETATM   21  O   UNL     1     -12.884  12.535  64.941  1.00  0.00    -0.758 OA 
HETATM   22  O   UNL     1     -10.773  13.518  64.222  1.00  0.00    -0.403 OA 
HETATM   23  P   UNL     1     -12.053  13.925  65.156  1.00  0.00    -0.453 P  
HETATM   24  O   UNL     1     -12.782  14.763  64.078  1.00  0.00    -0.786 OA 
ENDBRANCH  19  20
ENDBRANCH  18  19
ENDBRANCH   3  18
BRANCH   3  25
HETATM   25  S   UNL     1     -11.212   9.805  68.082  1.00  0.00     0.129 SA 
BRANCH  25  26
HETATM   26  C   UNL     1      -9.627   8.979  68.378  1.00  0.00    -0.152 C  
HETATM   27  O   UNL     1      -8.665   9.599  68.817  1.00  0.00    -0.120 OA 
BRANCH  26  28
HETATM   28  C   UNL     1      -9.441   7.494  67.990  1.00  0.00    -0.149 A  
HETATM   29  C   UNL     1     -10.419   5.461  66.936  1.00  0.00    -0.337 A  
HETATM   30  C   UNL     1     -10.511   6.808  67.352  1.00  0.00    -0.330 A  
HETATM   31  C   UNL     1      -8.267   6.751  68.143  1.00  0.00    -0.114 A  
HETATM   32  C   UNL     1      -9.233   4.761  67.124  1.00  0.00    -0.136 A  
HETATM   33  C   UNL     1      -8.155   5.413  67.723  1.00  0.00    -0.100 A  
ENDBRANCH  26  28
ENDBRANCH  25  26
ENDBRANCH   3  25
TORSDOF 9
ENDMDL
MODEL       60
REMARK 921   NORMALIZED FREE ENERGY PREDICTED BY IDOCK:   -6.23 KCAL/MOL
REMARK 922        TOTAL FREE ENERGY PREDICTED BY IDOCK:  -11.02 KCAL/MOL
REMARK 923 INTER-LIGAND FREE ENERGY PREDICTED BY IDOCK:   -9.78 KCAL/MOL
REMARK 924 INTRA-LIGAND FREE ENERGY PREDICTED BY IDOCK:   -1.24 KCAL/MOL
REMARK 927      BINDING AFFINITY PREDICTED BY RF-SCORE:    0.00 PKD
ROOT
HETATM    1  C   UNL     1     -12.211  14.214  67.315  1.00  0.00    -0.314 C  
HETATM    2  C   UNL     1     -10.675  14.164  67.369  1.00  0.00    -0.284 C  
HETATM    3  C   UNL     1     -10.042  14.558  68.515  1.00  0.00    -0.242 C  
ENDROOT
BRANCH   2   4
HETATM    4  N   UNL     1     -10.095  13.646  66.195  1.00  0.00    -0.299 N  
HETATM    5  C   UNL     1     -10.716  13.808  64.946  1.00  0.00    -0.399 C  
HETATM    6  O   UNL     1     -10.466  13.172  63.933  1.00  0.00    -0.351 OA 
BRANCH   4   7
HETATM    7  C   UNL     1      -9.154  12.508  66.278  1.00  0.00    -0.069 C  
BRANCH   7   8
HETATM    8  C   UNL     1      -9.813  11.178  66.597  1.00  0.00    -0.231 A  
HETATM    9  H2  UNL     1      -8.931  11.250  64.170  1.00  0.00     0.000 HD 
HETATM   10  C   UNL     1     -10.579  10.823  67.651  1.00  0.00    -0.231 A  
HETATM   11  N   UNL     1      -9.935   8.798  66.067  1.00  0.00    -0.197 NA 
HETATM   12  N   UNL     1     -10.865   9.540  68.082  1.00  0.00    -0.197 NA 
HETATM   13  H1  UNL     1      -9.005   9.525  63.792  1.00  0.00     0.000 HD 
HETATM   14  C   UNL     1     -10.507   7.164  67.848  1.00  0.00    -0.268 C  
HETATM   15  N   UNL     1      -9.148  10.293  64.448  1.00  0.00    -0.217 NA 
HETATM   16  C   UNL     1     -10.472   8.570  67.309  1.00  0.00    -0.296 A  
HETATM   17  C   UNL     1      -9.604  10.052  65.635  1.00  0.00    -0.252 A  
ENDBRANCH   7   8
ENDBRANCH   4   7
ENDBRANCH   2   4
BRANCH   3  18
HETATM   18  C   UNL     1     -10.876  14.718  69.863  1.00  0.00    -0.185 C  
BRANCH  18  19
HETATM   19  C   UNL     1     -11.351  16.175  70.239  1.00  0.00    -0.353 C  
BRANCH  19  20
HETATM   20  O   UNL     1     -12.155  16.296  71.472  1.00  0.00    -0.425 OA 
HETATM   21  O   UNL     1     -14.280  15.685  71.264  1.00  0.00    -0.540 OA 
HETATM   22  O   UNL     1     -13.054  15.451  73.356  1.00  0.00    -0.486 OA 
HETATM   23  P   UNL     1     -13.009  14.837  71.841  1.00  0.00    -0.388 P  
HETATM   24  O   UNL     1     -13.773  13.532  72.171  1.00  0.00    -0.484 OA 
ENDBRANCH  19  20
ENDBRANCH  18  19
ENDBRANCH   3  18
BRANCH   3  25
HETATM   25  S   UNL     1      -8.257  14.901  68.679  1.00  0.00    -0.164 SA 
BRANCH  25  26
HETATM   26  C   UNL     1      -7.878  16.669  68.801  1.00  0.00    -0.238 C  
HETATM   27  O   UNL     1      -6.945  17.067  69.490  1.00  0.00    -0.204 OA 
BRANCH  26  28
HETATM   28  C   UNL     1      -8.789  17.708  68.108  1.00  0.00    -0.269 A  
HETATM   29  C   UNL     1     -10.272  18.246  66.182  1.00  0.00    -0.393 A  
HETATM   30  C   UNL     1      -9.402  17.372  66.869  1.00  0.00    -0.271 A  
HETATM   31  C   UNL     1      -9.140  18.958  68.623  1.00  0.00    -0.386 A  
HETATM   32  C   UNL     1     -10.578  19.486  66.730  1.00  0.00    -0.597 A  
HETATM   33  C   UNL     1     -10.015  19.836  67.957  1.00  0.00    -0.553 A  
ENDBRANCH  26  28
ENDBRANCH  25  26
ENDBRANCH   3  25
TORSDOF 9
ENDMDL
MODEL       61
REMARK 921   NORMALIZED FREE ENERGY PREDICTED BY IDOCK:   -6.22 KCAL/MOL
REMARK 922        TOTAL FREE ENERGY PREDICTED BY IDOCK:  -11.01 KCAL/MOL
REMARK 923 INTER-LIGAND FREE ENERGY PREDICTED BY IDOCK:   -9.31 KCAL/MOL
REMARK 924 INTRA-LIGAND FREE ENERGY PREDICTED BY IDOCK:   -1.70 KCAL/MOL
REMARK 927      BINDING AFFINITY PREDICTED BY RF-SCORE:    0.00 PKD
ROOT
HETATM    1  C   UNL     1      -8.339   8.566  64.544  1.00  0.00    -0.138 C  
HETATM    2  C   UNL     1      -8.542   9.040  65.993  1.00  0.00    -0.142 C  
HETATM    3  C   UNL     1      -9.396  10.080  66.234  1.00  0.00    -0.168 C  
ENDROOT
BRANCH   2   4
HETATM    4  N   UNL     1      -7.829   8.270  66.933  1.00  0.00    -0.095 N  
HETATM    5  C   UNL     1      -6.518   8.610  67.303  1.00  0.00    -0.058 C  
HETATM    6  O   UNL     1      -5.720   7.877  67.869  1.00  0.00    -0.035 OA 
BRANCH   4   7
HETATM    7  C   UNL     1      -8.190   6.852  67.151  1.00  0.00    -0.118 C  
BRANCH   7   8
HETATM    8  C   UNL     1      -8.832   6.574  68.497  1.00  0.00    -0.121 A  
HETATM    9  H2  UNL     1     -10.597   6.795  66.623  1.00  0.00     0.000 HD 
HETATM   10  C   UNL     1      -8.297   6.612  69.736  1.00  0.00    -0.132 A  
HETATM   11  N   UNL     1     -10.763   5.645  69.669  1.00  0.00    -0.335 NA 
HETATM   12  N   UNL     1      -8.800   6.026  70.883  1.00  0.00    -0.135 NA 
HETATM   13  H1  UNL     1     -11.990   6.108  67.466  1.00  0.00     0.000 HD 
HETATM   14  C   UNL     1     -10.471   4.618  71.910  1.00  0.00    -0.172 C  
HETATM   15  N   UNL     1     -11.006   6.376  67.458  1.00  0.00    -0.355 NA 
HETATM   16  C   UNL     1      -9.988   5.503  70.791  1.00  0.00    -0.201 A  
HETATM   17  C   UNL     1     -10.275   6.182  68.509  1.00  0.00    -0.185 A  
ENDBRANCH   7   8
ENDBRANCH   4   7
ENDBRANCH   2   4
BRANCH   3  18
HETATM   18  C   UNL     1     -10.413  10.545  65.101  1.00  0.00    -0.225 C  
BRANCH  18  19
HETATM   19  C   UNL     1     -10.044  11.857  64.304  1.00  0.00    -0.295 C  
BRANCH  19  20
HETATM   20  O   UNL     1     -11.132  12.460  63.509  1.00  0.00    -0.435 OA 
HETATM   21  O   UNL     1     -13.182  11.988  64.222  1.00  0.00    -0.710 OA 
HETATM   22  O   UNL     1     -12.640  14.083  63.103  1.00  0.00    -0.733 OA 
HETATM   23  P   UNL     1     -12.268  13.313  64.497  1.00  0.00    -0.382 P  
HETATM   24  O   UNL     1     -13.283  14.077  65.382  1.00  0.00    -0.761 OA 
ENDBRANCH  19  20
ENDBRANCH  18  19
ENDBRANCH   3  18
BRANCH   3  25
HETATM   25  S   UNL     1      -9.521  11.011  67.799  1.00  0.00    -0.165 SA 
BRANCH  25  26
HETATM   26  C   UNL     1     -11.223  11.173  68.400  1.00  0.00    -0.262 C  
HETATM   27  O   UNL     1     -12.036  11.873  67.809  1.00  0.00    -0.564 OA 
BRANCH  26  28
HETATM   28  C   UNL     1     -11.644  10.499  69.727  1.00  0.00    -0.368 A  
HETATM   29  C   UNL     1     -11.103   8.843  71.505  1.00  0.00    -0.397 A  
HETATM   30  C   UNL     1     -10.813   9.489  70.283  1.00  0.00    -0.319 A  
HETATM   31  C   UNL     1     -12.759  10.841  70.497  1.00  0.00    -0.388 A  
HETATM   32  C   UNL     1     -12.233   9.208  72.226  1.00  0.00    -0.348 A  
HETATM   33  C   UNL     1     -13.057  10.215  71.721  1.00  0.00    -0.568 A  
ENDBRANCH  26  28
ENDBRANCH  25  26
ENDBRANCH   3  25
TORSDOF 9
ENDMDL
MODEL       62
REMARK 921   NORMALIZED FREE ENERGY PREDICTED BY IDOCK:   -6.21 KCAL/MOL
REMARK 922        TOTAL FREE ENERGY PREDICTED BY IDOCK:  -10.98 KCAL/MOL
REMARK 923 INTER-LIGAND FREE ENERGY PREDICTED BY IDOCK:   -9.19 KCAL/MOL
REMARK 924 INTRA-LIGAND FREE ENERGY PREDICTED BY IDOCK:   -1.79 KCAL/MOL
REMARK 927      BINDING AFFINITY PREDICTED BY RF-SCORE:    0.00 PKD
ROOT
HETATM    1  C   UNL     1     -10.552  16.117  64.986  1.00  0.00    -0.301 C  
HETATM    2  C   UNL     1     -10.254  15.177  66.166  1.00  0.00    -0.295 C  
HETATM    3  C   UNL     1      -9.090  15.343  66.863  1.00  0.00    -0.242 C  
ENDROOT
BRANCH   2   4
HETATM    4  N   UNL     1     -11.291  14.259  66.421  1.00  0.00    -0.334 N  
HETATM    5  C   UNL     1     -11.899  13.544  65.375  1.00  0.00    -0.357 C  
HETATM    6  O   UNL     1     -12.969  12.957  65.436  1.00  0.00    -0.615 OA 
BRANCH   4   7
HETATM    7  C   UNL     1     -12.114  14.395  67.641  1.00  0.00    -0.277 C  
BRANCH   7   8
HETATM    8  C   UNL     1     -11.925  13.276  68.648  1.00  0.00    -0.345 A  
HETATM    9  H2  UNL     1     -12.272  15.557  69.810  1.00  0.00     0.000 HD 
HETATM   10  C   UNL     1     -11.503  12.007  68.461  1.00  0.00    -0.293 A  
HETATM   11  N   UNL     1     -12.371  12.493  70.918  1.00  0.00    -0.341 NA 
HETATM   12  N   UNL     1     -11.673  10.935  69.319  1.00  0.00    -0.306 NA 
HETATM   13  H1  UNL     1     -12.610  14.989  71.449  1.00  0.00     0.000 HD 
HETATM   14  C   UNL     1     -12.627  10.063  71.358  1.00  0.00    -0.518 C  
HETATM   15  N   UNL     1     -12.387  14.791  70.473  1.00  0.00    -0.316 NA 
HETATM   16  C   UNL     1     -12.165  11.206  70.492  1.00  0.00    -0.384 A  
HETATM   17  C   UNL     1     -12.251  13.566  70.078  1.00  0.00    -0.312 A  
ENDBRANCH   7   8
ENDBRANCH   4   7
ENDBRANCH   2   4
BRANCH   3  18
HETATM   18  C   UNL     1      -8.248  16.683  66.688  1.00  0.00    -0.301 C  
BRANCH  18  19
HETATM   19  C   UNL     1      -7.497  17.226  67.965  1.00  0.00    -0.194 C  
BRANCH  19  20
HETATM   20  O   UNL     1      -8.187  18.293  68.718  1.00  0.00    -0.303 OA 
HETATM   21  O   UNL     1      -8.039  20.318  67.818  1.00  0.00    -0.294 OA 
HETATM   22  O   UNL     1      -9.966  19.611  69.129  1.00  0.00    -0.441 OA 
HETATM   23  P   UNL     1      -9.245  19.223  67.713  1.00  0.00    -0.329 P  
HETATM   24  O   UNL     1     -10.193  20.054  66.814  1.00  0.00    -0.427 OA 
ENDBRANCH  19  20
ENDBRANCH  18  19
ENDBRANCH   3  18
BRANCH   3  25
HETATM   25  S   UNL     1      -8.385  14.151  68.053  1.00  0.00    -0.173 SA 
BRANCH  25  26
HETATM   26  C   UNL     1      -7.505  12.782  67.256  1.00  0.00    -0.097 C  
HETATM   27  O   UNL     1      -6.331  12.897  66.921  1.00  0.00    -0.109 OA 
BRANCH  26  28
HETATM   28  C   UNL     1      -8.256  11.478  66.903  1.00  0.00    -0.167 A  
HETATM   29  C   UNL     1      -9.007   9.222  67.641  1.00  0.00    -0.126 A  
HETATM   30  C   UNL     1      -8.317  10.434  67.866  1.00  0.00    -0.114 A  
HETATM   31  C   UNL     1      -8.963  11.238  65.722  1.00  0.00    -0.191 A  
HETATM   32  C   UNL     1      -9.683   9.026  66.443  1.00  0.00    -0.337 A  
HETATM   33  C   UNL     1      -9.664  10.041  65.486  1.00  0.00    -0.355 A  
ENDBRANCH  26  28
ENDBRANCH  25  26
ENDBRANCH   3  25
TORSDOF 9
ENDMDL
MODEL       63
REMARK 921   NORMALIZED FREE ENERGY PREDICTED BY IDOCK:   -6.18 KCAL/MOL
REMARK 922        TOTAL FREE ENERGY PREDICTED BY IDOCK:  -10.94 KCAL/MOL
REMARK 923 INTER-LIGAND FREE ENERGY PREDICTED BY IDOCK:   -9.42 KCAL/MOL
REMARK 924 INTRA-LIGAND FREE ENERGY PREDICTED BY IDOCK:   -1.52 KCAL/MOL
REMARK 927      BINDING AFFINITY PREDICTED BY RF-SCORE:    0.00 PKD
ROOT
HETATM    1  C   UNL     1     -11.922  13.944  68.343  1.00  0.00    -0.391 C  
HETATM    2  C   UNL     1     -11.337  14.829  67.230  1.00  0.00    -0.357 C  
HETATM    3  C   UNL     1     -10.620  15.940  67.579  1.00  0.00    -0.315 C  
ENDROOT
BRANCH   2   4
HETATM    4  N   UNL     1     -11.582  14.330  65.936  1.00  0.00    -0.350 N  
HETATM    5  C   UNL     1     -12.817  13.749  65.605  1.00  0.00    -0.408 C  
HETATM    6  O   UNL     1     -13.038  13.040  64.634  1.00  0.00    -0.723 OA 
BRANCH   4   7
HETATM    7  C   UNL     1     -10.450  13.916  65.079  1.00  0.00    -0.410 C  
BRANCH   7   8
HETATM    8  C   UNL     1      -9.881  12.550  65.416  1.00  0.00    -0.179 A  
HETATM    9  H2  UNL     1     -11.046  12.557  63.111  1.00  0.00     0.000 HD 
HETATM   10  C   UNL     1      -9.407  12.076  66.588  1.00  0.00    -0.219 A  
HETATM   11  N   UNL     1      -9.024  10.438  64.541  1.00  0.00    -0.201 NA 
HETATM   12  N   UNL     1      -8.591  10.975  66.776  1.00  0.00    -0.147 NA 
HETATM   13  H1  UNL     1     -10.413  11.036  62.471  1.00  0.00     0.000 HD 
HETATM   14  C   UNL     1      -7.286   9.192  65.803  1.00  0.00    -0.090 C  
HETATM   15  N   UNL     1     -10.468  11.725  63.222  1.00  0.00    -0.404 NA 
HETATM   16  C   UNL     1      -8.373  10.233  65.730  1.00  0.00    -0.152 A  
HETATM   17  C   UNL     1      -9.802  11.541  64.316  1.00  0.00    -0.244 A  
ENDBRANCH   7   8
ENDBRANCH   4   7
ENDBRANCH   2   4
BRANCH   3  18
HETATM   18  C   UNL     1     -10.107  16.110  69.077  1.00  0.00    -0.247 C  
BRANCH  18  19
HETATM   19  C   UNL     1      -8.733  15.425  69.442  1.00  0.00    -0.252 C  
BRANCH  19  20
HETATM   20  O   UNL     1      -7.548  15.917  68.709  1.00  0.00    -0.154 OA 
HETATM   21  O   UNL     1      -5.653  14.859  69.180  1.00  0.00    -0.095 OA 
HETATM   22  O   UNL     1      -6.093  15.839  66.993  1.00  0.00    -0.314 OA 
HETATM   23  P   UNL     1      -6.683  14.636  67.932  1.00  0.00    -0.176 P  
HETATM   24  O   UNL     1      -5.909  13.491  67.236  1.00  0.00    -0.345 OA 
ENDBRANCH  19  20
ENDBRANCH  18  19
ENDBRANCH   3  18
BRANCH   3  25
HETATM   25  S   UNL     1     -10.140  17.292  66.451  1.00  0.00    -0.318 SA 
BRANCH  25  26
HETATM   26  C   UNL     1     -10.025  18.903  67.274  1.00  0.00    -0.334 C  
HETATM   27  O   UNL     1     -11.027  19.577  67.483  1.00  0.00    -0.452 OA 
BRANCH  26  28
HETATM   28  C   UNL     1      -8.642  19.490  67.640  1.00  0.00    -0.355 A  
HETATM   29  C   UNL     1      -6.754  20.977  66.991  1.00  0.00    -0.409 A  
HETATM   30  C   UNL     1      -8.002  20.371  66.726  1.00  0.00    -0.295 A  
HETATM   31  C   UNL     1      -7.966  19.294  68.847  1.00  0.00    -0.353 A  
HETATM   32  C   UNL     1      -6.114  20.738  68.201  1.00  0.00    -0.369 A  
HETATM   33  C   UNL     1      -6.728  19.899  69.131  1.00  0.00    -0.359 A  
ENDBRANCH  26  28
ENDBRANCH  25  26
ENDBRANCH   3  25
TORSDOF 9
ENDMDL
MODEL       64
REMARK 921   NORMALIZED FREE ENERGY PREDICTED BY IDOCK:   -6.17 KCAL/MOL
REMARK 922        TOTAL FREE ENERGY PREDICTED BY IDOCK:  -10.93 KCAL/MOL
REMARK 923 INTER-LIGAND FREE ENERGY PREDICTED BY IDOCK:   -9.87 KCAL/MOL
REMARK 924 INTRA-LIGAND FREE ENERGY PREDICTED BY IDOCK:   -1.06 KCAL/MOL
REMARK 927      BINDING AFFINITY PREDICTED BY RF-SCORE:    0.00 PKD
ROOT
HETATM    1  C   UNL     1     -13.926   8.474  72.274  1.00  0.00    -0.423 C  
HETATM    2  C   UNL     1     -12.474   8.641  71.796  1.00  0.00    -0.346 C  
HETATM    3  C   UNL     1     -12.150   9.733  71.040  1.00  0.00    -0.346 C  
ENDROOT
BRANCH   2   4
HETATM    4  N   UNL     1     -11.615   7.628  72.264  1.00  0.00    -0.305 N  
HETATM    5  C   UNL     1     -10.350   7.937  72.789  1.00  0.00    -0.333 C  
HETATM    6  O   UNL     1      -9.429   7.149  72.951  1.00  0.00    -0.141 OA 
BRANCH   4   7
HETATM    7  C   UNL     1     -11.758   6.246  71.757  1.00  0.00    -0.299 C  
BRANCH   7   8
HETATM    8  C   UNL     1     -11.059   5.995  70.433  1.00  0.00    -0.399 A  
HETATM    9  H2  UNL     1      -9.956   4.677  72.363  1.00  0.00     0.000 HD 
HETATM   10  C   UNL     1     -11.177   6.644  69.255  1.00  0.00    -0.266 A  
HETATM   11  N   UNL     1      -9.698   4.450  69.121  1.00  0.00    -0.184 NA 
HETATM   12  N   UNL     1     -10.802   6.184  68.006  1.00  0.00    -0.302 NA 
HETATM   13  H1  UNL     1      -8.983   3.548  71.412  1.00  0.00     0.000 HD 
HETATM   14  C   UNL     1      -9.940   4.381  66.651  1.00  0.00    -0.234 C  
HETATM   15  N   UNL     1      -9.645   4.324  71.458  1.00  0.00    -0.155 NA 
HETATM   16  C   UNL     1     -10.135   5.068  67.978  1.00  0.00    -0.106 A  
HETATM   17  C   UNL     1     -10.089   4.859  70.366  1.00  0.00    -0.245 A  
ENDBRANCH   7   8
ENDBRANCH   4   7
ENDBRANCH   2   4
BRANCH   3  18
HETATM   18  C   UNL     1     -13.154  10.967  70.963  1.00  0.00    -0.296 C  
BRANCH  18  19
HETATM   19  C   UNL     1     -12.817  12.219  71.862  1.00  0.00    -0.213 C  
BRANCH  19  20
HETATM   20  O   UNL     1     -13.548  13.462  71.541  1.00  0.00    -0.276 OA 
HETATM   21  O   UNL     1     -13.631  14.948  73.190  1.00  0.00    -0.520 OA 
HETATM   22  O   UNL     1     -13.632  15.601  70.843  1.00  0.00    -0.568 OA 
HETATM   23  P   UNL     1     -12.623  14.877  71.907  1.00  0.00    -0.379 P  
HETATM   24  O   UNL     1     -11.794  16.143  72.235  1.00  0.00    -0.486 OA 
ENDBRANCH  19  20
ENDBRANCH  18  19
ENDBRANCH   3  18
BRANCH   3  25
HETATM   25  S   UNL     1     -10.603   9.951  70.096  1.00  0.00    -0.312 SA 
BRANCH  25  26
HETATM   26  C   UNL     1     -10.881  10.317  68.343  1.00  0.00    -0.245 C  
HETATM   27  O   UNL     1     -10.752   9.447  67.489  1.00  0.00    -0.280 OA 
BRANCH  26  28
HETATM   28  C   UNL     1     -11.195  11.762  67.893  1.00  0.00    -0.331 A  
HETATM   29  C   UNL     1     -12.062  13.263  66.106  1.00  0.00    -0.477 A  
HETATM   30  C   UNL     1     -11.719  11.981  66.590  1.00  0.00    -0.331 A  
HETATM   31  C   UNL     1     -11.077  12.907  68.685  1.00  0.00    -0.307 A  
HETATM   32  C   UNL     1     -11.913  14.373  66.929  1.00  0.00    -0.425 A  
HETATM   33  C   UNL     1     -11.426  14.189  68.223  1.00  0.00    -0.335 A  
ENDBRANCH  26  28
ENDBRANCH  25  26
ENDBRANCH   3  25
TORSDOF 9
ENDMDL
MODEL       65
REMARK 921   NORMALIZED FREE ENERGY PREDICTED BY IDOCK:   -6.17 KCAL/MOL
REMARK 922        TOTAL FREE ENERGY PREDICTED BY IDOCK:  -10.92 KCAL/MOL
REMARK 923 INTER-LIGAND FREE ENERGY PREDICTED BY IDOCK:   -9.55 KCAL/MOL
REMARK 924 INTRA-LIGAND FREE ENERGY PREDICTED BY IDOCK:   -1.37 KCAL/MOL
REMARK 927      BINDING AFFINITY PREDICTED BY RF-SCORE:    0.00 PKD
ROOT
HETATM    1  C   UNL     1     -11.698  11.603  69.791  1.00  0.00    -0.425 C  
HETATM    2  C   UNL     1     -10.974  12.461  68.740  1.00  0.00    -0.246 C  
HETATM    3  C   UNL     1     -11.306  13.782  68.625  1.00  0.00    -0.287 C  
ENDROOT
BRANCH   2   4
HETATM    4  N   UNL     1      -9.980  11.755  68.036  1.00  0.00    -0.182 N  
HETATM    5  C   UNL     1      -8.617  12.020  68.246  1.00  0.00    -0.174 C  
HETATM    6  O   UNL     1      -7.700  11.690  67.508  1.00  0.00    -0.120 OA 
BRANCH   4   7
HETATM    7  C   UNL     1     -10.299  11.134  66.732  1.00  0.00    -0.241 C  
BRANCH   7   8
HETATM    8  C   UNL     1     -10.130   9.626  66.703  1.00  0.00    -0.307 A  
HETATM    9  H2  UNL     1      -9.304  10.724  64.515  1.00  0.00     0.000 HD 
HETATM   10  C   UNL     1     -10.629   8.684  67.531  1.00  0.00    -0.222 A  
HETATM   11  N   UNL     1      -8.889   7.743  65.768  1.00  0.00    -0.142 NA 
HETATM   12  N   UNL     1     -10.182   7.384  67.684  1.00  0.00    -0.184 NA 
HETATM   13  H1  UNL     1      -8.392   9.365  63.846  1.00  0.00     0.000 HD 
HETATM   14  C   UNL     1      -8.560   5.687  67.120  1.00  0.00    -0.109 C  
HETATM   15  N   UNL     1      -8.971   9.762  64.587  1.00  0.00    -0.214 NA 
HETATM   16  C   UNL     1      -9.278   6.981  66.840  1.00  0.00    -0.150 A  
HETATM   17  C   UNL     1      -9.282   9.044  65.617  1.00  0.00    -0.225 A  
ENDBRANCH   7   8
ENDBRANCH   4   7
ENDBRANCH   2   4
BRANCH   3  18
HETATM   18  C   UNL     1     -12.150  14.488  69.777  1.00  0.00    -0.380 C  
BRANCH  18  19
HETATM   19  C   UNL     1     -11.355  15.408  70.783  1.00  0.00    -0.345 C  
BRANCH  19  20
HETATM   20  O   UNL     1     -11.875  15.457  72.165  1.00  0.00    -0.373 OA 
HETATM   21  O   UNL     1     -14.078  15.692  72.326  1.00  0.00    -0.523 OA 
HETATM   22  O   UNL     1     -12.768  14.493  73.994  1.00  0.00    -0.431 OA 
HETATM   23  P   UNL     1     -13.170  14.337  72.416  1.00  0.00    -0.513 P  
HETATM   24  O   UNL     1     -14.328  13.335  72.641  1.00  0.00    -0.679 OA 
ENDBRANCH  19  20
ENDBRANCH  18  19
ENDBRANCH   3  18
BRANCH   3  25
HETATM   25  S   UNL     1     -10.834  14.880  67.245  1.00  0.00    -0.314 SA 
BRANCH  25  26
HETATM   26  C   UNL     1      -9.487  16.018  67.666  1.00  0.00    -0.216 C  
HETATM   27  O   UNL     1      -8.557  15.657  68.377  1.00  0.00    -0.164 OA 
BRANCH  26  28
HETATM   28  C   UNL     1      -9.545  17.493  67.206  1.00  0.00    -0.273 A  
HETATM   29  C   UNL     1     -10.754  19.668  67.276  1.00  0.00    -0.583 A  
HETATM   30  C   UNL     1     -10.636  18.304  67.623  1.00  0.00    -0.427 A  
HETATM   31  C   UNL     1      -8.569  18.152  66.454  1.00  0.00    -0.251 A  
HETATM   32  C   UNL     1      -9.763  20.274  66.514  1.00  0.00    -0.519 A  
HETATM   33  C   UNL     1      -8.666  19.512  66.110  1.00  0.00    -0.332 A  
ENDBRANCH  26  28
ENDBRANCH  25  26
ENDBRANCH   3  25
TORSDOF 9
ENDMDL
MODEL       66
REMARK 921   NORMALIZED FREE ENERGY PREDICTED BY IDOCK:   -6.14 KCAL/MOL
REMARK 922        TOTAL FREE ENERGY PREDICTED BY IDOCK:  -10.88 KCAL/MOL
REMARK 923 INTER-LIGAND FREE ENERGY PREDICTED BY IDOCK:   -9.16 KCAL/MOL
REMARK 924 INTRA-LIGAND FREE ENERGY PREDICTED BY IDOCK:   -1.72 KCAL/MOL
REMARK 927      BINDING AFFINITY PREDICTED BY RF-SCORE:    0.00 PKD
ROOT
HETATM    1  C   UNL     1     -10.872  16.004  65.075  1.00  0.00    -0.421 C  
HETATM    2  C   UNL     1     -10.531  15.280  66.388  1.00  0.00    -0.303 C  
HETATM    3  C   UNL     1      -9.243  15.317  66.846  1.00  0.00    -0.234 C  
ENDROOT
BRANCH   2   4
HETATM    4  N   UNL     1     -11.651  14.691  67.005  1.00  0.00    -0.373 N  
HETATM    5  C   UNL     1     -11.709  14.528  68.399  1.00  0.00    -0.333 C  
HETATM    6  O   UNL     1     -12.473  13.790  69.003  1.00  0.00    -0.194 OA 
BRANCH   4   7
HETATM    7  C   UNL     1     -12.521  13.775  66.236  1.00  0.00    -0.391 C  
BRANCH   7   8
HETATM    8  C   UNL     1     -11.799  12.573  65.655  1.00  0.00    -0.493 A  
HETATM    9  H2  UNL     1     -13.322  13.711  63.906  1.00  0.00     0.000 HD 
HETATM   10  C   UNL     1     -11.103  11.598  66.277  1.00  0.00    -0.290 A  
HETATM   11  N   UNL     1     -10.933  11.509  63.635  1.00  0.00    -0.408 NA 
HETATM   12  N   UNL     1     -10.184  10.734  65.711  1.00  0.00    -0.257 NA 
HETATM   13  H1  UNL     1     -12.684  12.952  62.442  1.00  0.00     0.000 HD 
HETATM   14  C   UNL     1      -8.920  10.062  63.766  1.00  0.00    -0.274 C  
HETATM   15  N   UNL     1     -12.669  13.069  63.455  1.00  0.00    -0.693 NA 
HETATM   16  C   UNL     1     -10.082  10.769  64.414  1.00  0.00    -0.353 A  
HETATM   17  C   UNL     1     -11.821  12.402  64.170  1.00  0.00    -0.413 A  
ENDBRANCH   7   8
ENDBRANCH   4   7
ENDBRANCH   2   4
BRANCH   3  18
HETATM   18  C   UNL     1      -8.216  16.368  66.233  1.00  0.00    -0.343 C  
BRANCH  18  19
HETATM   19  C   UNL     1      -7.843  17.610  67.134  1.00  0.00    -0.209 C  
BRANCH  19  20
HETATM   20  O   UNL     1      -8.978  18.330  67.746  1.00  0.00    -0.261 OA 
HETATM   21  O   UNL     1      -9.095  20.490  67.239  1.00  0.00    -0.378 OA 
HETATM   22  O   UNL     1     -11.075  19.149  67.703  1.00  0.00    -0.362 OA 
HETATM   23  P   UNL     1      -9.890  19.225  66.579  1.00  0.00    -0.430 P  
HETATM   24  O   UNL     1     -10.706  20.025  65.535  1.00  0.00    -0.426 OA 
ENDBRANCH  19  20
ENDBRANCH  18  19
ENDBRANCH   3  18
BRANCH   3  25
HETATM   25  S   UNL     1      -8.555  14.263  68.169  1.00  0.00    -0.181 SA 
BRANCH  25  26
HETATM   26  C   UNL     1      -7.074  13.352  67.659  1.00  0.00    -0.162 C  
HETATM   27  O   UNL     1      -6.051  13.944  67.333  1.00  0.00    -0.345 OA 
BRANCH  26  28
HETATM   28  C   UNL     1      -7.114  11.811  67.540  1.00  0.00    -0.113 A  
HETATM   29  C   UNL     1      -8.049   9.663  68.383  1.00  0.00    -0.104 A  
HETATM   30  C   UNL     1      -7.928  11.069  68.438  1.00  0.00    -0.131 A  
HETATM   31  C   UNL     1      -6.464  11.052  66.563  1.00  0.00    -0.132 A  
HETATM   32  C   UNL     1      -7.370   8.952  67.401  1.00  0.00    -0.081 A  
HETATM   33  C   UNL     1      -6.583   9.652  66.486  1.00  0.00    -0.071 A  
ENDBRANCH  26  28
ENDBRANCH  25  26
ENDBRANCH   3  25
TORSDOF 9
ENDMDL
MODEL       67
REMARK 921   NORMALIZED FREE ENERGY PREDICTED BY IDOCK:   -6.14 KCAL/MOL
REMARK 922        TOTAL FREE ENERGY PREDICTED BY IDOCK:  -10.87 KCAL/MOL
REMARK 923 INTER-LIGAND FREE ENERGY PREDICTED BY IDOCK:   -9.17 KCAL/MOL
REMARK 924 INTRA-LIGAND FREE ENERGY PREDICTED BY IDOCK:   -1.71 KCAL/MOL
REMARK 927      BINDING AFFINITY PREDICTED BY RF-SCORE:    0.00 PKD
ROOT
HETATM    1  C   UNL     1     -12.095  13.016  68.848  1.00  0.00    -0.207 C  
HETATM    2  C   UNL     1     -10.934  13.910  68.380  1.00  0.00    -0.253 C  
HETATM    3  C   UNL     1     -10.104  13.452  67.394  1.00  0.00    -0.237 C  
ENDROOT
BRANCH   2   4
HETATM    4  N   UNL     1     -10.906  15.164  69.019  1.00  0.00    -0.232 N  
HETATM    5  C   UNL     1     -11.084  15.274  70.408  1.00  0.00    -0.298 C  
HETATM    6  O   UNL     1     -11.363  16.297  71.016  1.00  0.00    -0.389 OA 
BRANCH   4   7
HETATM    7  C   UNL     1     -11.221  16.390  68.253  1.00  0.00    -0.300 C  
BRANCH   7   8
HETATM    8  C   UNL     1     -10.005  17.211  67.866  1.00  0.00    -0.292 A  
HETATM    9  H2  UNL     1     -11.233  16.285  65.791  1.00  0.00     0.000 HD 
HETATM   10  C   UNL     1      -8.993  17.671  68.632  1.00  0.00    -0.261 A  
HETATM   11  N   UNL     1      -8.951  18.585  66.145  1.00  0.00    -0.492 NA 
HETATM   12  N   UNL     1      -8.107  18.687  68.325  1.00  0.00    -0.304 NA 
HETATM   13  H1  UNL     1     -10.481  17.291  64.547  1.00  0.00     0.000 HD 
HETATM   14  C   UNL     1      -7.428  20.433  66.801  1.00  0.00    -0.329 C  
HETATM   15  N   UNL     1     -10.577  17.019  65.526  1.00  0.00    -0.564 NA 
HETATM   16  C   UNL     1      -8.164  19.156  67.112  1.00  0.00    -0.270 A  
HETATM   17  C   UNL     1      -9.865  17.608  66.432  1.00  0.00    -0.309 A  
ENDBRANCH   7   8
ENDBRANCH   4   7
ENDBRANCH   2   4
BRANCH   3  18
HETATM   18  C   UNL     1     -10.539  12.196  66.516  1.00  0.00    -0.269 C  
BRANCH  18  19
HETATM   19  C   UNL     1     -10.072  12.184  65.009  1.00  0.00    -0.263 C  
BRANCH  19  20
HETATM   20  O   UNL     1     -11.017  12.764  64.033  1.00  0.00    -0.363 OA 
HETATM   21  O   UNL     1     -13.124  12.098  64.264  1.00  0.00    -0.723 OA 
HETATM   22  O   UNL     1     -12.538  14.300  63.402  1.00  0.00    -0.777 OA 
HETATM   23  P   UNL     1     -12.402  13.462  64.800  1.00  0.00    -0.361 P  
HETATM   24  O   UNL     1     -13.641  14.086  65.487  1.00  0.00    -0.596 OA 
ENDBRANCH  19  20
ENDBRANCH  18  19
ENDBRANCH   3  18
BRANCH   3  25
HETATM   25  S   UNL     1      -8.495  14.181  66.937  1.00  0.00    -0.002 SA 
BRANCH  25  26
HETATM   26  C   UNL     1      -7.081  13.168  67.446  1.00  0.00    -0.106 C  
HETATM   27  O   UNL     1      -5.962  13.657  67.552  1.00  0.00    -0.309 OA 
BRANCH  26  28
HETATM   28  C   UNL     1      -7.254  11.647  67.664  1.00  0.00    -0.107 A  
HETATM   29  C   UNL     1      -7.902   9.809  69.213  1.00  0.00    -0.105 A  
HETATM   30  C   UNL     1      -7.688  11.177  68.934  1.00  0.00    -0.137 A  
HETATM   31  C   UNL     1      -7.089  10.660  66.690  1.00  0.00    -0.124 A  
HETATM   32  C   UNL     1      -7.710   8.863  68.213  1.00  0.00    -0.096 A  
HETATM   33  C   UNL     1      -7.309   9.295  66.948  1.00  0.00    -0.090 A  
ENDBRANCH  26  28
ENDBRANCH  25  26
ENDBRANCH   3  25
TORSDOF 9
ENDMDL
MODEL       68
REMARK 921   NORMALIZED FREE ENERGY PREDICTED BY IDOCK:   -6.13 KCAL/MOL
REMARK 922        TOTAL FREE ENERGY PREDICTED BY IDOCK:  -10.86 KCAL/MOL
REMARK 923 INTER-LIGAND FREE ENERGY PREDICTED BY IDOCK:   -9.67 KCAL/MOL
REMARK 924 INTRA-LIGAND FREE ENERGY PREDICTED BY IDOCK:   -1.19 KCAL/MOL
REMARK 927      BINDING AFFINITY PREDICTED BY RF-SCORE:    0.00 PKD
ROOT
HETATM    1  C   UNL     1     -12.763   9.966  71.492  1.00  0.00    -0.515 C  
HETATM    2  C   UNL     1     -11.485  10.066  70.642  1.00  0.00    -0.345 C  
HETATM    3  C   UNL     1     -11.274  11.194  69.899  1.00  0.00    -0.217 C  
ENDROOT
BRANCH   2   4
HETATM    4  N   UNL     1     -10.633   8.954  70.787  1.00  0.00    -0.211 N  
HETATM    5  C   UNL     1      -9.301   9.112  71.200  1.00  0.00    -0.243 C  
HETATM    6  O   UNL     1      -8.411   8.281  71.084  1.00  0.00    -0.121 OA 
BRANCH   4   7
HETATM    7  C   UNL     1     -10.908   7.711  70.034  1.00  0.00    -0.243 C  
BRANCH   7   8
HETATM    8  C   UNL     1     -11.057   6.477  70.905  1.00  0.00    -0.345 A  
HETATM    9  H2  UNL     1      -9.733   5.970  68.745  1.00  0.00     0.000 HD 
HETATM   10  C   UNL     1     -11.849   6.265  71.978  1.00  0.00    -0.318 A  
HETATM   11  N   UNL     1     -10.124   4.306  71.521  1.00  0.00    -0.169 NA 
HETATM   12  N   UNL     1     -11.709   5.281  72.939  1.00  0.00    -0.242 NA 
HETATM   13  H1  UNL     1      -9.045   4.406  69.198  1.00  0.00     0.000 HD 
HETATM   14  C   UNL     1     -10.418   3.446  73.832  1.00  0.00    -0.257 C  
HETATM   15  N   UNL     1      -9.622   5.217  69.424  1.00  0.00    -0.146 NA 
HETATM   16  C   UNL     1     -10.805   4.374  72.710  1.00  0.00    -0.134 A  
HETATM   17  C   UNL     1     -10.212   5.289  70.573  1.00  0.00    -0.264 A  
ENDBRANCH   7   8
ENDBRANCH   4   7
ENDBRANCH   2   4
BRANCH   3  18
HETATM   18  C   UNL     1     -12.139  12.501  70.184  1.00  0.00    -0.368 C  
BRANCH  18  19
HETATM   19  C   UNL     1     -12.148  13.609  69.060  1.00  0.00    -0.309 C  
BRANCH  19  20
HETATM   20  O   UNL     1     -12.051  15.007  69.528  1.00  0.00    -0.302 OA 
HETATM   21  O   UNL     1     -13.504  15.565  71.112  1.00  0.00    -0.510 OA 
HETATM   22  O   UNL     1     -11.298  16.586  70.946  1.00  0.00    -0.321 OA 
HETATM   23  P   UNL     1     -11.940  15.113  71.251  1.00  0.00    -0.422 P  
HETATM   24  O   UNL     1     -11.841  15.208  72.793  1.00  0.00    -0.391 OA 
ENDBRANCH  19  20
ENDBRANCH  18  19
ENDBRANCH   3  18
BRANCH   3  25
HETATM   25  S   UNL     1     -10.027  11.379  68.578  1.00  0.00    -0.196 SA 
BRANCH  25  26
HETATM   26  C   UNL     1     -10.480  10.527  67.044  1.00  0.00    -0.249 C  
HETATM   27  O   UNL     1     -10.332   9.316  66.929  1.00  0.00    -0.249 OA 
BRANCH  26  28
HETATM   28  C   UNL     1     -10.973  11.337  65.823  1.00  0.00    -0.211 A  
HETATM   29  C   UNL     1     -10.899  11.672  63.357  1.00  0.00    -0.453 A  
HETATM   30  C   UNL     1     -10.481  11.007  64.531  1.00  0.00    -0.411 A  
HETATM   31  C   UNL     1     -11.936  12.349  65.851  1.00  0.00    -0.434 A  
HETATM   32  C   UNL     1     -11.849  12.683  63.440  1.00  0.00    -0.594 A  
HETATM   33  C   UNL     1     -12.371  13.014  64.690  1.00  0.00    -0.480 A  
ENDBRANCH  26  28
ENDBRANCH  25  26
ENDBRANCH   3  25
TORSDOF 9
ENDMDL
MODEL       69
REMARK 921   NORMALIZED FREE ENERGY PREDICTED BY IDOCK:   -6.13 KCAL/MOL
REMARK 922        TOTAL FREE ENERGY PREDICTED BY IDOCK:  -10.86 KCAL/MOL
REMARK 923 INTER-LIGAND FREE ENERGY PREDICTED BY IDOCK:   -9.39 KCAL/MOL
REMARK 924 INTRA-LIGAND FREE ENERGY PREDICTED BY IDOCK:   -1.47 KCAL/MOL
REMARK 927      BINDING AFFINITY PREDICTED BY RF-SCORE:    0.00 PKD
ROOT
HETATM    1  C   UNL     1      -8.645  14.806  66.156  1.00  0.00     0.386 C  
HETATM    2  C   UNL     1      -8.735  13.944  67.426  1.00  0.00    -0.203 C  
HETATM    3  C   UNL     1      -9.170  12.652  67.316  1.00  0.00    -0.195 C  
ENDROOT
BRANCH   2   4
HETATM    4  N   UNL     1      -8.287  14.610  68.583  1.00  0.00    -0.161 N  
HETATM    5  C   UNL     1      -7.172  14.147  69.299  1.00  0.00    -0.049 C  
HETATM    6  O   UNL     1      -6.875  14.458  70.443  1.00  0.00    -0.052 OA 
BRANCH   4   7
HETATM    7  C   UNL     1      -9.225  15.445  69.364  1.00  0.00    -0.268 C  
BRANCH   7   8
HETATM    8  C   UNL     1      -9.577  16.767  68.707  1.00  0.00    -0.260 A  
HETATM    9  H2  UNL     1      -7.198  16.802  69.715  1.00  0.00     0.000 HD 
HETATM   10  C   UNL     1     -10.769  17.228  68.273  1.00  0.00    -0.349 A  
HETATM   11  N   UNL     1      -8.724  18.781  67.622  1.00  0.00    -0.277 NA 
HETATM   12  N   UNL     1     -10.992  18.262  67.383  1.00  0.00    -0.238 NA 
HETATM   13  H1  UNL     1      -6.576  18.251  68.917  1.00  0.00     0.000 HD 
HETATM   14  C   UNL     1     -10.078  19.910  65.874  1.00  0.00    -0.519 C  
HETATM   15  N   UNL     1      -7.333  17.587  69.078  1.00  0.00    -0.233 NA 
HETATM   16  C   UNL     1      -9.951  18.960  67.036  1.00  0.00    -0.340 A  
HETATM   17  C   UNL     1      -8.467  17.741  68.472  1.00  0.00    -0.296 A  
ENDBRANCH   7   8
ENDBRANCH   4   7
ENDBRANCH   2   4
BRANCH   3  18
HETATM   18  C   UNL     1      -9.236  11.960  65.884  1.00  0.00    -0.147 C  
BRANCH  18  19
HETATM   19  C   UNL     1     -10.637  11.394  65.429  1.00  0.00    -0.275 C  
BRANCH  19  20
HETATM   20  O   UNL     1     -11.286  12.098  64.303  1.00  0.00    -0.309 OA 
HETATM   21  O   UNL     1     -13.506  12.127  64.375  1.00  0.00    -0.675 OA 
HETATM   22  O   UNL     1     -12.209  13.923  63.361  1.00  0.00    -0.635 OA 
HETATM   23  P   UNL     1     -12.438  13.270  64.843  1.00  0.00    -0.348 P  
HETATM   24  O   UNL     1     -13.468  14.320  65.326  1.00  0.00    -0.564 OA 
ENDBRANCH  19  20
ENDBRANCH  18  19
ENDBRANCH   3  18
BRANCH   3  25
HETATM   25  S   UNL     1      -9.674  11.580  68.705  1.00  0.00    -0.122 SA 
BRANCH  25  26
HETATM   26  C   UNL     1     -11.466  11.545  68.968  1.00  0.00    -0.291 C  
HETATM   27  O   UNL     1     -12.181  10.772  68.341  1.00  0.00    -0.470 OA 
BRANCH  26  28
HETATM   28  C   UNL     1     -12.129  12.563  69.925  1.00  0.00    -0.322 A  
HETATM   29  C   UNL     1     -13.218  12.974  72.126  1.00  0.00    -0.558 A  
HETATM   30  C   UNL     1     -12.626  12.110  71.178  1.00  0.00    -0.360 A  
HETATM   31  C   UNL     1     -12.232  13.940  69.708  1.00  0.00    -0.388 A  
HETATM   32  C   UNL     1     -13.311  14.334  71.856  1.00  0.00    -0.470 A  
HETATM   33  C   UNL     1     -12.809  14.815  70.646  1.00  0.00    -0.398 A  
ENDBRANCH  26  28
ENDBRANCH  25  26
ENDBRANCH   3  25
TORSDOF 9
ENDMDL
MODEL       70
REMARK 921   NORMALIZED FREE ENERGY PREDICTED BY IDOCK:   -6.12 KCAL/MOL
REMARK 922        TOTAL FREE ENERGY PREDICTED BY IDOCK:  -10.84 KCAL/MOL
REMARK 923 INTER-LIGAND FREE ENERGY PREDICTED BY IDOCK:   -9.44 KCAL/MOL
REMARK 924 INTRA-LIGAND FREE ENERGY PREDICTED BY IDOCK:   -1.40 KCAL/MOL
REMARK 927      BINDING AFFINITY PREDICTED BY RF-SCORE:    0.00 PKD
ROOT
HETATM    1  C   UNL     1      -7.868  13.632  66.928  1.00  0.00     0.274 C  
HETATM    2  C   UNL     1      -9.404  13.558  66.927  1.00  0.00    -0.253 C  
HETATM    3  C   UNL     1     -10.100  14.279  67.858  1.00  0.00    -0.233 C  
ENDROOT
BRANCH   2   4
HETATM    4  N   UNL     1      -9.922  12.763  65.886  1.00  0.00    -0.270 N  
HETATM    5  C   UNL     1     -10.488  13.348  64.741  1.00  0.00    -0.403 C  
HETATM    6  O   UNL     1     -11.209  12.784  63.931  1.00  0.00    -0.386 OA 
BRANCH   4   7
HETATM    7  C   UNL     1     -10.369  11.382  66.164  1.00  0.00    -0.248 C  
BRANCH   7   8
HETATM    8  C   UNL     1      -9.390  10.310  65.722  1.00  0.00    -0.233 A  
HETATM    9  H2  UNL     1     -10.985   9.447  67.562  1.00  0.00     0.000 HD 
HETATM   10  C   UNL     1      -8.276  10.414  64.965  1.00  0.00    -0.152 A  
HETATM   11  N   UNL     1      -8.963   7.915  65.515  1.00  0.00    -0.041 NA 
HETATM   12  N   UNL     1      -7.617   9.395  64.302  1.00  0.00    -0.110 NA 
HETATM   13  H1  UNL     1     -10.688   7.712  67.400  1.00  0.00     0.000 HD 
HETATM   14  C   UNL     1      -7.545   7.068  63.661  1.00  0.00    -0.105 C  
HETATM   15  N   UNL     1     -10.504   8.671  67.106  1.00  0.00    -0.298 NA 
HETATM   16  C   UNL     1      -8.029   8.185  64.548  1.00  0.00    -0.142 A  
HETATM   17  C   UNL     1      -9.659   8.904  66.153  1.00  0.00    -0.265 A  
ENDBRANCH   7   8
ENDBRANCH   4   7
ENDBRANCH   2   4
BRANCH   3  18
HETATM   18  C   UNL     1      -9.365  15.428  68.678  1.00  0.00    -0.202 C  
BRANCH  18  19
HETATM   19  C   UNL     1     -10.196  16.736  68.976  1.00  0.00    -0.310 C  
BRANCH  19  20
HETATM   20  O   UNL     1     -10.711  17.459  67.795  1.00  0.00    -0.373 OA 
HETATM   21  O   UNL     1      -9.826  19.471  67.474  1.00  0.00    -0.324 OA 
HETATM   22  O   UNL     1     -10.601  18.077  65.632  1.00  0.00    -0.599 OA 
HETATM   23  P   UNL     1      -9.437  18.044  66.781  1.00  0.00    -0.312 P  
HETATM   24  O   UNL     1      -8.297  18.567  65.873  1.00  0.00    -0.494 OA 
ENDBRANCH  19  20
ENDBRANCH  18  19
ENDBRANCH   3  18
BRANCH   3  25
HETATM   25  S   UNL     1     -11.871  14.074  68.253  1.00  0.00    -0.360 SA 
BRANCH  25  26
HETATM   26  C   UNL     1     -12.161  13.421  69.918  1.00  0.00    -0.322 C  
HETATM   27  O   UNL     1     -12.128  12.216  70.137  1.00  0.00    -0.324 OA 
BRANCH  26  28
HETATM   28  C   UNL     1     -12.547  14.377  71.070  1.00  0.00    -0.419 A  
HETATM   29  C   UNL     1     -14.362  15.372  72.453  1.00  0.00    -0.489 A  
HETATM   30  C   UNL     1     -13.920  14.544  71.398  1.00  0.00    -0.432 A  
HETATM   31  C   UNL     1     -11.652  15.064  71.896  1.00  0.00    -0.426 A  
HETATM   32  C   UNL     1     -13.432  16.046  73.236  1.00  0.00    -0.570 A  
HETATM   33  C   UNL     1     -12.075  15.883  72.958  1.00  0.00    -0.615 A  
ENDBRANCH  26  28
ENDBRANCH  25  26
ENDBRANCH   3  25
TORSDOF 9
ENDMDL
MODEL       71
REMARK 921   NORMALIZED FREE ENERGY PREDICTED BY IDOCK:   -6.11 KCAL/MOL
REMARK 922        TOTAL FREE ENERGY PREDICTED BY IDOCK:  -10.83 KCAL/MOL
REMARK 923 INTER-LIGAND FREE ENERGY PREDICTED BY IDOCK:   -9.54 KCAL/MOL
REMARK 924 INTRA-LIGAND FREE ENERGY PREDICTED BY IDOCK:   -1.29 KCAL/MOL
REMARK 927      BINDING AFFINITY PREDICTED BY RF-SCORE:    0.00 PKD
ROOT
HETATM    1  C   UNL     1      -9.675  11.106  66.174  1.00  0.00    -0.253 C  
HETATM    2  C   UNL     1     -10.051  11.949  67.404  1.00  0.00    -0.196 C  
HETATM    3  C   UNL     1      -9.919  13.308  67.338  1.00  0.00    -0.233 C  
ENDROOT
BRANCH   2   4
HETATM    4  N   UNL     1     -10.557  11.180  68.470  1.00  0.00    -0.181 N  
HETATM    5  C   UNL     1     -11.893  11.306  68.884  1.00  0.00    -0.345 C  
HETATM    6  O   UNL     1     -12.353  10.920  69.949  1.00  0.00    -0.326 OA 
BRANCH   4   7
HETATM    7  C   UNL     1      -9.636  10.645  69.496  1.00  0.00    -0.031 C  
BRANCH   7   8
HETATM    8  C   UNL     1      -9.431   9.143  69.426  1.00  0.00    -0.161 A  
HETATM    9  H2  UNL     1      -9.760   9.950  71.858  1.00  0.00     0.000 HD 
HETATM   10  C   UNL     1      -9.012   8.375  68.398  1.00  0.00    -0.136 A  
HETATM   11  N   UNL     1      -9.841   6.989  70.499  1.00  0.00    -0.179 NA 
HETATM   12  N   UNL     1      -9.168   7.008  68.258  1.00  0.00    -0.129 NA 
HETATM   13  H1  UNL     1     -10.072   8.392  72.631  1.00  0.00     0.000 HD 
HETATM   14  C   UNL     1     -10.089   4.945  69.111  1.00  0.00    -0.229 C  
HETATM   15  N   UNL     1      -9.865   8.938  71.794  1.00  0.00    -0.319 NA 
HETATM   16  C   UNL     1      -9.642   6.372  69.290  1.00  0.00    -0.137 A  
HETATM   17  C   UNL     1      -9.735   8.344  70.652  1.00  0.00    -0.178 A  
ENDBRANCH   7   8
ENDBRANCH   4   7
ENDBRANCH   2   4
BRANCH   3  18
HETATM   18  C   UNL     1      -9.726  14.015  65.924  1.00  0.00    -0.250 C  
BRANCH  18  19
HETATM   19  C   UNL     1     -10.545  15.340  65.671  1.00  0.00    -0.362 C  
BRANCH  19  20
HETATM   20  O   UNL     1      -9.746  16.560  65.433  1.00  0.00    -0.496 OA 
HETATM   21  O   UNL     1     -10.926  18.352  64.861  1.00  0.00    -0.598 OA 
HETATM   22  O   UNL     1      -8.835  18.508  66.100  1.00  0.00    -0.463 OA 
HETATM   23  P   UNL     1     -10.344  17.917  66.323  1.00  0.00    -0.227 P  
HETATM   24  O   UNL     1     -10.879  19.132  67.121  1.00  0.00    -0.464 OA 
ENDBRANCH  19  20
ENDBRANCH  18  19
ENDBRANCH   3  18
BRANCH   3  25
HETATM   25  S   UNL     1      -9.976  14.451  68.760  1.00  0.00    -0.192 SA 
BRANCH  25  26
HETATM   26  C   UNL     1     -11.648  15.037  69.139  1.00  0.00    -0.310 C  
HETATM   27  O   UNL     1     -12.382  15.463  68.255  1.00  0.00     0.073 OA 
BRANCH  26  28
HETATM   28  C   UNL     1     -12.137  15.092  70.605  1.00  0.00    -0.378 A  
HETATM   29  C   UNL     1     -12.019  16.232  72.815  1.00  0.00    -0.636 A  
HETATM   30  C   UNL     1     -11.609  16.088  71.472  1.00  0.00    -0.529 A  
HETATM   31  C   UNL     1     -13.127  14.282  71.166  1.00  0.00    -0.412 A  
HETATM   32  C   UNL     1     -12.998  15.391  73.331  1.00  0.00    -0.662 A  
HETATM   33  C   UNL     1     -13.556  14.420  72.499  1.00  0.00    -0.598 A  
ENDBRANCH  26  28
ENDBRANCH  25  26
ENDBRANCH   3  25
TORSDOF 9
ENDMDL
MODEL       72
REMARK 921   NORMALIZED FREE ENERGY PREDICTED BY IDOCK:   -6.09 KCAL/MOL
REMARK 922        TOTAL FREE ENERGY PREDICTED BY IDOCK:  -10.80 KCAL/MOL
REMARK 923 INTER-LIGAND FREE ENERGY PREDICTED BY IDOCK:   -9.29 KCAL/MOL
REMARK 924 INTRA-LIGAND FREE ENERGY PREDICTED BY IDOCK:   -1.51 KCAL/MOL
REMARK 927      BINDING AFFINITY PREDICTED BY RF-SCORE:    0.00 PKD
ROOT
HETATM    1  C   UNL     1     -10.980  12.166  66.095  1.00  0.00    -0.335 C  
HETATM    2  C   UNL     1      -9.881  12.033  67.162  1.00  0.00    -0.196 C  
HETATM    3  C   UNL     1      -9.655  10.809  67.727  1.00  0.00    -0.162 C  
ENDROOT
BRANCH   2   4
HETATM    4  N   UNL     1      -9.181  13.233  67.391  1.00  0.00    -0.207 N  
HETATM    5  C   UNL     1      -7.790  13.306  67.212  1.00  0.00    -0.108 C  
HETATM    6  O   UNL     1      -7.056  14.182  67.647  1.00  0.00    -0.161 OA 
BRANCH   4   7
HETATM    7  C   UNL     1      -9.745  14.255  68.299  1.00  0.00    -0.221 C  
BRANCH   7   8
HETATM    8  C   UNL     1     -10.149  15.546  67.609  1.00  0.00    -0.243 A  
HETATM    9  H2  UNL     1     -10.924  15.495  70.073  1.00  0.00     0.000 HD 
HETATM   10  C   UNL     1     -10.134  15.867  66.298  1.00  0.00    -0.301 A  
HETATM   11  N   UNL     1     -10.704  17.906  67.891  1.00  0.00    -0.372 NA 
HETATM   12  N   UNL     1     -10.171  17.135  65.748  1.00  0.00    -0.572 NA 
HETATM   13  H1  UNL     1     -11.312  17.207  70.281  1.00  0.00     0.000 HD 
HETATM   14  C   UNL     1     -10.166  19.525  66.087  1.00  0.00    -0.588 C  
HETATM   15  N   UNL     1     -10.981  16.441  69.694  1.00  0.00    -0.336 NA 
HETATM   16  C   UNL     1     -10.387  18.117  66.573  1.00  0.00    -0.386 A  
HETATM   17  C   UNL     1     -10.633  16.669  68.469  1.00  0.00    -0.338 A  
ENDBRANCH   7   8
ENDBRANCH   4   7
ENDBRANCH   2   4
BRANCH   3  18
HETATM   18  C   UNL     1     -10.260   9.501  67.048  1.00  0.00    -0.321 C  
BRANCH  18  19
HETATM   19  C   UNL     1      -9.314   8.701  66.070  1.00  0.00    -0.218 C  
BRANCH  19  20
HETATM   20  O   UNL     1      -9.487   7.234  66.057  1.00  0.00    -0.067 OA 
HETATM   21  O   UNL     1      -9.018   6.221  67.977  1.00  0.00    -0.116 OA 
HETATM   22  O   UNL     1     -10.690   5.367  66.425  1.00  0.00    -0.297 OA 
HETATM   23  P   UNL     1     -10.464   6.680  67.373  1.00  0.00    -0.350 P  
HETATM   24  O   UNL     1     -11.339   6.184  68.550  1.00  0.00    -0.289 OA 
ENDBRANCH  19  20
ENDBRANCH  18  19
ENDBRANCH   3  18
BRANCH   3  25
HETATM   25  S   UNL     1      -8.660  10.497  69.225  1.00  0.00    -0.080 SA 
BRANCH  25  26
HETATM   26  C   UNL     1      -9.393   9.258  70.325  1.00  0.00    -0.239 C  
HETATM   27  O   UNL     1      -8.816   8.201  70.558  1.00  0.00    -0.139 OA 
BRANCH  26  28
HETATM   28  C   UNL     1     -10.806   9.480  70.912  1.00  0.00    -0.407 A  
HETATM   29  C   UNL     1     -12.678   8.571  72.279  1.00  0.00    -0.420 A  
HETATM   30  C   UNL     1     -11.406   8.444  71.680  1.00  0.00    -0.349 A  
HETATM   31  C   UNL     1     -11.552  10.658  70.820  1.00  0.00    -0.388 A  
HETATM   32  C   UNL     1     -13.387   9.759  72.145  1.00  0.00    -0.527 A  
HETATM   33  C   UNL     1     -12.816  10.805  71.420  1.00  0.00    -0.557 A  
ENDBRANCH  26  28
ENDBRANCH  25  26
ENDBRANCH   3  25
TORSDOF 9
ENDMDL
MODEL       73
REMARK 921   NORMALIZED FREE ENERGY PREDICTED BY IDOCK:   -6.08 KCAL/MOL
REMARK 922        TOTAL FREE ENERGY PREDICTED BY IDOCK:  -10.79 KCAL/MOL
REMARK 923 INTER-LIGAND FREE ENERGY PREDICTED BY IDOCK:   -9.50 KCAL/MOL
REMARK 924 INTRA-LIGAND FREE ENERGY PREDICTED BY IDOCK:   -1.30 KCAL/MOL
REMARK 927      BINDING AFFINITY PREDICTED BY RF-SCORE:    0.00 PKD
ROOT
HETATM    1  C   UNL     1     -10.868   8.391  67.412  1.00  0.00    -0.091 C  
HETATM    2  C   UNL     1     -10.640   9.740  68.114  1.00  0.00    -0.231 C  
HETATM    3  C   UNL     1     -10.216  10.807  67.371  1.00  0.00    -0.204 C  
ENDROOT
BRANCH   2   4
HETATM    4  N   UNL     1     -10.964   9.715  69.484  1.00  0.00    -0.229 N  
HETATM    5  C   UNL     1     -12.058  10.440  69.983  1.00  0.00    -0.222 C  
HETATM    6  O   UNL     1     -12.257  10.722  71.156  1.00  0.00    -0.348 OA 
BRANCH   4   7
HETATM    7  C   UNL     1      -9.922   9.396  70.484  1.00  0.00    -0.267 C  
BRANCH   7   8
HETATM    8  C   UNL     1     -10.044   8.011  71.090  1.00  0.00    -0.221 A  
HETATM    9  H2  UNL     1      -8.327   9.463  72.362  1.00  0.00     0.000 HD 
HETATM   10  C   UNL     1     -10.646   6.904  70.605  1.00  0.00    -0.222 A  
HETATM   11  N   UNL     1      -9.797   6.650  73.102  1.00  0.00    -0.163 NA 
HETATM   12  N   UNL     1     -11.036   5.784  71.316  1.00  0.00    -0.256 NA 
HETATM   13  H1  UNL     1      -8.161   8.485  73.825  1.00  0.00     0.000 HD 
HETATM   14  C   UNL     1     -11.274   4.684  73.452  1.00  0.00    -0.423 C  
HETATM   15  N   UNL     1      -8.579   8.639  72.907  1.00  0.00    -0.400 NA 
HETATM   16  C   UNL     1     -10.656   5.728  72.559  1.00  0.00    -0.221 A  
HETATM   17  C   UNL     1      -9.431   7.786  72.435  1.00  0.00    -0.178 A  
ENDBRANCH   7   8
ENDBRANCH   4   7
ENDBRANCH   2   4
BRANCH   3  18
HETATM   18  C   UNL     1     -10.301  10.747  65.782  1.00  0.00    -0.295 C  
BRANCH  18  19
HETATM   19  C   UNL     1      -9.980  12.078  64.999  1.00  0.00    -0.233 C  
BRANCH  19  20
HETATM   20  O   UNL     1     -10.992  12.512  64.014  1.00  0.00    -0.337 OA 
HETATM   21  O   UNL     1     -13.093  12.063  64.577  1.00  0.00    -0.606 OA 
HETATM   22  O   UNL     1     -12.489  13.991  63.216  1.00  0.00    -0.795 OA 
HETATM   23  P   UNL     1     -12.249  13.452  64.741  1.00  0.00    -0.408 P  
HETATM   24  O   UNL     1     -13.374  14.294  65.391  1.00  0.00    -0.649 OA 
ENDBRANCH  19  20
ENDBRANCH  18  19
ENDBRANCH   3  18
BRANCH   3  25
HETATM   25  S   UNL     1      -9.565  12.375  68.040  1.00  0.00    -0.214 SA 
BRANCH  25  26
HETATM   26  C   UNL     1     -10.840  13.645  68.255  1.00  0.00    -0.251 C  
HETATM   27  O   UNL     1     -11.988  13.340  68.556  1.00  0.00    -0.339 OA 
BRANCH  26  28
HETATM   28  C   UNL     1     -10.514  15.129  67.969  1.00  0.00    -0.247 A  
HETATM   29  C   UNL     1     -10.464  17.469  68.816  1.00  0.00    -0.318 A  
HETATM   30  C   UNL     1     -10.760  16.098  68.979  1.00  0.00    -0.287 A  
HETATM   31  C   UNL     1      -9.918  15.623  66.805  1.00  0.00    -0.258 A  
HETATM   32  C   UNL     1      -9.885  17.913  67.633  1.00  0.00    -0.304 A  
HETATM   33  C   UNL     1      -9.606  16.983  66.631  1.00  0.00    -0.279 A  
ENDBRANCH  26  28
ENDBRANCH  25  26
ENDBRANCH   3  25
TORSDOF 9
ENDMDL
MODEL       74
REMARK 921   NORMALIZED FREE ENERGY PREDICTED BY IDOCK:   -6.08 KCAL/MOL
REMARK 922        TOTAL FREE ENERGY PREDICTED BY IDOCK:  -10.78 KCAL/MOL
REMARK 923 INTER-LIGAND FREE ENERGY PREDICTED BY IDOCK:  -10.00 KCAL/MOL
REMARK 924 INTRA-LIGAND FREE ENERGY PREDICTED BY IDOCK:   -0.78 KCAL/MOL
REMARK 927      BINDING AFFINITY PREDICTED BY RF-SCORE:    0.00 PKD
ROOT
HETATM    1  C   UNL     1     -10.248  16.744  66.610  1.00  0.00    -0.310 C  
HETATM    2  C   UNL     1      -9.740  15.447  67.262  1.00  0.00    -0.212 C  
HETATM    3  C   UNL     1     -10.589  14.380  67.358  1.00  0.00    -0.270 C  
ENDROOT
BRANCH   2   4
HETATM    4  N   UNL     1      -8.386  15.512  67.646  1.00  0.00    -0.148 N  
HETATM    5  C   UNL     1      -7.417  14.709  67.022  1.00  0.00     0.179 C  
HETATM    6  O   UNL     1      -6.298  14.471  67.453  1.00  0.00    -0.322 OA 
BRANCH   4   7
HETATM    7  C   UNL     1      -8.025  15.984  69.000  1.00  0.00    -0.224 C  
BRANCH   7   8
HETATM    8  C   UNL     1      -7.575  17.432  69.055  1.00  0.00    -0.169 A  
HETATM    9  H2  UNL     1      -5.867  15.856  70.185  1.00  0.00     0.000 HD 
HETATM   10  C   UNL     1      -8.263  18.562  68.787  1.00  0.00    -0.250 A  
HETATM   11  N   UNL     1      -5.677  18.960  69.208  1.00  0.00    -0.211 NA 
HETATM   12  N   UNL     1      -7.741  19.813  68.511  1.00  0.00    -0.319 NA 
HETATM   13  H1  UNL     1      -4.489  16.959  70.281  1.00  0.00     0.000 HD 
HETATM   14  C   UNL     1      -5.796  21.190  68.122  1.00  0.00    -0.380 C  
HETATM   15  N   UNL     1      -5.455  16.773  70.012  1.00  0.00    -0.193 NA 
HETATM   16  C   UNL     1      -6.456  19.949  68.665  1.00  0.00    -0.291 A  
HETATM   17  C   UNL     1      -6.158  17.703  69.450  1.00  0.00    -0.242 A  
ENDBRANCH   7   8
ENDBRANCH   4   7
ENDBRANCH   2   4
BRANCH   3  18
HETATM   18  C   UNL     1     -11.934  14.362  66.505  1.00  0.00    -0.406 C  
BRANCH  18  19
HETATM   19  C   UNL     1     -12.653  12.967  66.337  1.00  0.00     0.248 C  
BRANCH  19  20
HETATM   20  O   UNL     1     -13.079  12.619  64.965  1.00  0.00    -0.808 OA 
HETATM   21  O   UNL     1     -12.171  13.859  63.362  1.00  0.00    -0.635 OA 
HETATM   22  O   UNL     1     -12.809  11.535  63.011  1.00  0.00    -0.284 OA 
HETATM   23  P   UNL     1     -11.733  12.382  63.904  1.00  0.00    -0.540 P  
HETATM   24  O   UNL     1     -10.529  12.170  62.955  1.00  0.00    -0.298 OA 
ENDBRANCH  19  20
ENDBRANCH  18  19
ENDBRANCH   3  18
BRANCH   3  25
HETATM   25  S   UNL     1     -10.316  12.893  68.381  1.00  0.00    -0.231 SA 
BRANCH  25  26
HETATM   26  C   UNL     1     -11.774  12.410  69.343  1.00  0.00    -0.322 C  
HETATM   27  O   UNL     1     -12.318  11.327  69.162  1.00  0.00    -0.403 OA 
BRANCH  26  28
HETATM   28  C   UNL     1     -12.406  13.404  70.345  1.00  0.00    -0.382 A  
HETATM   29  C   UNL     1     -13.527  13.742  72.542  1.00  0.00    -0.682 A  
HETATM   30  C   UNL     1     -12.957  12.905  71.557  1.00  0.00    -0.388 A  
HETATM   31  C   UNL     1     -12.430  14.794  70.210  1.00  0.00    -0.393 A  
HETATM   32  C   UNL     1     -13.540  15.119  72.353  1.00  0.00    -0.575 A  
HETATM   33  C   UNL     1     -12.983  15.643  71.186  1.00  0.00    -0.539 A  
ENDBRANCH  26  28
ENDBRANCH  25  26
ENDBRANCH   3  25
TORSDOF 9
ENDMDL
MODEL       75
REMARK 921   NORMALIZED FREE ENERGY PREDICTED BY IDOCK:   -6.08 KCAL/MOL
REMARK 922        TOTAL FREE ENERGY PREDICTED BY IDOCK:  -10.78 KCAL/MOL
REMARK 923 INTER-LIGAND FREE ENERGY PREDICTED BY IDOCK:   -9.50 KCAL/MOL
REMARK 924 INTRA-LIGAND FREE ENERGY PREDICTED BY IDOCK:   -1.29 KCAL/MOL
REMARK 927      BINDING AFFINITY PREDICTED BY RF-SCORE:    0.00 PKD
ROOT
HETATM    1  C   UNL     1     -10.363   7.966  67.204  1.00  0.00    -0.398 C  
HETATM    2  C   UNL     1     -10.179   8.906  68.407  1.00  0.00    -0.199 C  
HETATM    3  C   UNL     1     -10.797   8.595  69.587  1.00  0.00    -0.157 C  
ENDROOT
BRANCH   2   4
HETATM    4  N   UNL     1      -9.316   9.987  68.141  1.00  0.00    -0.131 N  
HETATM    5  C   UNL     1      -7.926   9.802  68.066  1.00  0.00    -0.097 C  
HETATM    6  O   UNL     1      -7.082  10.684  68.130  1.00  0.00    -0.079 OA 
BRANCH   4   7
HETATM    7  C   UNL     1      -9.745  11.367  68.454  1.00  0.00    -0.203 C  
BRANCH   7   8
HETATM    8  C   UNL     1     -10.470  12.066  67.318  1.00  0.00    -0.241 A  
HETATM    9  H2  UNL     1      -8.159  13.128  67.775  1.00  0.00     0.000 HD 
HETATM   10  C   UNL     1     -11.757  11.969  66.925  1.00  0.00    -0.266 A  
HETATM   11  N   UNL     1     -10.244  13.396  65.283  1.00  0.00    -0.310 NA 
HETATM   12  N   UNL     1     -12.288  12.339  65.702  1.00  0.00    -0.563 NA 
HETATM   13  H1  UNL     1      -7.990  14.079  66.294  1.00  0.00     0.000 HD 
HETATM   14  C   UNL     1     -11.917  13.163  63.463  1.00  0.00    -0.580 C  
HETATM   15  N   UNL     1      -8.528  13.435  66.875  1.00  0.00    -0.114 NA 
HETATM   16  C   UNL     1     -11.492  12.979  64.897  1.00  0.00    -0.316 A  
HETATM   17  C   UNL     1      -9.680  13.009  66.468  1.00  0.00    -0.266 A  
ENDBRANCH   7   8
ENDBRANCH   4   7
ENDBRANCH   2   4
BRANCH   3  18
HETATM   18  C   UNL     1     -11.386   7.133  69.809  1.00  0.00    -0.158 C  
BRANCH  18  19
HETATM   19  C   UNL     1     -12.097   6.852  71.190  1.00  0.00    -0.381 C  
BRANCH  19  20
HETATM   20  O   UNL     1     -11.498   5.789  72.023  1.00  0.00    -0.266 OA 
HETATM   21  O   UNL     1      -9.304   5.963  72.323  1.00  0.00    -0.145 OA 
HETATM   22  O   UNL     1     -10.775   4.968  73.991  1.00  0.00    -0.283 OA 
HETATM   23  P   UNL     1     -10.525   6.430  73.302  1.00  0.00    -0.285 P  
HETATM   24  O   UNL     1      -9.656   7.005  74.447  1.00  0.00    -0.251 OA 
ENDBRANCH  19  20
ENDBRANCH  18  19
ENDBRANCH   3  18
BRANCH   3  25
HETATM   25  S   UNL     1     -10.995   9.721  71.011  1.00  0.00    -0.284 SA 
BRANCH  25  26
HETATM   26  C   UNL     1     -12.627  10.505  71.079  1.00  0.00    -0.400 C  
HETATM   27  O   UNL     1     -13.647   9.858  70.868  1.00  0.00    -0.301 OA 
BRANCH  26  28
HETATM   28  C   UNL     1     -12.747  12.029  71.315  1.00  0.00    -0.382 A  
HETATM   29  C   UNL     1     -12.208  14.325  70.517  1.00  0.00    -0.427 A  
HETATM   30  C   UNL     1     -12.125  12.920  70.398  1.00  0.00    -0.385 A  
HETATM   31  C   UNL     1     -13.485  12.642  72.330  1.00  0.00    -0.541 A  
HETATM   32  C   UNL     1     -12.943  14.886  71.554  1.00  0.00    -0.419 A  
HETATM   33  C   UNL     1     -13.587  14.039  72.457  1.00  0.00    -0.670 A  
ENDBRANCH  26  28
ENDBRANCH  25  26
ENDBRANCH   3  25
TORSDOF 9
ENDMDL
MODEL       76
REMARK 921   NORMALIZED FREE ENERGY PREDICTED BY IDOCK:   -6.07 KCAL/MOL
REMARK 922        TOTAL FREE ENERGY PREDICTED BY IDOCK:  -10.77 KCAL/MOL
REMARK 923 INTER-LIGAND FREE ENERGY PREDICTED BY IDOCK:   -9.66 KCAL/MOL
REMARK 924 INTRA-LIGAND FREE ENERGY PREDICTED BY IDOCK:   -1.10 KCAL/MOL
REMARK 927      BINDING AFFINITY PREDICTED BY RF-SCORE:    0.00 PKD
ROOT
HETATM    1  C   UNL     1      -9.871  15.046  66.670  1.00  0.00    -0.266 C  
HETATM    2  C   UNL     1      -8.974  14.054  67.430  1.00  0.00    -0.206 C  
HETATM    3  C   UNL     1      -9.361  12.746  67.514  1.00  0.00    -0.189 C  
ENDROOT
BRANCH   2   4
HETATM    4  N   UNL     1      -7.789  14.639  67.918  1.00  0.00    -0.124 N  
HETATM    5  C   UNL     1      -6.531  14.116  67.577  1.00  0.00    -0.044 C  
HETATM    6  O   UNL     1      -5.478  14.350  68.153  1.00  0.00    -0.108 OA 
BRANCH   4   7
HETATM    7  C   UNL     1      -7.817  15.431  69.166  1.00  0.00    -0.212 C  
BRANCH   7   8
HETATM    8  C   UNL     1      -7.843  16.933  68.949  1.00  0.00    -0.233 A  
HETATM    9  H2  UNL     1      -5.799  16.205  70.352  1.00  0.00     0.000 HD 
HETATM   10  C   UNL     1      -8.831  17.722  68.475  1.00  0.00    -0.283 A  
HETATM   11  N   UNL     1      -6.526  18.985  68.812  1.00  0.00    -0.246 NA 
HETATM   12  N   UNL     1      -8.708  19.003  67.970  1.00  0.00    -0.297 NA 
HETATM   13  H1  UNL     1      -4.839  17.685  70.239  1.00  0.00     0.000 HD 
HETATM   14  C   UNL     1      -7.268  20.833  67.329  1.00  0.00    -0.415 C  
HETATM   15  N   UNL     1      -5.683  17.159  70.010  1.00  0.00    -0.228 NA 
HETATM   16  C   UNL     1      -7.541  19.564  68.095  1.00  0.00    -0.303 A  
HETATM   17  C   UNL     1      -6.606  17.704  69.285  1.00  0.00    -0.233 A  
ENDBRANCH   7   8
ENDBRANCH   4   7
ENDBRANCH   2   4
BRANCH   3  18
HETATM   18  C   UNL     1     -10.511  12.199  66.558  1.00  0.00    -0.254 C  
BRANCH  18  19
HETATM   19  C   UNL     1     -10.121  11.937  65.051  1.00  0.00    -0.264 C  
BRANCH  19  20
HETATM   20  O   UNL     1     -11.018  12.529  64.037  1.00  0.00    -0.337 OA 
HETATM   21  O   UNL     1     -13.171  12.049  64.301  1.00  0.00    -0.710 OA 
HETATM   22  O   UNL     1     -12.412  14.140  63.308  1.00  0.00    -0.758 OA 
HETATM   23  P   UNL     1     -12.342  13.381  64.755  1.00  0.00    -0.361 P  
HETATM   24  O   UNL     1     -13.527  14.144  65.397  1.00  0.00    -0.648 OA 
ENDBRANCH  19  20
ENDBRANCH  18  19
ENDBRANCH   3  18
BRANCH   3  25
HETATM   25  S   UNL     1      -8.644  11.496  68.635  1.00  0.00    -0.058 SA 
BRANCH  25  26
HETATM   26  C   UNL     1      -9.749  10.093  68.942  1.00  0.00    -0.187 C  
HETATM   27  O   UNL     1      -9.682   9.077  68.260  1.00  0.00    -0.147 OA 
BRANCH  26  28
HETATM   28  C   UNL     1     -10.858  10.199  70.014  1.00  0.00    -0.361 A  
HETATM   29  C   UNL     1     -12.637  11.589  71.063  1.00  0.00    -0.457 A  
HETATM   30  C   UNL     1     -11.588  11.413  70.134  1.00  0.00    -0.368 A  
HETATM   31  C   UNL     1     -11.279   9.168  70.858  1.00  0.00    -0.359 A  
HETATM   32  C   UNL     1     -13.008  10.537  71.891  1.00  0.00    -0.553 A  
HETATM   33  C   UNL     1     -12.329   9.323  71.780  1.00  0.00    -0.454 A  
ENDBRANCH  26  28
ENDBRANCH  25  26
ENDBRANCH   3  25
TORSDOF 9
ENDMDL
MODEL       77
REMARK 921   NORMALIZED FREE ENERGY PREDICTED BY IDOCK:   -6.05 KCAL/MOL
REMARK 922        TOTAL FREE ENERGY PREDICTED BY IDOCK:  -10.74 KCAL/MOL
REMARK 923 INTER-LIGAND FREE ENERGY PREDICTED BY IDOCK:   -9.57 KCAL/MOL
REMARK 924 INTRA-LIGAND FREE ENERGY PREDICTED BY IDOCK:   -1.17 KCAL/MOL
REMARK 927      BINDING AFFINITY PREDICTED BY RF-SCORE:    0.00 PKD
ROOT
HETATM    1  C   UNL     1      -8.564   8.924  69.788  1.00  0.00    -0.134 C  
HETATM    2  C   UNL     1     -10.029   9.373  69.924  1.00  0.00    -0.212 C  
HETATM    3  C   UNL     1     -10.505  10.333  69.075  1.00  0.00    -0.217 C  
ENDROOT
BRANCH   2   4
HETATM    4  N   UNL     1     -10.736   8.666  70.915  1.00  0.00    -0.210 N  
HETATM    5  C   UNL     1     -10.259   8.594  72.234  1.00  0.00    -0.301 C  
HETATM    6  O   UNL     1     -10.620   7.793  73.084  1.00  0.00    -0.359 OA 
BRANCH   4   7
HETATM    7  C   UNL     1     -11.661   7.579  70.528  1.00  0.00    -0.200 C  
BRANCH   7   8
HETATM    8  C   UNL     1     -10.970   6.282  70.144  1.00  0.00    -0.411 A  
HETATM    9  H2  UNL     1     -12.036   7.441  68.095  1.00  0.00     0.000 HD 
HETATM   10  C   UNL     1     -10.498   5.289  70.927  1.00  0.00    -0.215 A  
HETATM   11  N   UNL     1      -9.869   5.021  68.367  1.00  0.00    -0.151 NA 
HETATM   12  N   UNL     1      -9.583   4.313  70.578  1.00  0.00    -0.181 NA 
HETATM   13  H1  UNL     1     -11.227   6.538  66.809  1.00  0.00     0.000 HD 
HETATM   14  C   UNL     1      -8.066   3.410  68.931  1.00  0.00    -0.071 C  
HETATM   15  N   UNL     1     -11.381   6.716  67.802  1.00  0.00    -0.136 NA 
HETATM   16  C   UNL     1      -9.249   4.257  69.322  1.00  0.00    -0.145 A  
HETATM   17  C   UNL     1     -10.744   6.021  68.689  1.00  0.00    -0.297 A  
ENDBRANCH   7   8
ENDBRANCH   4   7
ENDBRANCH   2   4
BRANCH   3  18
HETATM   18  C   UNL     1      -9.681  10.711  67.766  1.00  0.00    -0.179 C  
BRANCH  18  19
HETATM   19  C   UNL     1     -10.511  10.963  66.448  1.00  0.00    -0.250 C  
BRANCH  19  20
HETATM   20  O   UNL     1     -10.037  12.064  65.584  1.00  0.00    -0.232 OA 
HETATM   21  O   UNL     1     -10.576  11.865  63.438  1.00  0.00    -0.407 OA 
HETATM   22  O   UNL     1     -10.323  14.030  64.525  1.00  0.00    -0.419 OA 
HETATM   23  P   UNL     1     -11.308  12.728  64.616  1.00  0.00    -0.368 P  
HETATM   24  O   UNL     1     -12.445  13.323  63.750  1.00  0.00    -0.666 OA 
ENDBRANCH  19  20
ENDBRANCH  18  19
ENDBRANCH   3  18
BRANCH   3  25
HETATM   25  S   UNL     1     -12.075  11.244  69.277  1.00  0.00    -0.233 SA 
BRANCH  25  26
HETATM   26  C   UNL     1     -11.857  13.043  69.316  1.00  0.00    -0.316 C  
HETATM   27  O   UNL     1     -11.323  13.634  68.384  1.00  0.00    -0.260 OA 
BRANCH  26  28
HETATM   28  C   UNL     1     -12.260  13.846  70.574  1.00  0.00    -0.443 A  
HETATM   29  C   UNL     1     -13.582  13.921  72.682  1.00  0.00    -0.626 A  
HETATM   30  C   UNL     1     -13.181  13.273  71.493  1.00  0.00    -0.383 A  
HETATM   31  C   UNL     1     -11.743  15.088  70.950  1.00  0.00    -0.376 A  
HETATM   32  C   UNL     1     -13.050  15.164  73.004  1.00  0.00    -0.605 A  
HETATM   33  C   UNL     1     -12.122  15.742  72.136  1.00  0.00    -0.570 A  
ENDBRANCH  26  28
ENDBRANCH  25  26
ENDBRANCH   3  25
TORSDOF 9
ENDMDL
MODEL       78
REMARK 921   NORMALIZED FREE ENERGY PREDICTED BY IDOCK:   -6.05 KCAL/MOL
REMARK 922        TOTAL FREE ENERGY PREDICTED BY IDOCK:  -10.74 KCAL/MOL
REMARK 923 INTER-LIGAND FREE ENERGY PREDICTED BY IDOCK:   -9.56 KCAL/MOL
REMARK 924 INTRA-LIGAND FREE ENERGY PREDICTED BY IDOCK:   -1.18 KCAL/MOL
REMARK 927      BINDING AFFINITY PREDICTED BY RF-SCORE:    0.00 PKD
ROOT
HETATM    1  C   UNL     1     -12.138  13.988  69.220  1.00  0.00    -0.380 C  
HETATM    2  C   UNL     1     -11.068  13.279  68.372  1.00  0.00    -0.270 C  
HETATM    3  C   UNL     1     -10.799  11.961  68.617  1.00  0.00    -0.235 C  
ENDROOT
BRANCH   2   4
HETATM    4  N   UNL     1     -10.516  14.103  67.372  1.00  0.00    -0.269 N  
HETATM    5  C   UNL     1     -10.796  13.879  66.014  1.00  0.00    -0.290 C  
HETATM    6  O   UNL     1     -10.165  14.329  65.069  1.00  0.00    -0.402 OA 
BRANCH   4   7
HETATM    7  C   UNL     1      -9.265  14.846  67.635  1.00  0.00    -0.187 C  
BRANCH   7   8
HETATM    8  C   UNL     1      -9.460  16.334  67.859  1.00  0.00    -0.218 A  
HETATM    9  H2  UNL     1      -7.184  15.520  68.772  1.00  0.00     0.000 HD 
HETATM   10  C   UNL     1     -10.573  17.088  67.738  1.00  0.00    -0.350 A  
HETATM   11  N   UNL     1      -8.372  18.497  68.176  1.00  0.00    -0.287 NA 
HETATM   12  N   UNL     1     -10.642  18.463  67.609  1.00  0.00    -0.420 NA 
HETATM   13  H1  UNL     1      -6.392  17.086  68.986  1.00  0.00     0.000 HD 
HETATM   14  C   UNL     1      -9.481  20.567  67.369  1.00  0.00    -0.551 C  
HETATM   15  N   UNL     1      -7.206  16.538  68.707  1.00  0.00    -0.184 NA 
HETATM   16  C   UNL     1      -9.526  19.114  67.765  1.00  0.00    -0.303 A  
HETATM   17  C   UNL     1      -8.267  17.136  68.269  1.00  0.00    -0.230 A  
ENDBRANCH   7   8
ENDBRANCH   4   7
ENDBRANCH   2   4
BRANCH   3  18
HETATM   18  C   UNL     1     -11.806  11.101  69.501  1.00  0.00    -0.423 C  
BRANCH  18  19
HETATM   19  C   UNL     1     -11.177  10.230  70.657  1.00  0.00    -0.325 C  
BRANCH  19  20
HETATM   20  O   UNL     1     -11.761   8.887  70.848  1.00  0.00    -0.282 OA 
HETATM   21  O   UNL     1     -12.078   8.299  72.966  1.00  0.00    -0.249 OA 
HETATM   22  O   UNL     1     -13.506   7.499  71.162  1.00  0.00    -0.273 OA 
HETATM   23  P   UNL     1     -13.141   8.917  71.891  1.00  0.00    -0.444 P  
HETATM   24  O   UNL     1     -14.376   8.944  72.824  1.00  0.00    -0.600 OA 
ENDBRANCH  19  20
ENDBRANCH  18  19
ENDBRANCH   3  18
BRANCH   3  25
HETATM   25  S   UNL     1      -9.360  11.035  67.983  1.00  0.00    -0.169 SA 
BRANCH  25  26
HETATM   26  C   UNL     1      -9.797   9.817  66.714  1.00  0.00    -0.208 C  
HETATM   27  O   UNL     1     -10.294   8.739  67.019  1.00  0.00    -0.261 OA 
BRANCH  26  28
HETATM   28  C   UNL     1      -9.459  10.088  65.229  1.00  0.00    -0.323 A  
HETATM   29  C   UNL     1     -10.137  11.149  63.082  1.00  0.00    -0.373 A  
HETATM   30  C   UNL     1     -10.377  10.829  64.436  1.00  0.00    -0.405 A  
HETATM   31  C   UNL     1      -8.273   9.728  64.584  1.00  0.00    -0.150 A  
HETATM   32  C   UNL     1      -8.948  10.755  62.481  1.00  0.00    -0.344 A  
HETATM   33  C   UNL     1      -8.013  10.049  63.239  1.00  0.00    -0.154 A  
ENDBRANCH  26  28
ENDBRANCH  25  26
ENDBRANCH   3  25
TORSDOF 9
ENDMDL
MODEL       79
REMARK 921   NORMALIZED FREE ENERGY PREDICTED BY IDOCK:   -6.03 KCAL/MOL
REMARK 922        TOTAL FREE ENERGY PREDICTED BY IDOCK:  -10.71 KCAL/MOL
REMARK 923 INTER-LIGAND FREE ENERGY PREDICTED BY IDOCK:   -9.67 KCAL/MOL
REMARK 924 INTRA-LIGAND FREE ENERGY PREDICTED BY IDOCK:   -1.04 KCAL/MOL
REMARK 927      BINDING AFFINITY PREDICTED BY RF-SCORE:    0.00 PKD
ROOT
HETATM    1  C   UNL     1     -10.838  10.810  66.861  1.00  0.00    -0.288 C  
HETATM    2  C   UNL     1      -9.758  11.684  67.520  1.00  0.00    -0.177 C  
HETATM    3  C   UNL     1     -10.072  12.969  67.868  1.00  0.00    -0.235 C  
ENDROOT
BRANCH   2   4
HETATM    4  N   UNL     1      -8.546  11.001  67.739  1.00  0.00    -0.128 N  
HETATM    5  C   UNL     1      -7.943  10.249  66.717  1.00  0.00    -0.114 C  
HETATM    6  O   UNL     1      -7.075   9.403  66.868  1.00  0.00    -0.084 OA 
BRANCH   4   7
HETATM    7  C   UNL     1      -8.158  10.609  69.111  1.00  0.00    -0.141 C  
BRANCH   7   8
HETATM    8  C   UNL     1      -9.180   9.740  69.823  1.00  0.00    -0.248 A  
HETATM    9  H2  UNL     1      -7.250   8.334  68.835  1.00  0.00     0.000 HD 
HETATM   10  C   UNL     1     -10.417  10.048  70.267  1.00  0.00    -0.272 A  
HETATM   11  N   UNL     1      -9.586   7.640  71.000  1.00  0.00    -0.163 NA 
HETATM   12  N   UNL     1     -11.166   9.354  71.200  1.00  0.00    -0.325 NA 
HETATM   13  H1  UNL     1      -7.536   6.819  69.700  1.00  0.00     0.000 HD 
HETATM   14  C   UNL     1     -11.308   7.539  72.787  1.00  0.00    -0.388 C  
HETATM   15  N   UNL     1      -7.792   7.787  69.505  1.00  0.00    -0.109 NA 
HETATM   16  C   UNL     1     -10.690   8.206  71.585  1.00  0.00    -0.241 A  
HETATM   17  C   UNL     1      -8.804   8.321  70.108  1.00  0.00    -0.141 A  
ENDBRANCH   7   8
ENDBRANCH   4   7
ENDBRANCH   2   4
BRANCH   3  18
HETATM   18  C   UNL     1     -11.597  13.424  67.917  1.00  0.00    -0.374 C  
BRANCH  18  19
HETATM   19  C   UNL     1     -12.102  14.356  66.748  1.00  0.00    -0.365 C  
BRANCH  19  20
HETATM   20  O   UNL     1     -12.974  13.718  65.741  1.00  0.00    -0.477 OA 
HETATM   21  O   UNL     1     -12.653  14.409  63.655  1.00  0.00    -0.817 OA 
HETATM   22  O   UNL     1     -13.402  12.151  64.181  1.00  0.00    -0.750 OA 
HETATM   23  P   UNL     1     -12.075  13.080  64.408  1.00  0.00    -0.437 P  
HETATM   24  O   UNL     1     -11.270  12.509  63.215  1.00  0.00    -0.452 OA 
ENDBRANCH  19  20
ENDBRANCH  18  19
ENDBRANCH   3  18
BRANCH   3  25
HETATM   25  S   UNL     1      -8.874  14.266  68.334  1.00  0.00    -0.183 SA 
BRANCH  25  26
HETATM   26  C   UNL     1      -9.634  15.659  69.209  1.00  0.00    -0.268 C  
HETATM   27  O   UNL     1     -10.291  15.480  70.228  1.00  0.00    -0.306 OA 
BRANCH  26  28
HETATM   28  C   UNL     1      -9.540  17.087  68.625  1.00  0.00    -0.275 A  
HETATM   29  C   UNL     1      -8.160  19.133  68.294  1.00  0.00    -0.367 A  
HETATM   30  C   UNL     1      -8.345  17.834  68.818  1.00  0.00    -0.221 A  
HETATM   31  C   UNL     1     -10.512  17.714  67.842  1.00  0.00    -0.392 A  
HETATM   32  C   UNL     1      -9.164  19.719  67.533  1.00  0.00    -0.428 A  
HETATM   33  C   UNL     1     -10.339  19.002  67.303  1.00  0.00    -0.505 A  
ENDBRANCH  26  28
ENDBRANCH  25  26
ENDBRANCH   3  25
TORSDOF 9
ENDMDL
MODEL       80
REMARK 921   NORMALIZED FREE ENERGY PREDICTED BY IDOCK:   -6.01 KCAL/MOL
REMARK 922        TOTAL FREE ENERGY PREDICTED BY IDOCK:  -10.68 KCAL/MOL
REMARK 923 INTER-LIGAND FREE ENERGY PREDICTED BY IDOCK:   -9.28 KCAL/MOL
REMARK 924 INTRA-LIGAND FREE ENERGY PREDICTED BY IDOCK:   -1.40 KCAL/MOL
REMARK 927      BINDING AFFINITY PREDICTED BY RF-SCORE:    0.00 PKD
ROOT
HETATM    1  C   UNL     1     -10.519  10.978  64.352  1.00  0.00    -0.422 C  
HETATM    2  C   UNL     1     -10.439  10.894  65.886  1.00  0.00    -0.221 C  
HETATM    3  C   UNL     1     -10.822  11.978  66.626  1.00  0.00    -0.272 C  
ENDROOT
BRANCH   2   4
HETATM    4  N   UNL     1     -10.013   9.636  66.352  1.00  0.00    -0.241 N  
HETATM    5  C   UNL     1     -10.637   9.020  67.449  1.00  0.00    -0.239 C  
HETATM    6  O   UNL     1     -10.182   8.096  68.107  1.00  0.00    -0.196 OA 
BRANCH   4   7
HETATM    7  C   UNL     1      -8.631   9.180  66.087  1.00  0.00    -0.136 C  
BRANCH   7   8
HETATM    8  C   UNL     1      -7.557  10.059  66.701  1.00  0.00    -0.104 A  
HETATM    9  H2  UNL     1      -7.022   9.471  64.242  1.00  0.00     0.000 HD 
HETATM   10  C   UNL     1      -7.347  10.395  67.991  1.00  0.00    -0.085 A  
HETATM   11  N   UNL     1      -5.795  11.697  66.283  1.00  0.00    -0.176 NA 
HETATM   12  N   UNL     1      -6.594  11.452  68.468  1.00  0.00    -0.059 NA 
HETATM   13  H1  UNL     1      -5.757  10.668  63.936  1.00  0.00     0.000 HD 
HETATM   14  C   UNL     1      -5.283  13.423  67.993  1.00  0.00    -0.111 C  
HETATM   15  N   UNL     1      -6.438  10.242  64.566  1.00  0.00    -0.119 NA 
HETATM   16  C   UNL     1      -5.898  12.109  67.587  1.00  0.00    -0.102 A  
HETATM   17  C   UNL     1      -6.559  10.682  65.777  1.00  0.00    -0.105 A  
ENDBRANCH   7   8
ENDBRANCH   4   7
ENDBRANCH   2   4
BRANCH   3  18
HETATM   18  C   UNL     1     -11.657  13.148  65.940  1.00  0.00    -0.391 C  
BRANCH  18  19
HETATM   19  C   UNL     1     -11.427  14.608  66.494  1.00  0.00    -0.351 C  
BRANCH  19  20
HETATM   20  O   UNL     1     -10.337  15.378  65.859  1.00  0.00    -0.297 OA 
HETATM   21  O   UNL     1     -11.009  16.968  64.461  1.00  0.00    -1.031 OA 
HETATM   22  O   UNL     1      -8.949  17.147  65.750  1.00  0.00    -0.523 OA 
HETATM   23  P   UNL     1     -10.560  17.085  66.028  1.00  0.00    -0.007 P  
HETATM   24  O   UNL     1     -10.759  18.613  66.179  1.00  0.00    -0.382 OA 
ENDBRANCH  19  20
ENDBRANCH  18  19
ENDBRANCH   3  18
BRANCH   3  25
HETATM   25  S   UNL     1     -10.491  12.221  68.405  1.00  0.00    -0.235 SA 
BRANCH  25  26
HETATM   26  C   UNL     1     -11.956  11.981  69.444  1.00  0.00    -0.275 C  
HETATM   27  O   UNL     1     -12.646  10.973  69.337  1.00  0.00    -0.331 OA 
BRANCH  26  28
HETATM   28  C   UNL     1     -12.408  13.093  70.418  1.00  0.00    -0.351 A  
HETATM   29  C   UNL     1     -12.680  15.532  70.838  1.00  0.00    -0.525 A  
HETATM   30  C   UNL     1     -12.267  14.453  70.026  1.00  0.00    -0.408 A  
HETATM   31  C   UNL     1     -13.024  12.894  71.655  1.00  0.00    -0.410 A  
HETATM   32  C   UNL     1     -13.275  15.281  72.068  1.00  0.00    -0.499 A  
HETATM   33  C   UNL     1     -13.452  13.957  72.471  1.00  0.00    -0.676 A  
ENDBRANCH  26  28
ENDBRANCH  25  26
ENDBRANCH   3  25
TORSDOF 9
ENDMDL
MODEL       81
REMARK 921   NORMALIZED FREE ENERGY PREDICTED BY IDOCK:   -6.01 KCAL/MOL
REMARK 922        TOTAL FREE ENERGY PREDICTED BY IDOCK:  -10.68 KCAL/MOL
REMARK 923 INTER-LIGAND FREE ENERGY PREDICTED BY IDOCK:   -9.12 KCAL/MOL
REMARK 924 INTRA-LIGAND FREE ENERGY PREDICTED BY IDOCK:   -1.56 KCAL/MOL
REMARK 927      BINDING AFFINITY PREDICTED BY RF-SCORE:    0.00 PKD
ROOT
HETATM    1  C   UNL     1     -12.800  12.383  71.409  1.00  0.00    -0.360 C  
HETATM    2  C   UNL     1     -12.182  11.231  70.599  1.00  0.00    -0.393 C  
HETATM    3  C   UNL     1     -11.577  11.514  69.406  1.00  0.00    -0.321 C  
ENDROOT
BRANCH   2   4
HETATM    4  N   UNL     1     -12.277   9.983  71.246  1.00  0.00    -0.371 N  
HETATM    5  C   UNL     1     -13.480   9.562  71.835  1.00  0.00    -0.424 C  
HETATM    6  O   UNL     1     -13.601   8.660  72.651  1.00  0.00    -0.329 OA 
BRANCH   4   7
HETATM    7  C   UNL     1     -11.060   9.339  71.786  1.00  0.00    -0.327 C  
BRANCH   7   8
HETATM    8  C   UNL     1     -10.614   8.109  71.016  1.00  0.00    -0.242 A  
HETATM    9  H2  UNL     1      -8.615   9.615  71.655  1.00  0.00     0.000 HD 
HETATM   10  C   UNL     1     -11.345   7.209  70.324  1.00  0.00    -0.269 A  
HETATM   11  N   UNL     1      -8.792   6.545  70.574  1.00  0.00    -0.150 NA 
HETATM   12  N   UNL     1     -10.960   5.938  69.939  1.00  0.00    -0.370 NA 
HETATM   13  H1  UNL     1      -7.297   8.477  71.349  1.00  0.00     0.000 HD 
HETATM   14  C   UNL     1      -9.302   4.184  70.002  1.00  0.00    -0.237 C  
HETATM   15  N   UNL     1      -8.294   8.693  71.360  1.00  0.00    -0.156 NA 
HETATM   16  C   UNL     1      -9.713   5.626  70.141  1.00  0.00    -0.174 A  
HETATM   17  C   UNL     1      -9.153   7.794  71.000  1.00  0.00    -0.147 A  
ENDBRANCH   7   8
ENDBRANCH   4   7
ENDBRANCH   2   4
BRANCH   3  18
HETATM   18  C   UNL     1     -11.211  13.021  69.044  1.00  0.00    -0.316 C  
BRANCH  18  19
HETATM   19  C   UNL     1     -11.883  13.628  67.752  1.00  0.00    -0.368 C  
BRANCH  19  20
HETATM   20  O   UNL     1     -11.165  13.402  66.480  1.00  0.00    -0.296 OA 
HETATM   21  O   UNL     1     -12.387  12.484  64.869  1.00  0.00    -0.466 OA 
HETATM   22  O   UNL     1     -10.550  14.016  64.403  1.00  0.00    -0.382 OA 
HETATM   23  P   UNL     1     -12.018  14.055  65.124  1.00  0.00    -0.434 P  
HETATM   24  O   UNL     1     -12.781  14.639  63.910  1.00  0.00    -0.788 OA 
ENDBRANCH  19  20
ENDBRANCH  18  19
ENDBRANCH   3  18
BRANCH   3  25
HETATM   25  S   UNL     1     -11.095  10.288  68.142  1.00  0.00    -0.228 SA 
BRANCH  25  26
HETATM   26  C   UNL     1      -9.343  10.383  67.686  1.00  0.00    -0.148 C  
HETATM   27  O   UNL     1      -8.480  10.564  68.537  1.00  0.00    -0.118 OA 
BRANCH  26  28
HETATM   28  C   UNL     1      -8.925  10.331  66.199  1.00  0.00    -0.174 A  
HETATM   29  C   UNL     1      -7.075  10.131  64.544  1.00  0.00    -0.119 A  
HETATM   30  C   UNL     1      -7.546  10.216  65.873  1.00  0.00    -0.128 A  
HETATM   31  C   UNL     1      -9.796  10.313  65.106  1.00  0.00    -0.389 A  
HETATM   32  C   UNL     1      -7.982  10.133  63.491  1.00  0.00    -0.161 A  
HETATM   33  C   UNL     1      -9.345  10.217  63.777  1.00  0.00    -0.336 A  
ENDBRANCH  26  28
ENDBRANCH  25  26
ENDBRANCH   3  25
TORSDOF 9
ENDMDL
MODEL       82
REMARK 921   NORMALIZED FREE ENERGY PREDICTED BY IDOCK:   -5.98 KCAL/MOL
REMARK 922        TOTAL FREE ENERGY PREDICTED BY IDOCK:  -10.64 KCAL/MOL
REMARK 923 INTER-LIGAND FREE ENERGY PREDICTED BY IDOCK:   -8.96 KCAL/MOL
REMARK 924 INTRA-LIGAND FREE ENERGY PREDICTED BY IDOCK:   -1.68 KCAL/MOL
REMARK 927      BINDING AFFINITY PREDICTED BY RF-SCORE:    0.00 PKD
ROOT
HETATM    1  C   UNL     1     -13.240  11.942  71.948  1.00  0.00    -0.467 C  
HETATM    2  C   UNL     1     -12.562  10.981  70.957  1.00  0.00    -0.411 C  
HETATM    3  C   UNL     1     -11.839  11.505  69.922  1.00  0.00    -0.355 C  
ENDROOT
BRANCH   2   4
HETATM    4  N   UNL     1     -12.737   9.624  71.291  1.00  0.00    -0.338 N  
HETATM    5  C   UNL     1     -14.019   9.057  71.367  1.00  0.00    -0.212 C  
HETATM    6  O   UNL     1     -14.304   8.001  71.914  1.00  0.00    -0.417 OA 
BRANCH   4   7
HETATM    7  C   UNL     1     -11.695   8.915  72.064  1.00  0.00    -0.367 C  
BRANCH   7   8
HETATM    8  C   UNL     1     -10.534   8.410  71.227  1.00  0.00    -0.273 A  
HETATM    9  H2  UNL     1     -12.482   6.713  71.283  1.00  0.00     0.000 HD 
HETATM   10  C   UNL     1      -9.272   8.877  71.128  1.00  0.00    -0.256 A  
HETATM   11  N   UNL     1      -9.840   6.959  69.390  1.00  0.00    -0.157 NA 
HETATM   12  N   UNL     1      -8.362   8.619  70.119  1.00  0.00    -0.119 NA 
HETATM   13  H1  UNL     1     -11.987   5.673  69.942  1.00  0.00     0.000 HD 
HETATM   14  C   UNL     1      -7.893   7.592  67.984  1.00  0.00    -0.121 C  
HETATM   15  N   UNL     1     -11.822   6.484  70.539  1.00  0.00    -0.384 NA 
HETATM   16  C   UNL     1      -8.707   7.719  69.246  1.00  0.00    -0.139 A  
HETATM   17  C   UNL     1     -10.775   7.221  70.352  1.00  0.00    -0.236 A  
ENDBRANCH   7   8
ENDBRANCH   4   7
ENDBRANCH   2   4
BRANCH   3  18
HETATM   18  C   UNL     1     -11.417  13.040  69.948  1.00  0.00    -0.151 C  
BRANCH  18  19
HETATM   19  C   UNL     1     -12.323  14.043  69.134  1.00  0.00    -0.134 C  
BRANCH  19  20
HETATM   20  O   UNL     1     -11.615  15.140  68.442  1.00  0.00    -0.318 OA 
HETATM   21  O   UNL     1     -10.835  16.736  69.775  1.00  0.00    -0.325 OA 
HETATM   22  O   UNL     1      -9.745  16.137  67.681  1.00  0.00    -0.229 OA 
HETATM   23  P   UNL     1     -10.059  15.451  69.132  1.00  0.00    -0.262 P  
HETATM   24  O   UNL     1      -8.667  15.729  69.749  1.00  0.00    -0.151 OA 
ENDBRANCH  19  20
ENDBRANCH  18  19
ENDBRANCH   3  18
BRANCH   3  25
HETATM   25  S   UNL     1     -11.251  10.579  68.462  1.00  0.00    -0.257 SA 
BRANCH  25  26
HETATM   26  C   UNL     1     -10.196  11.565  67.368  1.00  0.00    -0.203 C  
HETATM   27  O   UNL     1      -9.106  11.978  67.747  1.00  0.00    -0.173 OA 
BRANCH  26  28
HETATM   28  C   UNL     1     -10.702  11.978  65.966  1.00  0.00    -0.317 A  
HETATM   29  C   UNL     1     -10.348  11.912  63.503  1.00  0.00    -0.495 A  
HETATM   30  C   UNL     1      -9.946  11.605  64.821  1.00  0.00    -0.292 A  
HETATM   31  C   UNL     1     -11.902  12.641  65.695  1.00  0.00    -0.488 A  
HETATM   32  C   UNL     1     -11.544  12.587  63.286  1.00  0.00    -0.445 A  
HETATM   33  C   UNL     1     -12.323  12.945  64.387  1.00  0.00    -0.468 A  
ENDBRANCH  26  28
ENDBRANCH  25  26
ENDBRANCH   3  25
TORSDOF 9
ENDMDL
MODEL       83
REMARK 921   NORMALIZED FREE ENERGY PREDICTED BY IDOCK:   -5.98 KCAL/MOL
REMARK 922        TOTAL FREE ENERGY PREDICTED BY IDOCK:  -10.63 KCAL/MOL
REMARK 923 INTER-LIGAND FREE ENERGY PREDICTED BY IDOCK:   -9.04 KCAL/MOL
REMARK 924 INTRA-LIGAND FREE ENERGY PREDICTED BY IDOCK:   -1.59 KCAL/MOL
REMARK 927      BINDING AFFINITY PREDICTED BY RF-SCORE:    0.00 PKD
ROOT
HETATM    1  C   UNL     1      -8.326  14.922  68.304  1.00  0.00    -0.148 C  
HETATM    2  C   UNL     1      -9.542  14.004  68.517  1.00  0.00    -0.201 C  
HETATM    3  C   UNL     1      -9.390  12.657  68.342  1.00  0.00    -0.148 C  
ENDROOT
BRANCH   2   4
HETATM    4  N   UNL     1     -10.694  14.697  68.936  1.00  0.00    -0.241 N  
HETATM    5  C   UNL     1     -11.458  14.241  70.023  1.00  0.00    -0.219 C  
HETATM    6  O   UNL     1     -12.602  14.581  70.287  1.00  0.00    -0.344 OA 
BRANCH   4   7
HETATM    7  C   UNL     1     -11.421  15.563  67.984  1.00  0.00    -0.308 C  
BRANCH   7   8
HETATM    8  C   UNL     1     -11.746  14.896  66.660  1.00  0.00    -0.225 A  
HETATM    9  H2  UNL     1     -10.275  16.996  66.338  1.00  0.00     0.000 HD 
HETATM   10  C   UNL     1     -12.647  13.932  66.375  1.00  0.00    -0.268 A  
HETATM   11  N   UNL     1     -11.048  14.532  64.349  1.00  0.00    -0.245 NA 
HETATM   12  N   UNL     1     -12.674  13.117  65.258  1.00  0.00    -0.613 NA 
HETATM   13  H1  UNL     1      -9.757  16.722  64.670  1.00  0.00     0.000 HD 
HETATM   14  C   UNL     1     -11.618  12.401  63.208  1.00  0.00    -0.450 C  
HETATM   15  N   UNL     1     -10.286  16.427  65.491  1.00  0.00    -0.558 NA 
HETATM   16  C   UNL     1     -11.827  13.403  64.313  1.00  0.00    -0.423 A  
HETATM   17  C   UNL     1     -10.971  15.330  65.457  1.00  0.00    -0.359 A  
ENDBRANCH   7   8
ENDBRANCH   4   7
ENDBRANCH   2   4
BRANCH   3  18
HETATM   18  C   UNL     1      -7.928  12.029  68.272  1.00  0.00    -0.149 C  
BRANCH  18  19
HETATM   19  C   UNL     1      -7.425  11.546  66.856  1.00  0.00    -0.145 C  
BRANCH  19  20
HETATM   20  O   UNL     1      -8.477  11.222  65.871  1.00  0.00    -0.150 OA 
HETATM   21  O   UNL     1      -7.757  10.175  64.049  1.00  0.00    -0.148 OA 
HETATM   22  O   UNL     1      -9.990   9.827  64.959  1.00  0.00    -0.286 OA 
HETATM   23  P   UNL     1      -8.438   9.558  65.399  1.00  0.00    -0.170 P  
HETATM   24  O   UNL     1      -8.405   8.068  64.978  1.00  0.00    -0.147 OA 
ENDBRANCH  19  20
ENDBRANCH  18  19
ENDBRANCH   3  18
BRANCH   3  25
HETATM   25  S   UNL     1     -10.747  11.444  68.206  1.00  0.00    -0.219 SA 
BRANCH  25  26
HETATM   26  C   UNL     1     -10.502   9.978  69.243  1.00  0.00    -0.225 C  
HETATM   27  O   UNL     1      -9.614   9.171  68.994  1.00  0.00    -0.153 OA 
BRANCH  26  28
HETATM   28  C   UNL     1     -11.476   9.678  70.405  1.00  0.00    -0.325 A  
HETATM   29  C   UNL     1     -13.243  10.533  71.937  1.00  0.00    -0.526 A  
HETATM   30  C   UNL     1     -12.304  10.724  70.900  1.00  0.00    -0.497 A  
HETATM   31  C   UNL     1     -11.684   8.428  70.994  1.00  0.00    -0.296 A  
HETATM   32  C   UNL     1     -13.402   9.273  72.501  1.00  0.00    -0.463 A  
HETATM   33  C   UNL     1     -12.623   8.219  72.020  1.00  0.00    -0.387 A  
ENDBRANCH  26  28
ENDBRANCH  25  26
ENDBRANCH   3  25
TORSDOF 9
ENDMDL
MODEL       84
REMARK 921   NORMALIZED FREE ENERGY PREDICTED BY IDOCK:   -5.97 KCAL/MOL
REMARK 922        TOTAL FREE ENERGY PREDICTED BY IDOCK:  -10.62 KCAL/MOL
REMARK 923 INTER-LIGAND FREE ENERGY PREDICTED BY IDOCK:   -8.95 KCAL/MOL
REMARK 924 INTRA-LIGAND FREE ENERGY PREDICTED BY IDOCK:   -1.67 KCAL/MOL
REMARK 927      BINDING AFFINITY PREDICTED BY RF-SCORE:    0.00 PKD
ROOT
HETATM    1  C   UNL     1     -10.140  11.792  65.767  1.00  0.00    -0.270 C  
HETATM    2  C   UNL     1      -9.742  13.141  66.388  1.00  0.00    -0.269 C  
HETATM    3  C   UNL     1      -8.654  13.191  67.215  1.00  0.00    -0.210 C  
ENDROOT
BRANCH   2   4
HETATM    4  N   UNL     1     -10.554  14.210  65.963  1.00  0.00    -0.290 N  
HETATM    5  C   UNL     1      -9.998  15.339  65.339  1.00  0.00    -0.329 C  
HETATM    6  O   UNL     1     -10.548  16.421  65.195  1.00  0.00    -0.610 OA 
BRANCH   4   7
HETATM    7  C   UNL     1     -11.870  14.436  66.600  1.00  0.00    -0.398 C  
BRANCH   7   8
HETATM    8  C   UNL     1     -11.878  14.223  68.102  1.00  0.00    -0.374 A  
HETATM    9  H2  UNL     1     -11.145  16.620  67.480  1.00  0.00     0.000 HD 
HETATM   10  C   UNL     1     -11.980  13.079  68.813  1.00  0.00    -0.266 A  
HETATM   11  N   UNL     1     -12.079  15.272  70.297  1.00  0.00    -0.325 NA 
HETATM   12  N   UNL     1     -12.331  12.952  70.145  1.00  0.00    -0.232 NA 
HETATM   13  H1  UNL     1     -11.306  17.384  69.067  1.00  0.00     0.000 HD 
HETATM   14  C   UNL     1     -13.075  14.005  72.186  1.00  0.00    -0.501 C  
HETATM   15  N   UNL     1     -11.379  16.558  68.471  1.00  0.00    -0.311 NA 
HETATM   16  C   UNL     1     -12.435  14.057  70.823  1.00  0.00    -0.372 A  
HETATM   17  C   UNL     1     -11.770  15.432  68.975  1.00  0.00    -0.361 A  
ENDBRANCH   7   8
ENDBRANCH   4   7
ENDBRANCH   2   4
BRANCH   3  18
HETATM   18  C   UNL     1      -7.629  11.973  67.247  1.00  0.00    -0.157 C  
BRANCH  18  19
HETATM   19  C   UNL     1      -7.794  10.932  68.422  1.00  0.00    -0.123 C  
BRANCH  19  20
HETATM   20  O   UNL     1      -9.123  10.886  69.066  1.00  0.00    -0.163 OA 
HETATM   21  O   UNL     1     -10.501   9.346  68.253  1.00  0.00    -0.204 OA 
HETATM   22  O   UNL     1     -10.577  10.069  70.578  1.00  0.00    -0.292 OA 
HETATM   23  P   UNL     1      -9.546   9.288  69.577  1.00  0.00    -0.195 P  
HETATM   24  O   UNL     1      -9.925   7.859  70.034  1.00  0.00    -0.187 OA 
ENDBRANCH  19  20
ENDBRANCH  18  19
ENDBRANCH   3  18
BRANCH   3  25
HETATM   25  S   UNL     1      -8.216  14.583  68.311  1.00  0.00    -0.157 SA 
BRANCH  25  26
HETATM   26  C   UNL     1      -7.078  15.766  67.544  1.00  0.00    -0.186 C  
HETATM   27  O   UNL     1      -5.953  15.425  67.199  1.00  0.00    -0.306 OA 
BRANCH  26  28
HETATM   28  C   UNL     1      -7.483  17.251  67.400  1.00  0.00    -0.191 A  
HETATM   29  C   UNL     1      -7.520  19.288  65.969  1.00  0.00    -0.295 A  
HETATM   30  C   UNL     1      -7.163  17.942  66.199  1.00  0.00    -0.339 A  
HETATM   31  C   UNL     1      -8.218  17.991  68.331  1.00  0.00    -0.305 A  
HETATM   32  C   UNL     1      -8.238  19.985  66.934  1.00  0.00    -0.368 A  
HETATM   33  C   UNL     1      -8.592  19.329  68.113  1.00  0.00    -0.363 A  
ENDBRANCH  26  28
ENDBRANCH  25  26
ENDBRANCH   3  25
TORSDOF 9
ENDMDL
MODEL       85
REMARK 921   NORMALIZED FREE ENERGY PREDICTED BY IDOCK:   -5.97 KCAL/MOL
REMARK 922        TOTAL FREE ENERGY PREDICTED BY IDOCK:  -10.61 KCAL/MOL
REMARK 923 INTER-LIGAND FREE ENERGY PREDICTED BY IDOCK:   -8.82 KCAL/MOL
REMARK 924 INTRA-LIGAND FREE ENERGY PREDICTED BY IDOCK:   -1.79 KCAL/MOL
REMARK 927      BINDING AFFINITY PREDICTED BY RF-SCORE:    0.00 PKD
ROOT
HETATM    1  C   UNL     1      -7.450  10.480  65.804  1.00  0.00    -0.139 C  
HETATM    2  C   UNL     1      -7.847  11.266  67.065  1.00  0.00    -0.150 C  
HETATM    3  C   UNL     1      -8.821  12.220  66.967  1.00  0.00    -0.205 C  
ENDROOT
BRANCH   2   4
HETATM    4  N   UNL     1      -7.161  10.846  68.221  1.00  0.00    -0.073 N  
HETATM    5  C   UNL     1      -5.939  10.160  68.129  1.00  0.00    -0.041 C  
HETATM    6  O   UNL     1      -5.413   9.510  69.020  1.00  0.00    -0.036 OA 
BRANCH   4   7
HETATM    7  C   UNL     1      -7.903  10.627  69.481  1.00  0.00    -0.083 C  
BRANCH   7   8
HETATM    8  C   UNL     1      -8.652   9.308  69.541  1.00  0.00    -0.147 A  
HETATM    9  H2  UNL     1      -7.248   9.708  71.672  1.00  0.00     0.000 HD 
HETATM   10  C   UNL     1      -9.301   8.637  68.565  1.00  0.00    -0.138 A  
HETATM   11  N   UNL     1      -9.634   7.598  70.980  1.00  0.00    -0.163 NA 
HETATM   12  N   UNL     1     -10.248   7.641  68.723  1.00  0.00    -0.196 NA 
HETATM   13  H1  UNL     1      -7.970   8.480  72.719  1.00  0.00     0.000 HD 
HETATM   14  C   UNL     1     -11.626   6.331  70.211  1.00  0.00    -0.379 C  
HETATM   15  N   UNL     1      -7.923   8.957  71.818  1.00  0.00    -0.340 NA 
HETATM   16  C   UNL     1     -10.430   7.205  69.935  1.00  0.00    -0.223 A  
HETATM   17  C   UNL     1      -8.721   8.609  70.860  1.00  0.00    -0.181 A  
ENDBRANCH   7   8
ENDBRANCH   4   7
ENDBRANCH   2   4
BRANCH   3  18
HETATM   18  C   UNL     1      -9.759  12.263  65.681  1.00  0.00    -0.205 C  
BRANCH  18  19
HETATM   19  C   UNL     1      -9.920  13.659  64.962  1.00  0.00    -0.176 C  
BRANCH  19  20
HETATM   20  O   UNL     1     -11.281  14.234  64.961  1.00  0.00    -0.330 OA 
HETATM   21  O   UNL     1     -12.484  13.785  63.149  1.00  0.00    -0.786 OA 
HETATM   22  O   UNL     1     -13.497  14.110  65.340  1.00  0.00    -0.648 OA 
HETATM   23  P   UNL     1     -12.491  13.049  64.607  1.00  0.00    -0.328 P  
HETATM   24  O   UNL     1     -13.573  11.989  64.290  1.00  0.00    -0.527 OA 
ENDBRANCH  19  20
ENDBRANCH  18  19
ENDBRANCH   3  18
BRANCH   3  25
HETATM   25  S   UNL     1      -9.200  13.485  68.228  1.00  0.00    -0.171 SA 
BRANCH  25  26
HETATM   26  C   UNL     1     -10.975  13.679  68.535  1.00  0.00    -0.267 C  
HETATM   27  O   UNL     1     -11.622  14.550  67.964  1.00  0.00    -0.303 OA 
BRANCH  26  28
HETATM   28  C   UNL     1     -11.679  12.804  69.598  1.00  0.00    -0.372 A  
HETATM   29  C   UNL     1     -12.135  10.515  70.465  1.00  0.00    -0.437 A  
HETATM   30  C   UNL     1     -11.553  11.390  69.522  1.00  0.00    -0.399 A  
HETATM   31  C   UNL     1     -12.393  13.277  70.702  1.00  0.00    -0.416 A  
HETATM   32  C   UNL     1     -12.849  11.036  71.538  1.00  0.00    -0.555 A  
HETATM   33  C   UNL     1     -12.970  12.421  71.657  1.00  0.00    -0.409 A  
ENDBRANCH  26  28
ENDBRANCH  25  26
ENDBRANCH   3  25
TORSDOF 9
ENDMDL
MODEL       86
REMARK 921   NORMALIZED FREE ENERGY PREDICTED BY IDOCK:   -5.94 KCAL/MOL
REMARK 922        TOTAL FREE ENERGY PREDICTED BY IDOCK:  -10.58 KCAL/MOL
REMARK 923 INTER-LIGAND FREE ENERGY PREDICTED BY IDOCK:   -9.08 KCAL/MOL
REMARK 924 INTRA-LIGAND FREE ENERGY PREDICTED BY IDOCK:   -1.50 KCAL/MOL
REMARK 927      BINDING AFFINITY PREDICTED BY RF-SCORE:    0.00 PKD
ROOT
HETATM    1  C   UNL     1      -8.648  14.449  69.291  1.00  0.00     0.188 C  
HETATM    2  C   UNL     1      -9.886  14.712  68.418  1.00  0.00    -0.220 C  
HETATM    3  C   UNL     1      -9.883  14.277  67.121  1.00  0.00    -0.252 C  
ENDROOT
BRANCH   2   4
HETATM    4  N   UNL     1     -10.933  15.348  69.114  1.00  0.00    -0.237 N  
HETATM    5  C   UNL     1     -10.666  16.309  70.102  1.00  0.00    -0.246 C  
HETATM    6  O   UNL     1     -11.454  16.703  70.950  1.00  0.00    -0.214 OA 
BRANCH   4   7
HETATM    7  C   UNL     1     -12.251  14.687  69.228  1.00  0.00    -0.212 C  
BRANCH   7   8
HETATM    8  C   UNL     1     -12.244  13.426  70.072  1.00  0.00    -0.367 A  
HETATM    9  H2  UNL     1     -13.224  15.436  71.365  1.00  0.00     0.000 HD 
HETATM   10  C   UNL     1     -11.626  12.244  69.857  1.00  0.00    -0.203 A  
HETATM   11  N   UNL     1     -13.271  12.227  71.934  1.00  0.00    -0.451 NA 
HETATM   12  N   UNL     1     -11.916  11.029  70.450  1.00  0.00    -0.340 NA 
HETATM   13  H1  UNL     1     -13.982  14.566  72.705  1.00  0.00     0.000 HD 
HETATM   14  C   UNL     1     -13.339   9.745  71.919  1.00  0.00    -0.530 C  
HETATM   15  N   UNL     1     -13.442  14.559  71.839  1.00  0.00    -0.348 NA 
HETATM   16  C   UNL     1     -12.780  11.053  71.423  1.00  0.00    -0.429 A  
HETATM   17  C   UNL     1     -13.034  13.436  71.341  1.00  0.00    -0.328 A  
ENDBRANCH   7   8
ENDBRANCH   4   7
ENDBRANCH   2   4
BRANCH   3  18
HETATM   18  C   UNL     1      -8.786  13.226  66.643  1.00  0.00    -0.072 C  
BRANCH  18  19
HETATM   19  C   UNL     1      -9.315  11.897  65.978  1.00  0.00    -0.206 C  
BRANCH  19  20
HETATM   20  O   UNL     1      -9.995  10.946  66.881  1.00  0.00    -0.184 OA 
HETATM   21  O   UNL     1     -10.162   8.873  66.100  1.00  0.00    -0.259 OA 
HETATM   22  O   UNL     1      -9.984   9.361  68.480  1.00  0.00    -0.163 OA 
HETATM   23  P   UNL     1      -9.067   9.507  67.133  1.00  0.00    -0.136 P  
HETATM   24  O   UNL     1      -8.237   8.220  67.360  1.00  0.00    -0.119 OA 
ENDBRANCH  19  20
ENDBRANCH  18  19
ENDBRANCH   3  18
BRANCH   3  25
HETATM   25  S   UNL     1     -11.077  14.772  65.832  1.00  0.00    -0.343 SA 
BRANCH  25  26
HETATM   26  C   UNL     1     -10.953  16.522  65.378  1.00  0.00    -0.131 C  
HETATM   27  O   UNL     1     -11.350  16.920  64.288  1.00  0.00    -1.202 OA 
BRANCH  26  28
HETATM   28  C   UNL     1     -10.257  17.523  66.328  1.00  0.00    -0.356 A  
HETATM   29  C   UNL     1      -8.117  18.452  67.197  1.00  0.00    -0.244 A  
HETATM   30  C   UNL     1      -8.837  17.551  66.382  1.00  0.00    -0.269 A  
HETATM   31  C   UNL     1     -10.900  18.483  67.115  1.00  0.00    -0.304 A  
HETATM   32  C   UNL     1      -8.803  19.378  67.973  1.00  0.00    -0.369 A  
HETATM   33  C   UNL     1     -10.198  19.395  67.924  1.00  0.00    -0.530 A  
ENDBRANCH  26  28
ENDBRANCH  25  26
ENDBRANCH   3  25
TORSDOF 9
ENDMDL
MODEL       87
REMARK 921   NORMALIZED FREE ENERGY PREDICTED BY IDOCK:   -5.93 KCAL/MOL
REMARK 922        TOTAL FREE ENERGY PREDICTED BY IDOCK:  -10.55 KCAL/MOL
REMARK 923 INTER-LIGAND FREE ENERGY PREDICTED BY IDOCK:   -9.39 KCAL/MOL
REMARK 924 INTRA-LIGAND FREE ENERGY PREDICTED BY IDOCK:   -1.16 KCAL/MOL
REMARK 927      BINDING AFFINITY PREDICTED BY RF-SCORE:    0.00 PKD
ROOT
HETATM    1  C   UNL     1      -9.264   9.075  71.546  1.00  0.00    -0.260 C  
HETATM    2  C   UNL     1     -10.226   9.126  70.348  1.00  0.00    -0.222 C  
HETATM    3  C   UNL     1      -9.729   8.907  69.093  1.00  0.00    -0.168 C  
ENDROOT
BRANCH   2   4
HETATM    4  N   UNL     1     -11.566   9.348  70.720  1.00  0.00    -0.286 N  
HETATM    5  C   UNL     1     -12.314   8.348  71.364  1.00  0.00    -0.299 C  
HETATM    6  O   UNL     1     -13.531   8.321  71.470  1.00  0.00    -0.332 OA 
BRANCH   4   7
HETATM    7  C   UNL     1     -12.370  10.367  70.012  1.00  0.00    -0.159 C  
BRANCH   7   8
HETATM    8  C   UNL     1     -12.587  11.646  70.799  1.00  0.00    -0.365 A  
HETATM    9  H2  UNL     1     -10.857  11.970  68.908  1.00  0.00     0.000 HD 
HETATM   10  C   UNL     1     -13.221  11.841  71.975  1.00  0.00    -0.355 A  
HETATM   11  N   UNL     1     -12.495  14.086  70.769  1.00  0.00    -0.351 NA 
HETATM   12  N   UNL     1     -13.697  13.037  72.480  1.00  0.00    -0.630 NA 
HETATM   13  H1  UNL     1     -10.803  13.736  68.876  1.00  0.00     0.000 HD 
HETATM   14  C   UNL     1     -14.081  15.399  72.157  1.00  0.00    -0.651 C  
HETATM   15  N   UNL     1     -11.173  12.870  69.269  1.00  0.00    -0.224 NA 
HETATM   16  C   UNL     1     -13.375  14.111  71.821  1.00  0.00    -0.380 A  
HETATM   17  C   UNL     1     -12.044  12.915  70.224  1.00  0.00    -0.302 A  
ENDBRANCH   7   8
ENDBRANCH   4   7
ENDBRANCH   2   4
BRANCH   3  18
HETATM   18  C   UNL     1      -8.280   8.270  68.917  1.00  0.00    -0.116 C  
BRANCH  18  19
HETATM   19  C   UNL     1      -8.143   7.084  67.885  1.00  0.00    -0.115 C  
BRANCH  19  20
HETATM   20  O   UNL     1      -8.837   5.830  68.242  1.00  0.00    -0.110 OA 
HETATM   21  O   UNL     1     -11.030   5.844  67.887  1.00  0.00    -0.276 OA 
HETATM   22  O   UNL     1      -9.695   3.812  67.732  1.00  0.00    -0.170 OA 
HETATM   23  P   UNL     1      -9.831   5.244  66.954  1.00  0.00    -0.218 P  
HETATM   24  O   UNL     1     -10.721   4.719  65.800  1.00  0.00    -0.305 OA 
ENDBRANCH  19  20
ENDBRANCH  18  19
ENDBRANCH   3  18
BRANCH   3  25
HETATM   25  S   UNL     1     -10.604   9.253  67.528  1.00  0.00    -0.211 SA 
BRANCH  25  26
HETATM   26  C   UNL     1      -9.750  10.462  66.484  1.00  0.00    -0.194 C  
HETATM   27  O   UNL     1      -8.569  10.733  66.669  1.00  0.00    -0.135 OA 
BRANCH  26  28
HETATM   28  C   UNL     1     -10.531  11.241  65.400  1.00  0.00    -0.326 A  
HETATM   29  C   UNL     1     -12.412  12.783  64.868  1.00  0.00    -0.563 A  
HETATM   30  C   UNL     1     -11.658  12.017  65.785  1.00  0.00    -0.353 A  
HETATM   31  C   UNL     1     -10.192  11.318  64.047  1.00  0.00    -0.403 A  
HETATM   32  C   UNL     1     -12.042  12.815  63.529  1.00  0.00    -0.642 A  
HETATM   33  C   UNL     1     -10.924  12.085  63.123  1.00  0.00    -0.269 A  
ENDBRANCH  26  28
ENDBRANCH  25  26
ENDBRANCH   3  25
TORSDOF 9
ENDMDL
MODEL       88
REMARK 921   NORMALIZED FREE ENERGY PREDICTED BY IDOCK:   -5.92 KCAL/MOL
REMARK 922        TOTAL FREE ENERGY PREDICTED BY IDOCK:  -10.54 KCAL/MOL
REMARK 923 INTER-LIGAND FREE ENERGY PREDICTED BY IDOCK:   -9.56 KCAL/MOL
REMARK 924 INTRA-LIGAND FREE ENERGY PREDICTED BY IDOCK:   -0.98 KCAL/MOL
REMARK 927      BINDING AFFINITY PREDICTED BY RF-SCORE:    0.00 PKD
ROOT
HETATM    1  C   UNL     1      -9.310  15.190  65.802  1.00  0.00    -0.207 C  
HETATM    2  C   UNL     1      -9.239  15.091  67.335  1.00  0.00    -0.195 C  
HETATM    3  C   UNL     1     -10.402  14.975  68.043  1.00  0.00    -0.236 C  
ENDROOT
BRANCH   2   4
HETATM    4  N   UNL     1      -7.920  15.078  67.830  1.00  0.00    -0.131 N  
HETATM    5  C   UNL     1      -7.592  14.369  68.997  1.00  0.00    -0.106 C  
HETATM    6  O   UNL     1      -6.578  14.517  69.664  1.00  0.00    -0.133 OA 
BRANCH   4   7
HETATM    7  C   UNL     1      -6.993  16.178  67.489  1.00  0.00    -0.168 C  
BRANCH   7   8
HETATM    8  C   UNL     1      -7.587  17.565  67.650  1.00  0.00    -0.203 A  
HETATM    9  H2  UNL     1      -6.382  17.299  65.380  1.00  0.00     0.000 HD 
HETATM   10  C   UNL     1      -8.089  18.169  68.748  1.00  0.00    -0.236 A  
HETATM   11  N   UNL     1      -8.459  19.542  66.512  1.00  0.00    -0.326 NA 
HETATM   12  N   UNL     1      -8.924  19.271  68.789  1.00  0.00    -0.370 NA 
HETATM   13  H1  UNL     1      -7.026  18.722  64.552  1.00  0.00     0.000 HD 
HETATM   14  C   UNL     1     -10.237  20.902  67.587  1.00  0.00     0.100 C  
HETATM   15  N   UNL     1      -6.974  18.130  65.381  1.00  0.00    -0.485 NA 
HETATM   16  C   UNL     1      -9.134  19.878  67.657  1.00  0.00    -0.340 A  
HETATM   17  C   UNL     1      -7.662  18.433  66.434  1.00  0.00    -0.262 A  
ENDBRANCH   7   8
ENDBRANCH   4   7
ENDBRANCH   2   4
BRANCH   3  18
HETATM   18  C   UNL     1     -11.752  14.596  67.289  1.00  0.00    -0.406 C  
BRANCH  18  19
HETATM   19  C   UNL     1     -11.874  13.121  66.741  1.00  0.00    -0.385 C  
BRANCH  19  20
HETATM   20  O   UNL     1     -12.603  12.960  65.466  1.00  0.00    -0.559 OA 
HETATM   21  O   UNL     1     -11.477  13.597  63.661  1.00  0.00    -0.184 OA 
HETATM   22  O   UNL     1     -13.132  11.810  63.604  1.00  0.00    -0.595 OA 
HETATM   23  P   UNL     1     -11.674  12.101  64.286  1.00  0.00    -0.364 P  
HETATM   24  O   UNL     1     -10.843  11.332  63.230  1.00  0.00    -0.326 OA 
ENDBRANCH  19  20
ENDBRANCH  18  19
ENDBRANCH   3  18
BRANCH   3  25
HETATM   25  S   UNL     1     -10.573  15.186  69.849  1.00  0.00    -0.201 SA 
BRANCH  25  26
HETATM   26  C   UNL     1     -12.120  14.509  70.504  1.00  0.00    -0.325 C  
HETATM   27  O   UNL     1     -13.027  15.249  70.869  1.00  0.00    -0.410 OA 
BRANCH  26  28
HETATM   28  C   UNL     1     -12.278  12.984  70.700  1.00  0.00    -0.390 A  
HETATM   29  C   UNL     1     -13.351  11.130  71.969  1.00  0.00    -0.384 A  
HETATM   30  C   UNL     1     -13.124  12.505  71.738  1.00  0.00    -0.450 A  
HETATM   31  C   UNL     1     -11.712  11.995  69.892  1.00  0.00    -0.374 A  
HETATM   32  C   UNL     1     -12.752  10.184  71.146  1.00  0.00    -0.494 A  
HETATM   33  C   UNL     1     -11.937  10.622  70.102  1.00  0.00    -0.417 A  
ENDBRANCH  26  28
ENDBRANCH  25  26
ENDBRANCH   3  25
TORSDOF 9
ENDMDL
MODEL       89
REMARK 921   NORMALIZED FREE ENERGY PREDICTED BY IDOCK:   -5.91 KCAL/MOL
REMARK 922        TOTAL FREE ENERGY PREDICTED BY IDOCK:  -10.53 KCAL/MOL
REMARK 923 INTER-LIGAND FREE ENERGY PREDICTED BY IDOCK:   -9.01 KCAL/MOL
REMARK 924 INTRA-LIGAND FREE ENERGY PREDICTED BY IDOCK:   -1.52 KCAL/MOL
REMARK 927      BINDING AFFINITY PREDICTED BY RF-SCORE:    0.00 PKD
ROOT
HETATM    1  C   UNL     1      -8.459   8.479  64.443  1.00  0.00    -0.089 C  
HETATM    2  C   UNL     1      -8.546   9.168  65.815  1.00  0.00    -0.153 C  
HETATM    3  C   UNL     1      -9.319  10.289  65.942  1.00  0.00    -0.180 C  
ENDROOT
BRANCH   2   4
HETATM    4  N   UNL     1      -7.828   8.494  66.822  1.00  0.00    -0.090 N  
HETATM    5  C   UNL     1      -6.435   8.632  66.934  1.00  0.00    -0.061 C  
HETATM    6  O   UNL     1      -5.690   7.893  67.562  1.00  0.00    -0.035 OA 
BRANCH   4   7
HETATM    7  C   UNL     1      -8.382   7.263  67.424  1.00  0.00    -0.119 C  
BRANCH   7   8
HETATM    8  C   UNL     1      -9.353   7.510  68.565  1.00  0.00    -0.142 A  
HETATM    9  H2  UNL     1     -10.341   5.902  66.801  1.00  0.00     0.000 HD 
HETATM   10  C   UNL     1      -9.315   8.436  69.547  1.00  0.00    -0.158 A  
HETATM   11  N   UNL     1     -11.239   6.639  69.846  1.00  0.00    -0.342 NA 
HETATM   12  N   UNL     1     -10.007   8.414  70.744  1.00  0.00    -0.185 NA 
HETATM   13  H1  UNL     1     -11.697   5.260  67.735  1.00  0.00     0.000 HD 
HETATM   14  C   UNL     1     -11.480   7.229  72.246  1.00  0.00    -0.316 C  
HETATM   15  N   UNL     1     -10.884   5.873  67.664  1.00  0.00    -0.276 NA 
HETATM   16  C   UNL     1     -10.897   7.474  70.879  1.00  0.00    -0.240 A  
HETATM   17  C   UNL     1     -10.544   6.613  68.669  1.00  0.00    -0.234 A  
ENDBRANCH   7   8
ENDBRANCH   4   7
ENDBRANCH   2   4
BRANCH   3  18
HETATM   18  C   UNL     1     -10.371  10.657  64.804  1.00  0.00    -0.353 C  
BRANCH  18  19
HETATM   19  C   UNL     1      -9.888  11.655  63.681  1.00  0.00    -0.345 C  
BRANCH  19  20
HETATM   20  O   UNL     1     -10.930  12.520  63.091  1.00  0.00    -0.343 OA 
HETATM   21  O   UNL     1     -13.011  11.788  63.357  1.00  0.00    -0.646 OA 
HETATM   22  O   UNL     1     -12.468  14.160  63.222  1.00  0.00    -0.758 OA 
HETATM   23  P   UNL     1     -12.183  12.898  64.224  1.00  0.00    -0.410 P  
HETATM   24  O   UNL     1     -13.303  13.237  65.236  1.00  0.00    -0.561 OA 
ENDBRANCH  19  20
ENDBRANCH  18  19
ENDBRANCH   3  18
BRANCH   3  25
HETATM   25  S   UNL     1      -9.294  11.442  67.357  1.00  0.00    -0.168 SA 
BRANCH  25  26
HETATM   26  C   UNL     1     -10.941  12.042  67.819  1.00  0.00    -0.232 C  
HETATM   27  O   UNL     1     -11.922  11.311  67.742  1.00  0.00    -0.637 OA 
BRANCH  26  28
HETATM   28  C   UNL     1     -11.141  13.519  68.228  1.00  0.00    -0.287 A  
HETATM   29  C   UNL     1     -11.910  15.132  69.962  1.00  0.00    -0.361 A  
HETATM   30  C   UNL     1     -11.718  13.813  69.494  1.00  0.00    -0.380 A  
HETATM   31  C   UNL     1     -10.738  14.633  67.487  1.00  0.00    -0.268 A  
HETATM   32  C   UNL     1     -11.505  16.207  69.180  1.00  0.00    -0.311 A  
HETATM   33  C   UNL     1     -10.912  15.952  67.943  1.00  0.00    -0.327 A  
ENDBRANCH  26  28
ENDBRANCH  25  26
ENDBRANCH   3  25
TORSDOF 9
ENDMDL
MODEL       90
REMARK 921   NORMALIZED FREE ENERGY PREDICTED BY IDOCK:   -5.90 KCAL/MOL
REMARK 922        TOTAL FREE ENERGY PREDICTED BY IDOCK:  -10.52 KCAL/MOL
REMARK 923 INTER-LIGAND FREE ENERGY PREDICTED BY IDOCK:   -9.06 KCAL/MOL
REMARK 924 INTRA-LIGAND FREE ENERGY PREDICTED BY IDOCK:   -1.46 KCAL/MOL
REMARK 927      BINDING AFFINITY PREDICTED BY RF-SCORE:    0.00 PKD
ROOT
HETATM    1  C   UNL     1      -8.552  15.326  69.606  1.00  0.00    -0.104 C  
HETATM    2  C   UNL     1      -9.420  14.299  68.860  1.00  0.00    -0.069 C  
HETATM    3  C   UNL     1     -10.704  14.090  69.282  1.00  0.00    -0.115 C  
ENDROOT
BRANCH   2   4
HETATM    4  N   UNL     1      -8.768  13.720  67.754  1.00  0.00    -0.170 N  
HETATM    5  C   UNL     1      -7.428  13.309  67.837  1.00  0.00    -0.143 C  
HETATM    6  O   UNL     1      -6.692  13.071  66.890  1.00  0.00     0.006 OA 
BRANCH   4   7
HETATM    7  C   UNL     1      -9.250  14.000  66.384  1.00  0.00    -0.162 C  
BRANCH   7   8
HETATM    8  C   UNL     1      -9.337  15.477  66.045  1.00  0.00    -0.379 A  
HETATM    9  H2  UNL     1     -11.290  14.141  65.008  1.00  0.00     0.000 HD 
HETATM   10  C   UNL     1      -8.419  16.455  66.198  1.00  0.00    -0.294 A  
HETATM   11  N   UNL     1     -10.800  17.335  65.438  1.00  0.00    -0.480 NA 
HETATM   12  N   UNL     1      -8.645  17.819  66.207  1.00  0.00    -0.444 NA 
HETATM   13  H1  UNL     1     -12.356  15.486  64.584  1.00  0.00     0.000 HD 
HETATM   14  C   UNL     1     -10.226  19.643  66.152  1.00  0.00    -0.604 C  
HETATM   15  N   UNL     1     -11.482  15.143  64.983  1.00  0.00    -0.361 NA 
HETATM   16  C   UNL     1      -9.846  18.208  65.894  1.00  0.00    -0.033 A  
HETATM   17  C   UNL     1     -10.617  15.980  65.459  1.00  0.00    -0.398 A  
ENDBRANCH   7   8
ENDBRANCH   4   7
ENDBRANCH   2   4
BRANCH   3  18
HETATM   18  C   UNL     1     -11.387  15.127  70.278  1.00  0.00    -0.315 C  
BRANCH  18  19
HETATM   19  C   UNL     1     -12.943  15.343  70.127  1.00  0.00    -0.066 C  
BRANCH  19  20
HETATM   20  O   UNL     1     -13.694  15.551  71.382  1.00  0.00    -0.503 OA 
HETATM   21  O   UNL     1     -13.466  13.932  72.886  1.00  0.00    -0.653 OA 
HETATM   22  O   UNL     1     -13.853  16.254  73.516  1.00  0.00    -0.531 OA 
HETATM   23  P   UNL     1     -12.692  15.367  72.781  1.00  0.00    -0.527 P  
HETATM   24  O   UNL     1     -11.795  15.202  74.032  1.00  0.00    -0.435 OA 
ENDBRANCH  19  20
ENDBRANCH  18  19
ENDBRANCH   3  18
BRANCH   3  25
HETATM   25  S   UNL     1     -11.776  12.702  68.775  1.00  0.00    -0.319 SA 
BRANCH  25  26
HETATM   26  C   UNL     1     -11.165  11.088  69.328  1.00  0.00    -0.257 C  
HETATM   27  O   UNL     1     -11.101  10.813  70.521  1.00  0.00    -0.233 OA 
BRANCH  26  28
HETATM   28  C   UNL     1     -10.626  10.067  68.299  1.00  0.00    -0.264 A  
HETATM   29  C   UNL     1      -9.516   9.687  66.103  1.00  0.00    -0.274 A  
HETATM   30  C   UNL     1     -10.059  10.544  67.086  1.00  0.00    -0.253 A  
HETATM   31  C   UNL     1     -10.575   8.682  68.474  1.00  0.00    -0.162 A  
HETATM   32  C   UNL     1      -9.502   8.314  66.318  1.00  0.00    -0.271 A  
HETATM   33  C   UNL     1     -10.028   7.815  67.511  1.00  0.00    -0.242 A  
ENDBRANCH  26  28
ENDBRANCH  25  26
ENDBRANCH   3  25
TORSDOF 9
ENDMDL
MODEL       91
REMARK 921   NORMALIZED FREE ENERGY PREDICTED BY IDOCK:   -5.90 KCAL/MOL
REMARK 922        TOTAL FREE ENERGY PREDICTED BY IDOCK:  -10.51 KCAL/MOL
REMARK 923 INTER-LIGAND FREE ENERGY PREDICTED BY IDOCK:   -8.66 KCAL/MOL
REMARK 924 INTRA-LIGAND FREE ENERGY PREDICTED BY IDOCK:   -1.85 KCAL/MOL
REMARK 927      BINDING AFFINITY PREDICTED BY RF-SCORE:    0.00 PKD
ROOT
HETATM    1  C   UNL     1     -10.903   7.290  67.053  1.00  0.00    -0.350 C  
HETATM    2  C   UNL     1      -9.749   7.853  67.899  1.00  0.00    -0.155 C  
HETATM    3  C   UNL     1      -9.536   7.340  69.148  1.00  0.00    -0.148 C  
ENDROOT
BRANCH   2   4
HETATM    4  N   UNL     1      -8.993   8.833  67.226  1.00  0.00    -0.131 N  
HETATM    5  C   UNL     1      -7.651   8.604  66.884  1.00  0.00    -0.084 C  
HETATM    6  O   UNL     1      -6.835   9.458  66.571  1.00  0.00    -0.081 OA 
BRANCH   4   7
HETATM    7  C   UNL     1      -9.375  10.258  67.329  1.00  0.00    -0.149 C  
BRANCH   7   8
HETATM    8  C   UNL     1     -10.298  10.736  66.223  1.00  0.00    -0.303 A  
HETATM    9  H2  UNL     1     -11.324  11.127  68.562  1.00  0.00     0.000 HD 
HETATM   10  C   UNL     1     -10.240  10.517  64.892  1.00  0.00    -0.300 A  
HETATM   11  N   UNL     1     -12.102  12.262  65.607  1.00  0.00    -0.578 NA 
HETATM   12  N   UNL     1     -10.876  11.238  63.898  1.00  0.00    -0.383 NA 
HETATM   13  H1  UNL     1     -12.620  12.244  68.117  1.00  0.00     0.000 HD 
HETATM   14  C   UNL     1     -12.249  13.127  63.285  1.00  0.00    -0.438 C  
HETATM   15  N   UNL     1     -11.827  11.659  67.852  1.00  0.00    -0.596 NA 
HETATM   16  C   UNL     1     -11.735  12.132  64.292  1.00  0.00    -0.373 A  
HETATM   17  C   UNL     1     -11.460  11.593  66.613  1.00  0.00    -0.206 A  
ENDBRANCH   7   8
ENDBRANCH   4   7
ENDBRANCH   2   4
BRANCH   3  18
HETATM   18  C   UNL     1     -10.227   5.968  69.567  1.00  0.00    -0.267 C  
BRANCH  18  19
HETATM   19  C   UNL     1      -9.326   4.673  69.528  1.00  0.00    -0.141 C  
BRANCH  19  20
HETATM   20  O   UNL     1      -9.455   3.759  70.682  1.00  0.00    -0.142 OA 
HETATM   21  O   UNL     1      -8.354   4.392  72.503  1.00  0.00    -0.105 OA 
HETATM   22  O   UNL     1     -10.420   3.106  72.608  1.00  0.00    -0.156 OA 
HETATM   23  P   UNL     1      -9.930   4.589  72.123  1.00  0.00    -0.185 P  
HETATM   24  O   UNL     1     -10.355   5.332  73.413  1.00  0.00    -0.178 OA 
ENDBRANCH  19  20
ENDBRANCH  18  19
ENDBRANCH   3  18
BRANCH   3  25
HETATM   25  S   UNL     1      -8.468   8.077  70.432  1.00  0.00    -0.132 SA 
BRANCH  25  26
HETATM   26  C   UNL     1      -9.376   8.577  71.917  1.00  0.00    -0.267 C  
HETATM   27  O   UNL     1      -8.831   8.589  73.015  1.00  0.00    -0.321 OA 
BRANCH  26  28
HETATM   28  C   UNL     1     -10.885   8.905  71.831  1.00  0.00    -0.433 A  
HETATM   29  C   UNL     1     -12.670  10.325  70.833  1.00  0.00    -0.462 A  
HETATM   30  C   UNL     1     -11.312   9.974  70.997  1.00  0.00    -0.434 A  
HETATM   31  C   UNL     1     -11.912   8.192  72.454  1.00  0.00    -0.431 A  
HETATM   32  C   UNL     1     -13.654   9.593  71.487  1.00  0.00    -0.376 A  
HETATM   33  C   UNL     1     -13.270   8.520  72.293  1.00  0.00    -0.361 A  
ENDBRANCH  26  28
ENDBRANCH  25  26
ENDBRANCH   3  25
TORSDOF 9
ENDMDL
MODEL       92
REMARK 921   NORMALIZED FREE ENERGY PREDICTED BY IDOCK:   -5.90 KCAL/MOL
REMARK 922        TOTAL FREE ENERGY PREDICTED BY IDOCK:  -10.51 KCAL/MOL
REMARK 923 INTER-LIGAND FREE ENERGY PREDICTED BY IDOCK:   -9.04 KCAL/MOL
REMARK 924 INTRA-LIGAND FREE ENERGY PREDICTED BY IDOCK:   -1.47 KCAL/MOL
REMARK 927      BINDING AFFINITY PREDICTED BY RF-SCORE:    0.00 PKD
ROOT
HETATM    1  C   UNL     1     -10.275   6.657  67.824  1.00  0.00    -0.207 C  
HETATM    2  C   UNL     1     -10.546   7.493  69.086  1.00  0.00    -0.197 C  
HETATM    3  C   UNL     1     -10.682   8.848  68.963  1.00  0.00    -0.126 C  
ENDROOT
BRANCH   2   4
HETATM    4  N   UNL     1     -10.680   6.713  70.251  1.00  0.00    -0.231 N  
HETATM    5  C   UNL     1     -11.732   6.935  71.154  1.00  0.00    -0.336 C  
HETATM    6  O   UNL     1     -11.784   6.532  72.307  1.00  0.00    -0.291 OA 
BRANCH   4   7
HETATM    7  C   UNL     1      -9.496   6.041  70.829  1.00  0.00    -0.168 C  
BRANCH   7   8
HETATM    8  C   UNL     1      -8.340   6.974  71.139  1.00  0.00    -0.118 A  
HETATM    9  H2  UNL     1      -7.734   5.286  69.279  1.00  0.00     0.000 HD 
HETATM   10  C   UNL     1      -8.171   7.828  72.171  1.00  0.00    -0.113 A  
HETATM   11  N   UNL     1      -6.310   8.037  70.296  1.00  0.00    -0.036 NA 
HETATM   12  N   UNL     1      -7.292   8.894  72.238  1.00  0.00    -0.337 NA 
HETATM   13  H1  UNL     1      -6.273   6.065  68.658  1.00  0.00     0.000 HD 
HETATM   14  C   UNL     1      -5.648  10.277  71.137  1.00  0.00    -0.062 C  
HETATM   15  N   UNL     1      -7.057   6.049  69.312  1.00  0.00    -0.064 NA 
HETATM   16  C   UNL     1      -6.437   9.000  71.263  1.00  0.00    -0.085 A  
HETATM   17  C   UNL     1      -7.191   6.997  70.182  1.00  0.00    -0.075 A  
ENDBRANCH   7   8
ENDBRANCH   4   7
ENDBRANCH   2   4
BRANCH   3  18
HETATM   18  C   UNL     1     -10.908   9.492  67.524  1.00  0.00    -0.239 C  
BRANCH  18  19
HETATM   19  C   UNL     1     -11.011  11.065  67.454  1.00  0.00    -0.291 C  
BRANCH  19  20
HETATM   20  O   UNL     1     -12.091  11.606  66.604  1.00  0.00    -0.441 OA 
HETATM   21  O   UNL     1     -12.206  13.823  66.538  1.00  0.00    -0.435 OA 
HETATM   22  O   UNL     1     -12.875  12.426  64.658  1.00  0.00    -0.714 OA 
HETATM   23  P   UNL     1     -11.510  12.789  65.483  1.00  0.00    -0.375 P  
HETATM   24  O   UNL     1     -10.989  13.847  64.480  1.00  0.00    -0.388 OA 
ENDBRANCH  19  20
ENDBRANCH  18  19
ENDBRANCH   3  18
BRANCH   3  25
HETATM   25  S   UNL     1     -10.663  10.047  70.339  1.00  0.00    -0.274 SA 
BRANCH  25  26
HETATM   26  C   UNL     1     -12.312  10.657  70.778  1.00  0.00    -0.376 C  
HETATM   27  O   UNL     1     -13.282   9.908  70.777  1.00  0.00    -0.308 OA 
BRANCH  26  28
HETATM   28  C   UNL     1     -12.531  12.160  71.068  1.00  0.00    -0.369 A  
HETATM   29  C   UNL     1     -13.585  13.885  72.521  1.00  0.00    -0.680 A  
HETATM   30  C   UNL     1     -13.355  12.539  72.164  1.00  0.00    -0.540 A  
HETATM   31  C   UNL     1     -11.929  13.220  70.385  1.00  0.00    -0.350 A  
HETATM   32  C   UNL     1     -12.974  14.904  71.800  1.00  0.00    -0.417 A  
HETATM   33  C   UNL     1     -12.139  14.566  70.734  1.00  0.00    -0.398 A  
ENDBRANCH  26  28
ENDBRANCH  25  26
ENDBRANCH   3  25
TORSDOF 9
ENDMDL
MODEL       93
REMARK 921   NORMALIZED FREE ENERGY PREDICTED BY IDOCK:   -5.89 KCAL/MOL
REMARK 922        TOTAL FREE ENERGY PREDICTED BY IDOCK:  -10.50 KCAL/MOL
REMARK 923 INTER-LIGAND FREE ENERGY PREDICTED BY IDOCK:   -8.86 KCAL/MOL
REMARK 924 INTRA-LIGAND FREE ENERGY PREDICTED BY IDOCK:   -1.64 KCAL/MOL
REMARK 927      BINDING AFFINITY PREDICTED BY RF-SCORE:    0.00 PKD
ROOT
HETATM    1  C   UNL     1     -10.317   6.272  69.150  1.00  0.00    -0.262 C  
HETATM    2  C   UNL     1      -9.955   7.763  69.047  1.00  0.00    -0.182 C  
HETATM    3  C   UNL     1      -9.579   8.268  67.833  1.00  0.00    -0.152 C  
ENDROOT
BRANCH   2   4
HETATM    4  N   UNL     1     -10.116   8.459  70.261  1.00  0.00    -0.186 N  
HETATM    5  C   UNL     1      -9.060   8.566  71.180  1.00  0.00    -0.190 C  
HETATM    6  O   UNL     1      -9.163   8.882  72.356  1.00  0.00    -0.362 OA 
BRANCH   4   7
HETATM    7  C   UNL     1     -11.466   8.627  70.841  1.00  0.00    -0.275 C  
BRANCH   7   8
HETATM    8  C   UNL     1     -12.004  10.044  70.766  1.00  0.00    -0.426 A  
HETATM    9  H2  UNL     1     -13.441   8.557  72.314  1.00  0.00     0.000 HD 
HETATM   10  C   UNL     1     -11.687  11.045  69.917  1.00  0.00    -0.346 A  
HETATM   11  N   UNL     1     -13.293  11.785  71.891  1.00  0.00    -0.401 NA 
HETATM   12  N   UNL     1     -11.929  12.396  70.091  1.00  0.00    -0.339 NA 
HETATM   13  H1  UNL     1     -14.363   9.819  73.140  1.00  0.00     0.000 HD 
HETATM   14  C   UNL     1     -12.738  14.175  71.508  1.00  0.00    -0.436 C  
HETATM   15  N   UNL     1     -13.657   9.544  72.456  1.00  0.00    -0.390 NA 
HETATM   16  C   UNL     1     -12.667  12.724  71.111  1.00  0.00    -0.263 A  
HETATM   17  C   UNL     1     -13.037  10.448  71.768  1.00  0.00    -0.462 A  
ENDBRANCH   7   8
ENDBRANCH   4   7
ENDBRANCH   2   4
BRANCH   3  18
HETATM   18  C   UNL     1      -9.853   7.427  66.509  1.00  0.00    -0.209 C  
BRANCH  18  19
HETATM   19  C   UNL     1      -8.601   6.772  65.807  1.00  0.00    -0.137 C  
BRANCH  19  20
HETATM   20  O   UNL     1      -8.857   5.525  65.058  1.00  0.00    -0.136 OA 
HETATM   21  O   UNL     1      -7.620   3.789  65.684  1.00  0.00    -0.079 OA 
HETATM   22  O   UNL     1      -9.872   3.533  64.792  1.00  0.00    -0.168 OA 
HETATM   23  P   UNL     1      -9.148   4.181  66.108  1.00  0.00    -0.159 P  
HETATM   24  O   UNL     1      -9.410   2.978  67.047  1.00  0.00    -0.179 OA 
ENDBRANCH  19  20
ENDBRANCH  18  19
ENDBRANCH   3  18
BRANCH   3  25
HETATM   25  S   UNL     1      -8.792   9.891  67.556  1.00  0.00    -0.127 SA 
BRANCH  25  26
HETATM   26  C   UNL     1      -8.900  10.453  65.837  1.00  0.00    -0.163 C  
HETATM   27  O   UNL     1      -7.959  10.309  65.065  1.00  0.00    -0.144 OA 
BRANCH  26  28
HETATM   28  C   UNL     1     -10.156  11.211  65.346  1.00  0.00    -0.317 A  
HETATM   29  C   UNL     1     -12.119  12.624  65.935  1.00  0.00    -0.459 A  
HETATM   30  C   UNL     1     -10.973  11.882  66.296  1.00  0.00    -0.345 A  
HETATM   31  C   UNL     1     -10.545  11.368  64.013  1.00  0.00    -0.444 A  
HETATM   32  C   UNL     1     -12.473  12.737  64.596  1.00  0.00    -0.525 A  
HETATM   33  C   UNL     1     -11.677  12.112  63.635  1.00  0.00    -0.588 A  
ENDBRANCH  26  28
ENDBRANCH  25  26
ENDBRANCH   3  25
TORSDOF 9
ENDMDL
MODEL       94
REMARK 921   NORMALIZED FREE ENERGY PREDICTED BY IDOCK:   -5.88 KCAL/MOL
REMARK 922        TOTAL FREE ENERGY PREDICTED BY IDOCK:  -10.48 KCAL/MOL
REMARK 923 INTER-LIGAND FREE ENERGY PREDICTED BY IDOCK:   -9.29 KCAL/MOL
REMARK 924 INTRA-LIGAND FREE ENERGY PREDICTED BY IDOCK:   -1.19 KCAL/MOL
REMARK 927      BINDING AFFINITY PREDICTED BY RF-SCORE:    0.00 PKD
ROOT
HETATM    1  C   UNL     1     -12.206  13.413  70.108  1.00  0.00    -0.385 C  
HETATM    2  C   UNL     1     -11.333  12.881  68.959  1.00  0.00    -0.290 C  
HETATM    3  C   UNL     1     -10.857  11.601  69.030  1.00  0.00    -0.203 C  
ENDROOT
BRANCH   2   4
HETATM    4  N   UNL     1     -11.175  13.805  67.908  1.00  0.00    -0.263 N  
HETATM    5  C   UNL     1     -12.101  13.870  66.854  1.00  0.00    -0.430 C  
HETATM    6  O   UNL     1     -11.919  14.411  65.773  1.00  0.00    -0.372 OA 
BRANCH   4   7
HETATM    7  C   UNL     1      -9.832  14.337  67.590  1.00  0.00    -0.224 C  
BRANCH   7   8
HETATM    8  C   UNL     1      -9.660  15.815  67.890  1.00  0.00    -0.214 A  
HETATM    9  H2  UNL     1      -8.943  15.240  65.475  1.00  0.00     0.000 HD 
HETATM   10  C   UNL     1      -9.705  16.468  69.071  1.00  0.00    -0.258 A  
HETATM   11  N   UNL     1      -9.559  18.072  66.967  1.00  0.00    -0.278 NA 
HETATM   12  N   UNL     1      -9.892  17.824  69.269  1.00  0.00    -0.127 NA 
HETATM   13  H1  UNL     1      -8.886  16.874  64.804  1.00  0.00     0.000 HD 
HETATM   14  C   UNL     1     -10.348  19.998  68.322  1.00  0.00    -0.494 C  
HETATM   15  N   UNL     1      -9.055  16.248  65.591  1.00  0.00    -0.394 NA 
HETATM   16  C   UNL     1      -9.881  18.570  68.204  1.00  0.00    -0.346 A  
HETATM   17  C   UNL     1      -9.412  16.733  66.736  1.00  0.00    -0.246 A  
ENDBRANCH   7   8
ENDBRANCH   4   7
ENDBRANCH   2   4
BRANCH   3  18
HETATM   18  C   UNL     1     -11.479  10.585  70.086  1.00  0.00    -0.405 C  
BRANCH  18  19
HETATM   19  C   UNL     1     -10.488   9.550  70.749  1.00  0.00    -0.314 C  
BRANCH  19  20
HETATM   20  O   UNL     1     -10.856   9.074  72.099  1.00  0.00    -0.337 OA 
HETATM   21  O   UNL     1     -12.750   7.918  72.197  1.00  0.00    -0.290 OA 
HETATM   22  O   UNL     1     -10.892   7.512  73.719  1.00  0.00    -0.316 OA 
HETATM   23  P   UNL     1     -11.209   7.381  72.120  1.00  0.00    -0.294 P  
HETATM   24  O   UNL     1     -11.525   5.865  72.140  1.00  0.00    -0.291 OA 
ENDBRANCH  19  20
ENDBRANCH  18  19
ENDBRANCH   3  18
BRANCH   3  25
HETATM   25  S   UNL     1      -9.549  10.894  67.971  1.00  0.00    -0.167 SA 
BRANCH  25  26
HETATM   26  C   UNL     1     -10.184   9.751  66.717  1.00  0.00    -0.233 C  
HETATM   27  O   UNL     1     -10.766   8.721  67.040  1.00  0.00    -0.262 OA 
BRANCH  26  28
HETATM   28  C   UNL     1      -9.916  10.016  65.218  1.00  0.00    -0.368 A  
HETATM   29  C   UNL     1     -10.311  11.476  63.240  1.00  0.00    -0.435 A  
HETATM   30  C   UNL     1     -10.525  11.140  64.595  1.00  0.00    -0.400 A  
HETATM   31  C   UNL     1      -9.052   9.281  64.401  1.00  0.00    -0.111 A  
HETATM   32  C   UNL     1      -9.454  10.704  62.465  1.00  0.00    -0.289 A  
HETATM   33  C   UNL     1      -8.820   9.609  63.053  1.00  0.00    -0.254 A  
ENDBRANCH  26  28
ENDBRANCH  25  26
ENDBRANCH   3  25
TORSDOF 9
ENDMDL
MODEL       95
REMARK 921   NORMALIZED FREE ENERGY PREDICTED BY IDOCK:   -5.87 KCAL/MOL
REMARK 922        TOTAL FREE ENERGY PREDICTED BY IDOCK:  -10.47 KCAL/MOL
REMARK 923 INTER-LIGAND FREE ENERGY PREDICTED BY IDOCK:   -9.57 KCAL/MOL
REMARK 924 INTRA-LIGAND FREE ENERGY PREDICTED BY IDOCK:   -0.91 KCAL/MOL
REMARK 927      BINDING AFFINITY PREDICTED BY RF-SCORE:    0.00 PKD
ROOT
HETATM    1  C   UNL     1      -8.094  14.248  67.222  1.00  0.00    -0.199 C  
HETATM    2  C   UNL     1      -9.448  14.149  67.945  1.00  0.00    -0.211 C  
HETATM    3  C   UNL     1     -10.161  12.986  67.852  1.00  0.00    -0.234 C  
ENDROOT
BRANCH   2   4
HETATM    4  N   UNL     1      -9.767  15.302  68.687  1.00  0.00    -0.205 N  
HETATM    5  C   UNL     1     -10.102  15.218  70.048  1.00  0.00    -0.159 C  
HETATM    6  O   UNL     1     -10.663  16.084  70.703  1.00  0.00    -0.229 OA 
BRANCH   4   7
HETATM    7  C   UNL     1     -10.272  16.508  67.996  1.00  0.00    -0.271 C  
BRANCH   7   8
HETATM    8  C   UNL     1      -9.205  17.546  67.696  1.00  0.00    -0.243 A  
HETATM    9  H2  UNL     1     -10.910  17.341  65.765  1.00  0.00     0.000 HD 
HETATM   10  C   UNL     1      -8.037  17.792  68.326  1.00  0.00    -0.283 A  
HETATM   11  N   UNL     1      -8.643  19.577  66.464  1.00  0.00    -0.332 NA 
HETATM   12  N   UNL     1      -7.272  18.942  68.250  1.00  0.00    -0.262 NA 
HETATM   13  H1  UNL     1     -10.513  18.820  64.883  1.00  0.00     0.000 HD 
HETATM   14  C   UNL     1      -7.027  21.198  67.426  1.00  0.00    -0.364 C  
HETATM   15  N   UNL     1     -10.353  18.190  65.669  1.00  0.00    -0.599 NA 
HETATM   16  C   UNL     1      -7.643  19.824  67.369  1.00  0.00    -0.267 A  
HETATM   17  C   UNL     1      -9.441  18.469  66.544  1.00  0.00    -0.320 A  
ENDBRANCH   7   8
ENDBRANCH   4   7
ENDBRANCH   2   4
BRANCH   3  18
HETATM   18  C   UNL     1      -9.453  11.664  67.316  1.00  0.00    -0.173 C  
BRANCH  18  19
HETATM   19  C   UNL     1     -10.315  10.714  66.399  1.00  0.00    -0.231 C  
BRANCH  19  20
HETATM   20  O   UNL     1     -10.182  10.923  64.942  1.00  0.00    -0.281 OA 
HETATM   21  O   UNL     1     -12.030  11.621  63.926  1.00  0.00    -0.345 OA 
HETATM   22  O   UNL     1      -9.802  12.221  63.142  1.00  0.00    -0.373 OA 
HETATM   23  P   UNL     1     -10.746  12.483  64.452  1.00  0.00    -0.408 P  
HETATM   24  O   UNL     1     -11.250  13.880  64.014  1.00  0.00    -0.237 OA 
ENDBRANCH  19  20
ENDBRANCH  18  19
ENDBRANCH   3  18
BRANCH   3  25
HETATM   25  S   UNL     1     -11.910  12.772  68.331  1.00  0.00    -0.257 SA 
BRANCH  25  26
HETATM   26  C   UNL     1     -12.130  12.420  70.095  1.00  0.00    -0.290 C  
HETATM   27  O   UNL     1     -12.416  13.312  70.885  1.00  0.00    -0.362 OA 
BRANCH  26  28
HETATM   28  C   UNL     1     -11.866  10.997  70.641  1.00  0.00    -0.434 A  
HETATM   29  C   UNL     1     -12.703   9.076  71.985  1.00  0.00    -0.467 A  
HETATM   30  C   UNL     1     -12.846  10.382  71.468  1.00  0.00    -0.569 A  
HETATM   31  C   UNL     1     -10.759  10.200  70.339  1.00  0.00    -0.329 A  
HETATM   32  C   UNL     1     -11.575   8.329  71.668  1.00  0.00    -0.337 A  
HETATM   33  C   UNL     1     -10.607   8.893  70.837  1.00  0.00    -0.295 A  
ENDBRANCH  26  28
ENDBRANCH  25  26
ENDBRANCH   3  25
TORSDOF 9
ENDMDL
MODEL       96
REMARK 921   NORMALIZED FREE ENERGY PREDICTED BY IDOCK:   -5.87 KCAL/MOL
REMARK 922        TOTAL FREE ENERGY PREDICTED BY IDOCK:  -10.47 KCAL/MOL
REMARK 923 INTER-LIGAND FREE ENERGY PREDICTED BY IDOCK:   -8.48 KCAL/MOL
REMARK 924 INTRA-LIGAND FREE ENERGY PREDICTED BY IDOCK:   -1.99 KCAL/MOL
REMARK 927      BINDING AFFINITY PREDICTED BY RF-SCORE:    0.00 PKD
ROOT
HETATM    1  C   UNL     1      -8.415   8.418  65.385  1.00  0.00    -0.193 C  
HETATM    2  C   UNL     1      -8.370   8.707  66.895  1.00  0.00    -0.108 C  
HETATM    3  C   UNL     1      -9.020   9.809  67.375  1.00  0.00    -0.135 C  
ENDROOT
BRANCH   2   4
HETATM    4  N   UNL     1      -7.678   7.723  67.628  1.00  0.00    -0.119 N  
HETATM    5  C   UNL     1      -6.373   7.952  68.095  1.00  0.00    -0.050 C  
HETATM    6  O   UNL     1      -5.589   7.096  68.476  1.00  0.00    -0.020 OA 
BRANCH   4   7
HETATM    7  C   UNL     1      -8.046   6.298  67.481  1.00  0.00    -0.113 C  
BRANCH   7   8
HETATM    8  C   UNL     1      -8.947   5.772  68.583  1.00  0.00    -0.112 A  
HETATM    9  H2  UNL     1      -6.707   4.488  68.484  1.00  0.00     0.000 HD 
HETATM   10  C   UNL     1     -10.255   6.009  68.818  1.00  0.00    -0.188 A  
HETATM   11  N   UNL     1      -9.059   4.627  70.737  1.00  0.00    -0.124 NA 
HETATM   12  N   UNL     1     -10.943   5.802  70.000  1.00  0.00    -0.337 NA 
HETATM   13  H1  UNL     1      -6.782   3.672  70.050  1.00  0.00     0.000 HD 
HETATM   14  C   UNL     1     -10.887   5.166  72.328  1.00  0.00    -0.241 C  
HETATM   15  N   UNL     1      -7.195   4.298  69.359  1.00  0.00    -0.050 NA 
HETATM   16  C   UNL     1     -10.298   5.178  70.942  1.00  0.00    -0.212 A  
HETATM   17  C   UNL     1      -8.341   4.853  69.595  1.00  0.00    -0.083 A  
ENDBRANCH   7   8
ENDBRANCH   4   7
ENDBRANCH   2   4
BRANCH   3  18
HETATM   18  C   UNL     1     -10.081  10.563  66.457  1.00  0.00    -0.280 C  
BRANCH  18  19
HETATM   19  C   UNL     1     -10.955  11.681  67.147  1.00  0.00    -0.280 C  
BRANCH  19  20
HETATM   20  O   UNL     1     -12.138  12.139  66.389  1.00  0.00    -0.630 OA 
HETATM   21  O   UNL     1     -11.815  13.967  65.169  1.00  0.00    -0.333 OA 
HETATM   22  O   UNL     1     -13.398  12.230  64.525  1.00  0.00    -0.769 OA 
HETATM   23  P   UNL     1     -11.782  12.397  64.716  1.00  0.00    -0.363 P  
HETATM   24  O   UNL     1     -11.464  12.629  63.219  1.00  0.00    -0.483 OA 
ENDBRANCH  19  20
ENDBRANCH  18  19
ENDBRANCH   3  18
BRANCH   3  25
HETATM   25  S   UNL     1      -8.816  10.521  69.044  1.00  0.00    -0.153 SA 
BRANCH  25  26
HETATM   26  C   UNL     1      -9.394   9.423  70.364  1.00  0.00    -0.268 C  
HETATM   27  O   UNL     1      -8.695   8.501  70.769  1.00  0.00    -0.137 OA 
BRANCH  26  28
HETATM   28  C   UNL     1     -10.823   9.580  70.934  1.00  0.00    -0.407 A  
HETATM   29  C   UNL     1     -12.590   8.690  72.445  1.00  0.00    -0.426 A  
HETATM   30  C   UNL     1     -11.311   8.610  71.852  1.00  0.00    -0.417 A  
HETATM   31  C   UNL     1     -11.687  10.650  70.687  1.00  0.00    -0.454 A  
HETATM   32  C   UNL     1     -13.418   9.767  72.154  1.00  0.00    -0.491 A  
HETATM   33  C   UNL     1     -12.959  10.751  71.278  1.00  0.00    -0.502 A  
ENDBRANCH  26  28
ENDBRANCH  25  26
ENDBRANCH   3  25
TORSDOF 9
ENDMDL
MODEL       97
REMARK 921   NORMALIZED FREE ENERGY PREDICTED BY IDOCK:   -5.87 KCAL/MOL
REMARK 922        TOTAL FREE ENERGY PREDICTED BY IDOCK:  -10.46 KCAL/MOL
REMARK 923 INTER-LIGAND FREE ENERGY PREDICTED BY IDOCK:   -9.15 KCAL/MOL
REMARK 924 INTRA-LIGAND FREE ENERGY PREDICTED BY IDOCK:   -1.31 KCAL/MOL
REMARK 927      BINDING AFFINITY PREDICTED BY RF-SCORE:    0.00 PKD
ROOT
HETATM    1  C   UNL     1     -10.519   6.950  67.922  1.00  0.00    -0.262 C  
HETATM    2  C   UNL     1     -10.771   7.886  69.117  1.00  0.00    -0.117 C  
HETATM    3  C   UNL     1     -10.805   9.236  68.902  1.00  0.00    -0.099 C  
ENDROOT
BRANCH   2   4
HETATM    4  N   UNL     1     -10.998   7.197  70.324  1.00  0.00    -0.256 N  
HETATM    5  C   UNL     1     -12.301   6.905  70.758  1.00  0.00    -0.262 C  
HETATM    6  O   UNL     1     -12.624   6.582  71.891  1.00  0.00    -0.341 OA 
BRANCH   4   7
HETATM    7  C   UNL     1      -9.979   7.230  71.395  1.00  0.00    -0.187 C  
BRANCH   7   8
HETATM    8  C   UNL     1      -9.167   5.953  71.521  1.00  0.00    -0.157 A  
HETATM    9  H2  UNL     1      -9.874   6.869  73.831  1.00  0.00     0.000 HD 
HETATM   10  C   UNL     1      -8.437   5.298  70.595  1.00  0.00    -0.117 A  
HETATM   11  N   UNL     1      -8.679   3.988  72.885  1.00  0.00    -0.099 NA 
HETATM   12  N   UNL     1      -8.008   3.984  70.645  1.00  0.00    -0.054 NA 
HETATM   13  H1  UNL     1      -9.536   5.441  74.816  1.00  0.00     0.000 HD 
HETATM   14  C   UNL     1      -8.016   1.859  71.792  1.00  0.00    -0.044 C  
HETATM   15  N   UNL     1      -9.548   5.906  73.908  1.00  0.00    -0.147 NA 
HETATM   16  C   UNL     1      -8.206   3.354  71.765  1.00  0.00    -0.065 A  
HETATM   17  C   UNL     1      -9.149   5.272  72.852  1.00  0.00    -0.122 A  
ENDBRANCH   7   8
ENDBRANCH   4   7
ENDBRANCH   2   4
BRANCH   3  18
HETATM   18  C   UNL     1     -10.937   9.796  67.417  1.00  0.00    -0.176 C  
BRANCH  18  19
HETATM   19  C   UNL     1     -10.972  11.365  67.247  1.00  0.00    -0.282 C  
BRANCH  19  20
HETATM   20  O   UNL     1     -12.139  11.912  66.524  1.00  0.00    -0.568 OA 
HETATM   21  O   UNL     1     -11.899  14.002  65.812  1.00  0.00    -0.353 OA 
HETATM   22  O   UNL     1     -13.277  12.372  64.637  1.00  0.00    -0.822 OA 
HETATM   23  P   UNL     1     -11.698  12.600  64.999  1.00  0.00    -0.400 P  
HETATM   24  O   UNL     1     -11.304  13.215  63.634  1.00  0.00    -0.383 OA 
ENDBRANCH  19  20
ENDBRANCH  18  19
ENDBRANCH   3  18
BRANCH   3  25
HETATM   25  S   UNL     1     -10.745  10.520  70.198  1.00  0.00    -0.069 SA 
BRANCH  25  26
HETATM   26  C   UNL     1     -12.384  11.012  70.793  1.00  0.00    -0.398 C  
HETATM   27  O   UNL     1     -13.290  10.192  70.894  1.00  0.00    -0.388 OA 
BRANCH  26  28
HETATM   28  C   UNL     1     -12.687  12.498  71.092  1.00  0.00    -0.340 A  
HETATM   29  C   UNL     1     -12.384  14.878  70.426  1.00  0.00    -0.401 A  
HETATM   30  C   UNL     1     -12.136  13.499  70.246  1.00  0.00    -0.425 A  
HETATM   31  C   UNL     1     -13.531  12.972  72.100  1.00  0.00    -0.638 A  
HETATM   32  C   UNL     1     -13.220  15.299  71.454  1.00  0.00    -0.555 A  
HETATM   33  C   UNL     1     -13.798  14.340  72.286  1.00  0.00    -0.622 A  
ENDBRANCH  26  28
ENDBRANCH  25  26
ENDBRANCH   3  25
TORSDOF 9
ENDMDL
MODEL       98
REMARK 921   NORMALIZED FREE ENERGY PREDICTED BY IDOCK:   -5.86 KCAL/MOL
REMARK 922        TOTAL FREE ENERGY PREDICTED BY IDOCK:  -10.46 KCAL/MOL
REMARK 923 INTER-LIGAND FREE ENERGY PREDICTED BY IDOCK:   -9.06 KCAL/MOL
REMARK 924 INTRA-LIGAND FREE ENERGY PREDICTED BY IDOCK:   -1.40 KCAL/MOL
REMARK 927      BINDING AFFINITY PREDICTED BY RF-SCORE:    0.00 PKD
ROOT
HETATM    1  C   UNL     1     -13.072   8.496  72.369  1.00  0.00    -0.338 C  
HETATM    2  C   UNL     1     -11.739   8.843  71.684  1.00  0.00    -0.341 C  
HETATM    3  C   UNL     1     -11.688   9.928  70.853  1.00  0.00    -0.364 C  
ENDROOT
BRANCH   2   4
HETATM    4  N   UNL     1     -10.683   7.991  72.060  1.00  0.00    -0.240 N  
HETATM    5  C   UNL     1      -9.678   8.428  72.939  1.00  0.00    -0.183 C  
HETATM    6  O   UNL     1      -8.590   7.897  73.103  1.00  0.00    -0.158 OA 
BRANCH   4   7
HETATM    7  C   UNL     1     -10.297   6.864  71.184  1.00  0.00    -0.204 C  
BRANCH   7   8
HETATM    8  C   UNL     1     -10.576   5.494  71.775  1.00  0.00    -0.296 A  
HETATM    9  H2  UNL     1      -9.455   5.324  69.453  1.00  0.00     0.000 HD 
HETATM   10  C   UNL     1     -11.332   5.148  72.839  1.00  0.00    -0.282 A  
HETATM   11  N   UNL     1      -9.934   3.138  71.823  1.00  0.00    -0.157 NA 
HETATM   12  N   UNL     1     -11.285   3.961  73.547  1.00  0.00    -0.251 NA 
HETATM   13  H1  UNL     1      -8.977   3.623  69.495  1.00  0.00     0.000 HD 
HETATM   14  C   UNL     1     -10.226   1.821  73.908  1.00  0.00    -0.153 C  
HETATM   15  N   UNL     1      -9.418   4.429  69.940  1.00  0.00    -0.163 NA 
HETATM   16  C   UNL     1     -10.534   3.022  73.051  1.00  0.00    -0.160 A  
HETATM   17  C   UNL     1      -9.930   4.313  71.123  1.00  0.00    -0.156 A  
ENDBRANCH   7   8
ENDBRANCH   4   7
ENDBRANCH   2   4
BRANCH   3  18
HETATM   18  C   UNL     1     -12.867  10.998  70.876  1.00  0.00    -0.393 C  
BRANCH  18  19
HETATM   19  C   UNL     1     -12.663  12.265  71.795  1.00  0.00    -0.152 C  
BRANCH  19  20
HETATM   20  O   UNL     1     -13.467  13.454  71.447  1.00  0.00    -0.253 OA 
HETATM   21  O   UNL     1     -13.759  14.902  73.106  1.00  0.00    -0.506 OA 
HETATM   22  O   UNL     1     -13.673  15.592  70.771  1.00  0.00    -0.490 OA 
HETATM   23  P   UNL     1     -12.675  14.929  71.884  1.00  0.00    -0.380 P  
HETATM   24  O   UNL     1     -11.966  16.248  72.276  1.00  0.00    -0.511 OA 
ENDBRANCH  19  20
ENDBRANCH  18  19
ENDBRANCH   3  18
BRANCH   3  25
HETATM   25  S   UNL     1     -10.333  10.313  69.691  1.00  0.00    -0.236 SA 
BRANCH  25  26
HETATM   26  C   UNL     1     -10.901  10.558  67.988  1.00  0.00    -0.263 C  
HETATM   27  O   UNL     1     -10.873   9.640  67.176  1.00  0.00    -0.232 OA 
BRANCH  26  28
HETATM   28  C   UNL     1     -11.341  11.961  67.511  1.00  0.00    -0.381 A  
HETATM   29  C   UNL     1     -11.467  14.400  67.997  1.00  0.00    -0.336 A  
HETATM   30  C   UNL     1     -11.125  13.079  68.363  1.00  0.00    -0.292 A  
HETATM   31  C   UNL     1     -11.884  12.265  66.260  1.00  0.00    -0.387 A  
HETATM   32  C   UNL     1     -12.019  14.647  66.746  1.00  0.00    -0.297 A  
HETATM   33  C   UNL     1     -12.219  13.576  65.875  1.00  0.00    -0.507 A  
ENDBRANCH  26  28
ENDBRANCH  25  26
ENDBRANCH   3  25
TORSDOF 9
ENDMDL
MODEL       99
REMARK 921   NORMALIZED FREE ENERGY PREDICTED BY IDOCK:   -5.86 KCAL/MOL
REMARK 922        TOTAL FREE ENERGY PREDICTED BY IDOCK:  -10.45 KCAL/MOL
REMARK 923 INTER-LIGAND FREE ENERGY PREDICTED BY IDOCK:   -9.21 KCAL/MOL
REMARK 924 INTRA-LIGAND FREE ENERGY PREDICTED BY IDOCK:   -1.25 KCAL/MOL
REMARK 927      BINDING AFFINITY PREDICTED BY RF-SCORE:    0.00 PKD
ROOT
HETATM    1  C   UNL     1      -7.519  11.099  66.577  1.00  0.00    -0.131 C  
HETATM    2  C   UNL     1      -8.254  11.856  67.695  1.00  0.00    -0.148 C  
HETATM    3  C   UNL     1      -9.093  12.882  67.356  1.00  0.00    -0.197 C  
ENDROOT
BRANCH   2   4
HETATM    4  N   UNL     1      -7.999  11.336  68.979  1.00  0.00    -0.105 N  
HETATM    5  C   UNL     1      -6.721  11.421  69.553  1.00  0.00    -0.119 C  
HETATM    6  O   UNL     1      -6.319  10.769  70.506  1.00  0.00    -0.245 OA 
BRANCH   4   7
HETATM    7  C   UNL     1      -8.856  10.261  69.523  1.00  0.00    -0.148 C  
BRANCH   7   8
HETATM    8  C   UNL     1      -9.250   9.205  68.506  1.00  0.00    -0.136 A  
HETATM    9  H2  UNL     1      -6.908   8.751  69.499  1.00  0.00     0.000 HD 
HETATM   10  C   UNL     1     -10.267   9.196  67.618  1.00  0.00    -0.236 A  
HETATM   11  N   UNL     1      -8.950   6.900  67.758  1.00  0.00    -0.118 NA 
HETATM   12  N   UNL     1     -10.797   8.098  66.966  1.00  0.00    -0.170 NA 
HETATM   13  H1  UNL     1      -6.699   7.077  68.970  1.00  0.00     0.000 HD 
HETATM   14  C   UNL     1     -10.830   5.702  66.664  1.00  0.00    -0.280 C  
HETATM   15  N   UNL     1      -7.261   7.927  69.011  1.00  0.00    -0.074 NA 
HETATM   16  C   UNL     1     -10.159   6.974  67.115  1.00  0.00    -0.217 A  
HETATM   17  C   UNL     1      -8.425   7.959  68.445  1.00  0.00    -0.128 A  
ENDBRANCH   7   8
ENDBRANCH   4   7
ENDBRANCH   2   4
BRANCH   3  18
HETATM   18  C   UNL     1      -9.565  13.050  65.845  1.00  0.00    -0.126 C  
BRANCH  18  19
HETATM   19  C   UNL     1     -10.029  14.490  65.398  1.00  0.00    -0.318 C  
BRANCH  19  20
HETATM   20  O   UNL     1     -11.487  14.733  65.407  1.00  0.00    -0.342 OA 
HETATM   21  O   UNL     1     -12.515  14.315  63.483  1.00  0.00    -0.798 OA 
HETATM   22  O   UNL     1     -13.619  14.048  65.639  1.00  0.00    -0.499 OA 
HETATM   23  P   UNL     1     -12.379  13.375  64.812  1.00  0.00    -0.361 P  
HETATM   24  O   UNL     1     -13.177  12.160  64.280  1.00  0.00    -0.768 OA 
ENDBRANCH  19  20
ENDBRANCH  18  19
ENDBRANCH   3  18
BRANCH   3  25
HETATM   25  S   UNL     1      -9.785  14.114  68.512  1.00  0.00    -0.197 SA 
BRANCH  25  26
HETATM   26  C   UNL     1     -11.379  13.616  69.215  1.00  0.00    -0.269 C  
HETATM   27  O   UNL     1     -12.032  12.706  68.717  1.00  0.00    -0.307 OA 
BRANCH  26  28
HETATM   28  C   UNL     1     -11.982  14.402  70.402  1.00  0.00    -0.395 A  
HETATM   29  C   UNL     1     -13.905  14.716  71.953  1.00  0.00    -0.544 A  
HETATM   30  C   UNL     1     -13.288  14.072  70.857  1.00  0.00    -0.176 A  
HETATM   31  C   UNL     1     -11.328  15.390  71.144  1.00  0.00    -0.427 A  
HETATM   32  C   UNL     1     -13.217  15.703  72.648  1.00  0.00    -0.592 A  
HETATM   33  C   UNL     1     -11.923  16.032  72.244  1.00  0.00    -0.633 A  
ENDBRANCH  26  28
ENDBRANCH  25  26
ENDBRANCH   3  25
TORSDOF 9
ENDMDL
MODEL      100
REMARK 921   NORMALIZED FREE ENERGY PREDICTED BY IDOCK:   -5.86 KCAL/MOL
REMARK 922        TOTAL FREE ENERGY PREDICTED BY IDOCK:  -10.45 KCAL/MOL
REMARK 923 INTER-LIGAND FREE ENERGY PREDICTED BY IDOCK:   -8.94 KCAL/MOL
REMARK 924 INTRA-LIGAND FREE ENERGY PREDICTED BY IDOCK:   -1.51 KCAL/MOL
REMARK 927      BINDING AFFINITY PREDICTED BY RF-SCORE:    0.00 PKD
ROOT
HETATM    1  C   UNL     1     -10.269  13.944  65.814  1.00  0.00    -0.331 C  
HETATM    2  C   UNL     1      -9.416  14.019  67.092  1.00  0.00    -0.241 C  
HETATM    3  C   UNL     1      -9.601  15.068  67.948  1.00  0.00    -0.203 C  
ENDROOT
BRANCH   2   4
HETATM    4  N   UNL     1      -8.551  12.918  67.247  1.00  0.00    -0.198 N  
HETATM    5  C   UNL     1      -7.157  13.081  67.213  1.00  0.00    -0.044 C  
HETATM    6  O   UNL     1      -6.335  12.192  67.049  1.00  0.00    -0.155 OA 
BRANCH   4   7
HETATM    7  C   UNL     1      -9.026  11.556  66.923  1.00  0.00    -0.179 C  
BRANCH   7   8
HETATM    8  C   UNL     1     -10.044  11.002  67.904  1.00  0.00    -0.199 A  
HETATM    9  H2  UNL     1      -7.677  10.069  68.353  1.00  0.00     0.000 HD 
HETATM   10  C   UNL     1     -11.392  11.059  67.876  1.00  0.00    -0.311 A  
HETATM   11  N   UNL     1     -10.413  10.057  70.125  1.00  0.00    -0.279 NA 
HETATM   12  N   UNL     1     -12.260  10.859  68.934  1.00  0.00    -0.466 NA 
HETATM   13  H1  UNL     1      -7.940   9.399  69.968  1.00  0.00     0.000 HD 
HETATM   14  C   UNL     1     -12.566  10.456  71.295  1.00  0.00    -0.525 C  
HETATM   15  N   UNL     1      -8.294   9.889  69.145  1.00  0.00    -0.133 NA 
HETATM   16  C   UNL     1     -11.730  10.430  70.042  1.00  0.00    -0.286 A  
HETATM   17  C   UNL     1      -9.526  10.283  69.109  1.00  0.00    -0.215 A  
ENDBRANCH   7   8
ENDBRANCH   4   7
ENDBRANCH   2   4
BRANCH   3  18
HETATM   18  C   UNL     1     -10.899  15.982  67.809  1.00  0.00    -0.324 C  
BRANCH  18  19
HETATM   19  C   UNL     1     -12.149  15.584  68.686  1.00  0.00    -0.083 C  
BRANCH  19  20
HETATM   20  O   UNL     1     -11.853  14.923  69.974  1.00  0.00    -0.270 OA 
HETATM   21  O   UNL     1     -11.996  16.243  71.755  1.00  0.00    -0.478 OA 
HETATM   22  O   UNL     1     -12.478  13.857  71.856  1.00  0.00    -0.269 OA 
HETATM   23  P   UNL     1     -13.094  15.196  71.148  1.00  0.00    -0.481 P  
HETATM   24  O   UNL     1     -14.204  15.440  72.199  1.00  0.00    -0.528 OA 
ENDBRANCH  19  20
ENDBRANCH  18  19
ENDBRANCH   3  18
BRANCH   3  25
HETATM   25  S   UNL     1      -8.486  15.533  69.316  1.00  0.00    -0.264 SA 
BRANCH  25  26
HETATM   26  C   UNL     1      -7.432  16.955  68.927  1.00  0.00    -0.238 C  
HETATM   27  O   UNL     1      -6.317  17.067  69.423  1.00  0.00    -0.215 OA 
BRANCH  26  28
HETATM   28  C   UNL     1      -7.968  18.096  68.033  1.00  0.00    -0.269 A  
HETATM   29  C   UNL     1      -9.526  20.024  67.797  1.00  0.00    -0.486 A  
HETATM   30  C   UNL     1      -8.998  18.939  68.532  1.00  0.00    -0.388 A  
HETATM   31  C   UNL     1      -7.480  18.440  66.769  1.00  0.00    -0.240 A  
HETATM   32  C   UNL     1      -9.017  20.315  66.537  1.00  0.00    -0.329 A  
HETATM   33  C   UNL     1      -7.987  19.524  66.029  1.00  0.00    -0.312 A  
ENDBRANCH  26  28
ENDBRANCH  25  26
ENDBRANCH   3  25
TORSDOF 9
ENDMDL
MODEL      101
REMARK 921   NORMALIZED FREE ENERGY PREDICTED BY IDOCK:   -5.84 KCAL/MOL
REMARK 922        TOTAL FREE ENERGY PREDICTED BY IDOCK:  -10.42 KCAL/MOL
REMARK 923 INTER-LIGAND FREE ENERGY PREDICTED BY IDOCK:   -9.83 KCAL/MOL
REMARK 924 INTRA-LIGAND FREE ENERGY PREDICTED BY IDOCK:   -0.59 KCAL/MOL
REMARK 927      BINDING AFFINITY PREDICTED BY RF-SCORE:    0.00 PKD
ROOT
HETATM    1  C   UNL     1      -7.989  12.483  67.166  1.00  0.00    -0.140 C  
HETATM    2  C   UNL     1      -9.483  12.448  67.529  1.00  0.00    -0.187 C  
HETATM    3  C   UNL     1      -9.920  11.517  68.431  1.00  0.00    -0.206 C  
ENDROOT
BRANCH   2   4
HETATM    4  N   UNL     1     -10.233  13.459  66.898  1.00  0.00    -0.249 N  
HETATM    5  C   UNL     1     -11.635  13.479  66.980  1.00  0.00    -0.359 C  
HETATM    6  O   UNL     1     -12.386  14.116  66.255  1.00  0.00    -0.456 OA 
BRANCH   4   7
HETATM    7  C   UNL     1      -9.667  14.182  65.739  1.00  0.00    -0.217 C  
BRANCH   7   8
HETATM    8  C   UNL     1      -9.337  15.638  66.016  1.00  0.00    -0.384 A  
HETATM    9  H2  UNL     1     -10.991  15.390  64.047  1.00  0.00     0.000 HD 
HETATM   10  C   UNL     1      -8.369  16.173  66.790  1.00  0.00    -0.264 A  
HETATM   11  N   UNL     1     -10.087  17.955  65.844  1.00  0.00    -0.574 NA 
HETATM   12  N   UNL     1      -8.314  17.462  67.289  1.00  0.00    -0.203 NA 
HETATM   13  H1  UNL     1     -11.546  17.065  63.934  1.00  0.00     0.000 HD 
HETATM   14  C   UNL     1      -9.381  19.612  67.554  1.00  0.00    -0.422 C  
HETATM   15  N   UNL     1     -10.964  16.354  64.379  1.00  0.00    -0.784 NA 
HETATM   16  C   UNL     1      -9.218  18.289  66.851  1.00  0.00    -0.282 A  
HETATM   17  C   UNL     1     -10.190  16.678  65.364  1.00  0.00    -0.111 A  
ENDBRANCH   7   8
ENDBRANCH   4   7
ENDBRANCH   2   4
BRANCH   3  18
HETATM   18  C   UNL     1      -8.867  10.740  69.338  1.00  0.00     0.027 C  
BRANCH  18  19
HETATM   19  C   UNL     1      -8.720   9.189  69.091  1.00  0.00    -0.138 C  
BRANCH  19  20
HETATM   20  O   UNL     1      -8.095   8.415  70.184  1.00  0.00    -0.102 OA 
HETATM   21  O   UNL     1      -8.867   8.876  72.215  1.00  0.00    -0.397 OA 
HETATM   22  O   UNL     1      -8.030   6.671  71.606  1.00  0.00    -0.102 OA 
HETATM   23  P   UNL     1      -9.270   7.658  71.204  1.00  0.00    -0.147 P  
HETATM   24  O   UNL     1     -10.321   6.981  72.116  1.00  0.00    -0.190 OA 
ENDBRANCH  19  20
ENDBRANCH  18  19
ENDBRANCH   3  18
BRANCH   3  25
HETATM   25  S   UNL     1     -11.665  11.077  68.742  1.00  0.00    -0.278 SA 
BRANCH  25  26
HETATM   26  C   UNL     1     -12.192  11.404  70.445  1.00  0.00    -0.362 C  
HETATM   27  O   UNL     1     -12.346  10.488  71.244  1.00  0.00    -0.355 OA 
BRANCH  26  28
HETATM   28  C   UNL     1     -12.544  12.844  70.885  1.00  0.00    -0.355 A  
HETATM   29  C   UNL     1     -13.625  14.317  72.576  1.00  0.00    -0.620 A  
HETATM   30  C   UNL     1     -13.285  13.038  72.083  1.00  0.00    -0.558 A  
HETATM   31  C   UNL     1     -12.136  14.016  70.243  1.00  0.00    -0.425 A  
HETATM   32  C   UNL     1     -13.208  15.452  71.892  1.00  0.00    -0.534 A  
HETATM   33  C   UNL     1     -12.456  15.297  70.728  1.00  0.00    -0.457 A  
ENDBRANCH  26  28
ENDBRANCH  25  26
ENDBRANCH   3  25
TORSDOF 9
ENDMDL
MODEL      102
REMARK 921   NORMALIZED FREE ENERGY PREDICTED BY IDOCK:   -5.84 KCAL/MOL
REMARK 922        TOTAL FREE ENERGY PREDICTED BY IDOCK:  -10.42 KCAL/MOL
REMARK 923 INTER-LIGAND FREE ENERGY PREDICTED BY IDOCK:   -9.06 KCAL/MOL
REMARK 924 INTRA-LIGAND FREE ENERGY PREDICTED BY IDOCK:   -1.36 KCAL/MOL
REMARK 927      BINDING AFFINITY PREDICTED BY RF-SCORE:    0.00 PKD
ROOT
HETATM    1  C   UNL     1     -12.070  11.714  67.452  1.00  0.00     0.260 C  
HETATM    2  C   UNL     1     -11.757  13.218  67.539  1.00  0.00    -0.366 C  
HETATM    3  C   UNL     1     -11.673  13.803  68.772  1.00  0.00    -0.356 C  
ENDROOT
BRANCH   2   4
HETATM    4  N   UNL     1     -11.535  13.813  66.283  1.00  0.00    -0.325 N  
HETATM    5  C   UNL     1     -12.593  14.024  65.384  1.00  0.00    -0.505 C  
HETATM    6  O   UNL     1     -12.483  14.255  64.189  1.00  0.00    -0.675 OA 
BRANCH   4   7
HETATM    7  C   UNL     1     -10.195  13.746  65.661  1.00  0.00    -0.313 C  
BRANCH   7   8
HETATM    8  C   UNL     1      -9.668  12.336  65.468  1.00  0.00    -0.174 A  
HETATM    9  H2  UNL     1      -8.256  13.657  67.181  1.00  0.00     0.000 HD 
HETATM   10  C   UNL     1      -9.974  11.421  64.523  1.00  0.00    -0.271 A  
HETATM   11  N   UNL     1      -8.424  10.483  66.457  1.00  0.00    -0.136 NA 
HETATM   12  N   UNL     1      -9.748  10.057  64.576  1.00  0.00    -0.295 NA 
HETATM   13  H1  UNL     1      -7.367  12.313  67.907  1.00  0.00     0.000 HD 
HETATM   14  C   UNL     1      -8.992   8.146  65.842  1.00  0.00    -0.195 C  
HETATM   15  N   UNL     1      -8.052  12.659  67.235  1.00  0.00    -0.184 NA 
HETATM   16  C   UNL     1      -9.039   9.628  65.579  1.00  0.00    -0.204 A  
HETATM   17  C   UNL     1      -8.664  11.830  66.452  1.00  0.00    -0.147 A  
ENDBRANCH   7   8
ENDBRANCH   4   7
ENDBRANCH   2   4
BRANCH   3  18
HETATM   18  C   UNL     1     -11.547  12.892  70.072  1.00  0.00    -0.189 C  
BRANCH  18  19
HETATM   19  C   UNL     1     -12.721  12.980  71.123  1.00  0.00    -0.283 C  
BRANCH  19  20
HETATM   20  O   UNL     1     -13.161  11.699  71.713  1.00  0.00    -0.465 OA 
HETATM   21  O   UNL     1     -13.610  10.098  70.240  1.00  0.00     0.094 OA 
HETATM   22  O   UNL     1     -12.767   9.617  72.475  1.00  0.00    -0.258 OA 
HETATM   23  P   UNL     1     -12.251  10.356  71.110  1.00  0.00    -0.392 P  
HETATM   24  O   UNL     1     -11.438   9.155  70.571  1.00  0.00    -0.262 OA 
ENDBRANCH  19  20
ENDBRANCH  18  19
ENDBRANCH   3  18
BRANCH   3  25
HETATM   25  S   UNL     1     -11.656  15.599  69.096  1.00  0.00    -0.397 SA 
BRANCH  25  26
HETATM   26  C   UNL     1      -9.988  16.308  69.104  1.00  0.00    -0.260 C  
HETATM   27  O   UNL     1      -9.068  15.748  69.689  1.00  0.00    -0.251 OA 
BRANCH  26  28
HETATM   28  C   UNL     1      -9.727  17.683  68.447  1.00  0.00    -0.321 A  
HETATM   29  C   UNL     1     -10.614  19.549  67.059  1.00  0.00    -0.607 A  
HETATM   30  C   UNL     1     -10.754  18.284  67.669  1.00  0.00    -0.373 A  
HETATM   31  C   UNL     1      -8.571  18.454  68.601  1.00  0.00    -0.315 A  
HETATM   32  C   UNL     1      -9.439  20.271  67.230  1.00  0.00    -0.557 A  
HETATM   33  C   UNL     1      -8.420  19.721  68.009  1.00  0.00    -0.338 A  
ENDBRANCH  26  28
ENDBRANCH  25  26
ENDBRANCH   3  25
TORSDOF 9
ENDMDL
MODEL      103
REMARK 921   NORMALIZED FREE ENERGY PREDICTED BY IDOCK:   -5.84 KCAL/MOL
REMARK 922        TOTAL FREE ENERGY PREDICTED BY IDOCK:  -10.41 KCAL/MOL
REMARK 923 INTER-LIGAND FREE ENERGY PREDICTED BY IDOCK:   -8.87 KCAL/MOL
REMARK 924 INTRA-LIGAND FREE ENERGY PREDICTED BY IDOCK:   -1.54 KCAL/MOL
REMARK 927      BINDING AFFINITY PREDICTED BY RF-SCORE:    0.00 PKD
ROOT
HETATM    1  C   UNL     1      -7.208   8.852  66.972  1.00  0.00    -0.079 C  
HETATM    2  C   UNL     1      -8.008   9.909  67.751  1.00  0.00    -0.105 C  
HETATM    3  C   UNL     1      -8.885  10.707  67.069  1.00  0.00    -0.137 C  
ENDROOT
BRANCH   2   4
HETATM    4  N   UNL     1      -7.763   9.881  69.137  1.00  0.00    -0.089 N  
HETATM    5  C   UNL     1      -6.948  10.847  69.749  1.00  0.00    -0.120 C  
HETATM    6  O   UNL     1      -6.441  10.759  70.858  1.00  0.00    -0.343 OA 
BRANCH   4   7
HETATM    7  C   UNL     1      -7.887   8.609  69.883  1.00  0.00    -0.093 C  
BRANCH   7   8
HETATM    8  C   UNL     1      -9.254   8.381  70.501  1.00  0.00    -0.165 A  
HETATM    9  H2  UNL     1      -7.382   8.353  72.282  1.00  0.00     0.000 HD 
HETATM   10  C   UNL     1     -10.436   8.106  69.910  1.00  0.00    -0.226 A  
HETATM   11  N   UNL     1     -10.626   8.570  72.512  1.00  0.00    -0.303 NA 
HETATM   12  N   UNL     1     -11.698   8.249  70.458  1.00  0.00    -0.143 NA 
HETATM   13  H1  UNL     1      -8.375   8.506  73.736  1.00  0.00     0.000 HD 
HETATM   14  C   UNL     1     -13.066   8.979  72.308  1.00  0.00    -0.508 C  
HETATM   15  N   UNL     1      -8.298   8.442  72.721  1.00  0.00    -0.323 NA 
HETATM   16  C   UNL     1     -11.748   8.543  71.724  1.00  0.00    -0.327 A  
HETATM   17  C   UNL     1      -9.366   8.474  71.989  1.00  0.00    -0.283 A  
ENDBRANCH   7   8
ENDBRANCH   4   7
ENDBRANCH   2   4
BRANCH   3  18
HETATM   18  C   UNL     1      -9.324  10.315  65.590  1.00  0.00    -0.241 C  
BRANCH  18  19
HETATM   19  C   UNL     1      -9.890  11.476  64.682  1.00  0.00    -0.246 C  
BRANCH  19  20
HETATM   20  O   UNL     1     -11.350  11.467  64.455  1.00  0.00    -0.276 OA 
HETATM   21  O   UNL     1     -12.501  12.879  65.726  1.00  0.00    -0.531 OA 
HETATM   22  O   UNL     1     -13.220  12.259  63.482  1.00  0.00    -0.716 OA 
HETATM   23  P   UNL     1     -11.979  13.057  64.188  1.00  0.00    -0.476 P  
HETATM   24  O   UNL     1     -12.541  14.479  63.949  1.00  0.00    -0.827 OA 
ENDBRANCH  19  20
ENDBRANCH  18  19
ENDBRANCH   3  18
BRANCH   3  25
HETATM   25  S   UNL     1      -9.665  12.224  67.719  1.00  0.00    -0.205 SA 
BRANCH  25  26
HETATM   26  C   UNL     1      -8.619  13.694  67.550  1.00  0.00    -0.197 C  
HETATM   27  O   UNL     1      -7.405  13.624  67.698  1.00  0.00    -0.149 OA 
BRANCH  26  28
HETATM   28  C   UNL     1      -9.262  15.080  67.309  1.00  0.00    -0.210 A  
HETATM   29  C   UNL     1     -10.049  17.228  68.289  1.00  0.00    -0.321 A  
HETATM   30  C   UNL     1      -9.496  15.936  68.420  1.00  0.00    -0.201 A  
HETATM   31  C   UNL     1      -9.583  15.624  66.062  1.00  0.00    -0.386 A  
HETATM   32  C   UNL     1     -10.366  17.719  67.028  1.00  0.00    -0.344 A  
HETATM   33  C   UNL     1     -10.124  16.914  65.914  1.00  0.00    -0.302 A  
ENDBRANCH  26  28
ENDBRANCH  25  26
ENDBRANCH   3  25
TORSDOF 9
ENDMDL
MODEL      104
REMARK 921   NORMALIZED FREE ENERGY PREDICTED BY IDOCK:   -5.83 KCAL/MOL
REMARK 922        TOTAL FREE ENERGY PREDICTED BY IDOCK:  -10.41 KCAL/MOL
REMARK 923 INTER-LIGAND FREE ENERGY PREDICTED BY IDOCK:   -9.39 KCAL/MOL
REMARK 924 INTRA-LIGAND FREE ENERGY PREDICTED BY IDOCK:   -1.02 KCAL/MOL
REMARK 927      BINDING AFFINITY PREDICTED BY RF-SCORE:    0.00 PKD
ROOT
HETATM    1  C   UNL     1      -7.780  11.352  69.160  1.00  0.00    -0.010 C  
HETATM    2  C   UNL     1      -9.212  11.273  68.606  1.00  0.00    -0.161 C  
HETATM    3  C   UNL     1      -9.655  12.267  67.778  1.00  0.00    -0.200 C  
ENDROOT
BRANCH   2   4
HETATM    4  N   UNL     1      -9.896  10.106  68.999  1.00  0.00    -0.194 N  
HETATM    5  C   UNL     1      -9.990   8.998  68.141  1.00  0.00    -0.175 C  
HETATM    6  O   UNL     1     -10.779   8.071  68.251  1.00  0.00    -0.143 OA 
BRANCH   4   7
HETATM    7  C   UNL     1     -10.949  10.181  70.035  1.00  0.00    -0.307 C  
BRANCH   7   8
HETATM    8  C   UNL     1     -10.669   9.343  71.268  1.00  0.00    -0.421 A  
HETATM    9  H2  UNL     1     -13.118  10.163  71.206  1.00  0.00     0.000 HD 
HETATM   10  C   UNL     1      -9.492   8.924  71.780  1.00  0.00    -0.264 A  
HETATM   11  N   UNL     1     -11.611   7.886  72.986  1.00  0.00    -0.265 NA 
HETATM   12  N   UNL     1      -9.291   7.894  72.681  1.00  0.00    -0.189 NA 
HETATM   13  H1  UNL     1     -13.802   9.097  72.439  1.00  0.00     0.000 HD 
HETATM   14  C   UNL     1     -10.224   6.075  73.967  1.00  0.00    -0.295 C  
HETATM   15  N   UNL     1     -13.002   9.417  71.892  1.00  0.00    -0.383 NA 
HETATM   16  C   UNL     1     -10.361   7.365  73.201  1.00  0.00    -0.334 A  
HETATM   17  C   UNL     1     -11.841   8.875  72.070  1.00  0.00    -0.368 A  
ENDBRANCH   7   8
ENDBRANCH   4   7
ENDBRANCH   2   4
BRANCH   3  18
HETATM   18  C   UNL     1      -8.609  13.276  67.126  1.00  0.00    -0.197 C  
BRANCH  18  19
HETATM   19  C   UNL     1      -8.789  14.807  67.464  1.00  0.00    -0.190 C  
BRANCH  19  20
HETATM   20  O   UNL     1      -8.400  15.755  66.400  1.00  0.00    -0.284 OA 
HETATM   21  O   UNL     1     -10.098  16.770  65.389  1.00  0.00    -0.587 OA 
HETATM   22  O   UNL     1      -7.917  17.824  65.654  1.00  0.00    -0.532 OA 
HETATM   23  P   UNL     1      -9.144  17.304  66.603  1.00  0.00    -0.274 P  
HETATM   24  O   UNL     1      -9.809  18.690  66.784  1.00  0.00    -0.308 OA 
ENDBRANCH  19  20
ENDBRANCH  18  19
ENDBRANCH   3  18
BRANCH   3  25
HETATM   25  S   UNL     1     -11.392  12.551  67.293  1.00  0.00    -0.336 SA 
BRANCH  25  26
HETATM   26  C   UNL     1     -11.692  12.288  65.525  1.00  0.00    -0.377 C  
HETATM   27  O   UNL     1     -12.743  12.646  65.005  1.00  0.00    -0.658 OA 
BRANCH  26  28
HETATM   28  C   UNL     1     -10.659  11.521  64.668  1.00  0.00    -0.369 A  
HETATM   29  C   UNL     1      -9.259   9.481  64.394  1.00  0.00    -0.192 A  
HETATM   30  C   UNL     1     -10.179  10.264  65.126  1.00  0.00    -0.295 A  
HETATM   31  C   UNL     1     -10.184  11.917  63.415  1.00  0.00    -0.478 A  
HETATM   32  C   UNL     1      -8.805   9.926  63.159  1.00  0.00    -0.254 A  
HETATM   33  C   UNL     1      -9.277  11.144  62.668  1.00  0.00    -0.357 A  
ENDBRANCH  26  28
ENDBRANCH  25  26
ENDBRANCH   3  25
TORSDOF 9
ENDMDL
MODEL      105
REMARK 921   NORMALIZED FREE ENERGY PREDICTED BY IDOCK:   -5.83 KCAL/MOL
REMARK 922        TOTAL FREE ENERGY PREDICTED BY IDOCK:  -10.40 KCAL/MOL
REMARK 923 INTER-LIGAND FREE ENERGY PREDICTED BY IDOCK:   -9.25 KCAL/MOL
REMARK 924 INTRA-LIGAND FREE ENERGY PREDICTED BY IDOCK:   -1.15 KCAL/MOL
REMARK 927      BINDING AFFINITY PREDICTED BY RF-SCORE:    0.00 PKD
ROOT
HETATM    1  C   UNL     1     -10.530  16.321  65.938  1.00  0.00    -0.359 C  
HETATM    2  C   UNL     1     -10.721  15.058  66.795  1.00  0.00    -0.308 C  
HETATM    3  C   UNL     1     -11.006  13.875  66.171  1.00  0.00    -0.293 C  
ENDROOT
BRANCH   2   4
HETATM    4  N   UNL     1     -10.516  15.283  68.170  1.00  0.00    -0.242 N  
HETATM    5  C   UNL     1     -11.528  15.836  68.972  1.00  0.00    -0.391 C  
HETATM    6  O   UNL     1     -11.374  16.332  70.078  1.00  0.00    -0.334 OA 
BRANCH   4   7
HETATM    7  C   UNL     1      -9.144  15.457  68.692  1.00  0.00    -0.195 C  
BRANCH   7   8
HETATM    8  C   UNL     1      -8.436  16.699  68.182  1.00  0.00    -0.198 A  
HETATM    9  H2  UNL     1      -7.105  14.550  67.645  1.00  0.00     0.000 HD 
HETATM   10  C   UNL     1      -8.676  18.001  68.446  1.00  0.00    -0.293 A  
HETATM   11  N   UNL     1      -6.868  17.611  66.549  1.00  0.00    -0.216 NA 
HETATM   12  N   UNL     1      -8.253  19.094  67.712  1.00  0.00    -0.280 NA 
HETATM   13  H1  UNL     1      -5.980  15.208  66.451  1.00  0.00     0.000 HD 
HETATM   14  C   UNL     1      -7.138  19.945  65.747  1.00  0.00    -0.323 C  
HETATM   15  N   UNL     1      -6.756  15.339  67.100  1.00  0.00    -0.266 NA 
HETATM   16  C   UNL     1      -7.417  18.852  66.745  1.00  0.00    -0.223 A  
HETATM   17  C   UNL     1      -7.298  16.507  67.231  1.00  0.00    -0.166 A  
ENDBRANCH   7   8
ENDBRANCH   4   7
ENDBRANCH   2   4
BRANCH   3  18
HETATM   18  C   UNL     1     -10.791  13.740  64.599  1.00  0.00    -0.416 C  
BRANCH  18  19
HETATM   19  C   UNL     1     -11.133  12.342  63.950  1.00  0.00    -0.415 C  
BRANCH  19  20
HETATM   20  O   UNL     1      -9.977  11.501  63.576  1.00  0.00    -0.323 OA 
HETATM   21  O   UNL     1      -8.557  11.077  65.230  1.00  0.00    -0.151 OA 
HETATM   22  O   UNL     1      -8.932   9.515  63.399  1.00  0.00    -0.235 OA 
HETATM   23  P   UNL     1      -9.774  10.157  64.645  1.00  0.00    -0.177 P  
HETATM   24  O   UNL     1      -9.592   8.954  65.602  1.00  0.00    -0.220 OA 
ENDBRANCH  19  20
ENDBRANCH  18  19
ENDBRANCH   3  18
BRANCH   3  25
HETATM   25  S   UNL     1     -11.600  12.357  66.992  1.00  0.00    -0.353 SA 
BRANCH  25  26
HETATM   26  C   UNL     1     -10.525  11.809  68.344  1.00  0.00    -0.215 C  
HETATM   27  O   UNL     1      -9.311  11.967  68.288  1.00  0.00    -0.194 OA 
BRANCH  26  28
HETATM   28  C   UNL     1     -11.121  11.045  69.549  1.00  0.00    -0.322 A  
HETATM   29  C   UNL     1     -12.887  10.939  71.301  1.00  0.00    -0.536 A  
HETATM   30  C   UNL     1     -12.258  11.583  70.213  1.00  0.00    -0.415 A  
HETATM   31  C   UNL     1     -10.687   9.806  70.026  1.00  0.00    -0.326 A  
HETATM   32  C   UNL     1     -12.407   9.714  71.748  1.00  0.00    -0.474 A  
HETATM   33  C   UNL     1     -11.309   9.146  71.101  1.00  0.00    -0.392 A  
ENDBRANCH  26  28
ENDBRANCH  25  26
ENDBRANCH   3  25
TORSDOF 9
ENDMDL
MODEL      106
REMARK 921   NORMALIZED FREE ENERGY PREDICTED BY IDOCK:   -5.82 KCAL/MOL
REMARK 922        TOTAL FREE ENERGY PREDICTED BY IDOCK:  -10.39 KCAL/MOL
REMARK 923 INTER-LIGAND FREE ENERGY PREDICTED BY IDOCK:   -8.97 KCAL/MOL
REMARK 924 INTRA-LIGAND FREE ENERGY PREDICTED BY IDOCK:   -1.41 KCAL/MOL
REMARK 927      BINDING AFFINITY PREDICTED BY RF-SCORE:    0.00 PKD
ROOT
HETATM    1  C   UNL     1     -12.660  14.018  66.041  1.00  0.00    -0.452 C  
HETATM    2  C   UNL     1     -11.750  13.534  67.183  1.00  0.00    -0.379 C  
HETATM    3  C   UNL     1     -11.151  12.310  67.074  1.00  0.00    -0.287 C  
ENDROOT
BRANCH   2   4
HETATM    4  N   UNL     1     -11.603  14.480  68.215  1.00  0.00    -0.312 N  
HETATM    5  C   UNL     1     -12.218  14.292  69.464  1.00  0.00    -0.297 C  
HETATM    6  O   UNL     1     -12.399  15.154  70.311  1.00  0.00    -0.321 OA 
BRANCH   4   7
HETATM    7  C   UNL     1     -11.279  15.886  67.888  1.00  0.00    -0.297 C  
BRANCH   7   8
HETATM    8  C   UNL     1      -9.845  16.106  67.443  1.00  0.00    -0.238 A  
HETATM    9  H2  UNL     1     -11.510  16.425  65.494  1.00  0.00     0.000 HD 
HETATM   10  C   UNL     1      -8.689  15.824  68.081  1.00  0.00    -0.173 A  
HETATM   11  N   UNL     1      -8.365  17.206  65.843  1.00  0.00    -0.530 NA 
HETATM   12  N   UNL     1      -7.436  16.344  67.810  1.00  0.00    -0.137 NA 
HETATM   13  H1  UNL     1     -10.442  17.236  64.342  1.00  0.00     0.000 HD 
HETATM   14  C   UNL     1      -6.080  17.886  66.539  1.00  0.00    -0.215 C  
HETATM   15  N   UNL     1     -10.594  16.804  65.254  1.00  0.00    -0.648 NA 
HETATM   16  C   UNL     1      -7.334  17.074  66.738  1.00  0.00    -0.230 A  
HETATM   17  C   UNL     1      -9.622  16.738  66.106  1.00  0.00    -0.274 A  
ENDBRANCH   7   8
ENDBRANCH   4   7
ENDBRANCH   2   4
BRANCH   3  18
HETATM   18  C   UNL     1     -11.109  11.573  65.663  1.00  0.00    -0.261 C  
BRANCH  18  19
HETATM   19  C   UNL     1      -9.772  11.695  64.834  1.00  0.00    -0.206 C  
BRANCH  19  20
HETATM   20  O   UNL     1      -8.644  10.861  65.296  1.00  0.00    -0.172 OA 
HETATM   21  O   UNL     1      -9.125   8.710  65.573  1.00  0.00    -0.193 OA 
HETATM   22  O   UNL     1      -6.905   9.478  64.927  1.00  0.00    -0.093 OA 
HETATM   23  P   UNL     1      -8.418   9.460  64.306  1.00  0.00    -0.192 P  
HETATM   24  O   UNL     1      -8.216   8.207  63.419  1.00  0.00    -0.143 OA 
ENDBRANCH  19  20
ENDBRANCH  18  19
ENDBRANCH   3  18
BRANCH   3  25
HETATM   25  S   UNL     1     -10.327  11.407  68.430  1.00  0.00    -0.202 SA 
BRANCH  25  26
HETATM   26  C   UNL     1     -11.488  10.561  69.534  1.00  0.00    -0.272 C  
HETATM   27  O   UNL     1     -12.691  10.790  69.479  1.00  0.00    -0.257 OA 
BRANCH  26  28
HETATM   28  C   UNL     1     -10.962   9.604  70.629  1.00  0.00    -0.386 A  
HETATM   29  C   UNL     1      -8.991   8.540  71.716  1.00  0.00    -0.288 A  
HETATM   30  C   UNL     1      -9.562   9.373  70.729  1.00  0.00    -0.322 A  
HETATM   31  C   UNL     1     -11.738   8.976  71.606  1.00  0.00    -0.431 A  
HETATM   32  C   UNL     1      -9.808   7.926  72.657  1.00  0.00    -0.316 A  
HETATM   33  C   UNL     1     -11.184   8.153  72.603  1.00  0.00    -0.447 A  
ENDBRANCH  26  28
ENDBRANCH  25  26
ENDBRANCH   3  25
TORSDOF 9
ENDMDL
MODEL      107
REMARK 921   NORMALIZED FREE ENERGY PREDICTED BY IDOCK:   -5.79 KCAL/MOL
REMARK 922        TOTAL FREE ENERGY PREDICTED BY IDOCK:  -10.34 KCAL/MOL
REMARK 923 INTER-LIGAND FREE ENERGY PREDICTED BY IDOCK:   -8.16 KCAL/MOL
REMARK 924 INTRA-LIGAND FREE ENERGY PREDICTED BY IDOCK:   -2.17 KCAL/MOL
REMARK 927      BINDING AFFINITY PREDICTED BY RF-SCORE:    0.00 PKD
ROOT
HETATM    1  C   UNL     1     -10.295  10.804  64.749  1.00  0.00    -0.380 C  
HETATM    2  C   UNL     1      -9.690  10.486  66.127  1.00  0.00    -0.209 C  
HETATM    3  C   UNL     1     -10.249  11.051  67.239  1.00  0.00    -0.199 C  
ENDROOT
BRANCH   2   4
HETATM    4  N   UNL     1      -8.623   9.569  66.066  1.00  0.00    -0.130 N  
HETATM    5  C   UNL     1      -7.289  10.009  66.071  1.00  0.00    -0.112 C  
HETATM    6  O   UNL     1      -6.316   9.348  65.738  1.00  0.00    -0.065 OA 
BRANCH   4   7
HETATM    7  C   UNL     1      -8.834   8.229  65.478  1.00  0.00    -0.110 C  
BRANCH   7   8
HETATM    8  C   UNL     1      -9.348   7.192  66.460  1.00  0.00    -0.208 A  
HETATM    9  H2  UNL     1      -7.004   6.580  65.564  1.00  0.00     0.000 HD 
HETATM   10  C   UNL     1     -10.587   7.024  66.971  1.00  0.00    -0.341 A  
HETATM   11  N   UNL     1      -8.756   5.459  68.074  1.00  0.00    -0.106 NA 
HETATM   12  N   UNL     1     -10.935   6.309  68.102  1.00  0.00    -0.326 NA 
HETATM   13  H1  UNL     1      -6.569   5.336  66.743  1.00  0.00     0.000 HD 
HETATM   14  C   UNL     1     -10.229   5.034  70.027  1.00  0.00    -0.339 C  
HETATM   15  N   UNL     1      -7.235   6.023  66.387  1.00  0.00    -0.075 NA 
HETATM   16  C   UNL     1      -9.989   5.606  68.654  1.00  0.00    -0.162 A  
HETATM   17  C   UNL     1      -8.373   6.186  66.981  1.00  0.00    -0.105 A  
ENDBRANCH   7   8
ENDBRANCH   4   7
ENDBRANCH   2   4
BRANCH   3  18
HETATM   18  C   UNL     1     -11.689  11.724  67.144  1.00  0.00    -0.267 C  
BRANCH  18  19
HETATM   19  C   UNL     1     -11.742  13.301  67.147  1.00  0.00    -0.376 C  
BRANCH  19  20
HETATM   20  O   UNL     1     -11.865  13.944  68.471  1.00  0.00    -0.332 OA 
HETATM   21  O   UNL     1     -10.025  14.961  69.190  1.00  0.00    -0.223 OA 
HETATM   22  O   UNL     1     -12.259  15.722  69.794  1.00  0.00    -0.344 OA 
HETATM   23  P   UNL     1     -11.338  15.591  68.449  1.00  0.00    -0.349 P  
HETATM   24  O   UNL     1     -10.866  17.066  68.430  1.00  0.00    -0.367 OA 
ENDBRANCH  19  20
ENDBRANCH  18  19
ENDBRANCH   3  18
BRANCH   3  25
HETATM   25  S   UNL     1      -9.498  11.088  68.903  1.00  0.00    -0.107 SA 
BRANCH  25  26
HETATM   26  C   UNL     1      -9.791   9.573  69.852  1.00  0.00    -0.226 C  
HETATM   27  O   UNL     1      -8.993   8.644  69.818  1.00  0.00    -0.140 OA 
BRANCH  26  28
HETATM   28  C   UNL     1     -11.105   9.398  70.648  1.00  0.00    -0.351 A  
HETATM   29  C   UNL     1     -13.151  10.464  71.583  1.00  0.00    -0.553 A  
HETATM   30  C   UNL     1     -11.921  10.536  70.893  1.00  0.00    -0.481 A  
HETATM   31  C   UNL     1     -11.626   8.185  71.107  1.00  0.00    -0.306 A  
HETATM   32  C   UNL     1     -13.619   9.235  72.033  1.00  0.00    -0.519 A  
HETATM   33  C   UNL     1     -12.854   8.094  71.786  1.00  0.00    -0.355 A  
ENDBRANCH  26  28
ENDBRANCH  25  26
ENDBRANCH   3  25
TORSDOF 9
ENDMDL
MODEL      108
REMARK 921   NORMALIZED FREE ENERGY PREDICTED BY IDOCK:   -5.74 KCAL/MOL
REMARK 922        TOTAL FREE ENERGY PREDICTED BY IDOCK:  -10.27 KCAL/MOL
REMARK 923 INTER-LIGAND FREE ENERGY PREDICTED BY IDOCK:   -9.73 KCAL/MOL
REMARK 924 INTRA-LIGAND FREE ENERGY PREDICTED BY IDOCK:   -0.53 KCAL/MOL
REMARK 927      BINDING AFFINITY PREDICTED BY RF-SCORE:    0.00 PKD
ROOT
HETATM    1  C   UNL     1      -8.486  14.964  69.461  1.00  0.00    -0.004 C  
HETATM    2  C   UNL     1      -9.446  13.984  68.765  1.00  0.00    -0.075 C  
HETATM    3  C   UNL     1     -10.688  13.785  69.301  1.00  0.00    -0.055 C  
ENDROOT
BRANCH   2   4
HETATM    4  N   UNL     1      -8.917  13.434  67.581  1.00  0.00    -0.190 N  
HETATM    5  C   UNL     1      -8.035  12.341  67.622  1.00  0.00    -0.161 C  
HETATM    6  O   UNL     1      -7.306  11.975  66.712  1.00  0.00    -0.088 OA 
BRANCH   4   7
HETATM    7  C   UNL     1      -8.826  14.262  66.359  1.00  0.00     0.034 C  
BRANCH   7   8
HETATM    8  C   UNL     1      -9.201  15.718  66.565  1.00  0.00    -0.314 A  
HETATM    9  H2  UNL     1      -6.642  15.372  66.631  1.00  0.00     0.000 HD 
HETATM   10  C   UNL     1     -10.406  16.273  66.817  1.00  0.00    -0.296 A  
HETATM   11  N   UNL     1      -8.489  18.044  66.357  1.00  0.00    -0.368 NA 
HETATM   12  N   UNL     1     -10.766  17.599  66.653  1.00  0.00    -0.194 NA 
HETATM   13  H1  UNL     1      -6.127  17.055  66.464  1.00  0.00     0.000 HD 
HETATM   14  C   UNL     1     -10.169  19.815  65.904  1.00  0.00    -0.556 C  
HETATM   15  N   UNL     1      -6.872  16.360  66.527  1.00  0.00    -0.200 NA 
HETATM   16  C   UNL     1      -9.805  18.426  66.362  1.00  0.00    -0.360 A  
HETATM   17  C   UNL     1      -8.109  16.735  66.474  1.00  0.00    -0.294 A  
ENDBRANCH   7   8
ENDBRANCH   4   7
ENDBRANCH   2   4
BRANCH   3  18
HETATM   18  C   UNL     1     -11.248  14.798  70.395  1.00  0.00    -0.213 C  
BRANCH  18  19
HETATM   19  C   UNL     1     -12.654  15.454  70.107  1.00  0.00    -0.293 C  
BRANCH  19  20
HETATM   20  O   UNL     1     -13.492  15.737  71.291  1.00  0.00    -0.555 OA 
HETATM   21  O   UNL     1     -13.838  13.996  72.627  1.00  0.00    -0.636 OA 
HETATM   22  O   UNL     1     -13.758  16.285  73.458  1.00  0.00    -0.595 OA 
HETATM   23  P   UNL     1     -12.747  15.205  72.760  1.00  0.00    -0.493 P  
HETATM   24  O   UNL     1     -12.082  14.730  74.074  1.00  0.00    -0.452 OA 
ENDBRANCH  19  20
ENDBRANCH  18  19
ENDBRANCH   3  18
BRANCH   3  25
HETATM   25  S   UNL     1     -11.836  12.440  68.850  1.00  0.00    -0.265 SA 
BRANCH  25  26
HETATM   26  C   UNL     1     -11.334  11.541  67.359  1.00  0.00    -0.298 C  
HETATM   27  O   UNL     1     -10.745  10.469  67.438  1.00  0.00    -0.244 OA 
BRANCH  26  28
HETATM   28  C   UNL     1     -11.561  12.166  65.963  1.00  0.00    -0.420 A  
HETATM   29  C   UNL     1     -11.207  11.997  63.504  1.00  0.00    -0.526 A  
HETATM   30  C   UNL     1     -11.023  11.515  64.819  1.00  0.00    -0.338 A  
HETATM   31  C   UNL     1     -12.324  13.305  65.693  1.00  0.00    -0.521 A  
HETATM   32  C   UNL     1     -11.962  13.143  63.290  1.00  0.00    -0.445 A  
HETATM   33  C   UNL     1     -12.526  13.792  64.389  1.00  0.00    -0.317 A  
ENDBRANCH  26  28
ENDBRANCH  25  26
ENDBRANCH   3  25
TORSDOF 9
ENDMDL
MODEL      109
REMARK 921   NORMALIZED FREE ENERGY PREDICTED BY IDOCK:   -5.74 KCAL/MOL
REMARK 922        TOTAL FREE ENERGY PREDICTED BY IDOCK:  -10.27 KCAL/MOL
REMARK 923 INTER-LIGAND FREE ENERGY PREDICTED BY IDOCK:   -9.08 KCAL/MOL
REMARK 924 INTRA-LIGAND FREE ENERGY PREDICTED BY IDOCK:   -1.19 KCAL/MOL
REMARK 927      BINDING AFFINITY PREDICTED BY RF-SCORE:    0.00 PKD
ROOT
HETATM    1  C   UNL     1     -12.950  12.778  71.451  1.00  0.00    -0.359 C  
HETATM    2  C   UNL     1     -11.887  13.220  70.430  1.00  0.00    -0.194 C  
HETATM    3  C   UNL     1     -11.338  12.281  69.601  1.00  0.00    -0.137 C  
ENDROOT
BRANCH   2   4
HETATM    4  N   UNL     1     -11.646  14.607  70.445  1.00  0.00    -0.275 N  
HETATM    5  C   UNL     1     -11.850  15.366  71.609  1.00  0.00    -0.401 C  
HETATM    6  O   UNL     1     -11.952  16.582  71.663  1.00  0.00    -0.337 OA 
BRANCH   4   7
HETATM    7  C   UNL     1     -11.695  15.378  69.184  1.00  0.00    -0.345 C  
BRANCH   7   8
HETATM    8  C   UNL     1     -10.340  15.855  68.694  1.00  0.00    -0.229 A  
HETATM    9  H2  UNL     1     -11.874  15.159  66.736  1.00  0.00     0.000 HD 
HETATM   10  C   UNL     1      -9.203  16.088  69.384  1.00  0.00    -0.202 A  
HETATM   11  N   UNL     1      -9.084  16.841  66.846  1.00  0.00    -0.220 NA 
HETATM   12  N   UNL     1      -8.116  16.839  68.976  1.00  0.00    -0.219 NA 
HETATM   13  H1  UNL     1     -10.973  15.887  65.400  1.00  0.00     0.000 HD 
HETATM   14  C   UNL     1      -7.122  18.287  67.319  1.00  0.00    -0.210 C  
HETATM   15  N   UNL     1     -11.075  15.695  66.397  1.00  0.00    -0.197 NA 
HETATM   16  C   UNL     1      -8.127  17.247  67.740  1.00  0.00    -0.198 A  
HETATM   17  C   UNL     1     -10.190  16.135  67.233  1.00  0.00    -0.277 A  
ENDBRANCH   7   8
ENDBRANCH   4   7
ENDBRANCH   2   4
BRANCH   3  18
HETATM   18  C   UNL     1     -12.031  10.855  69.454  1.00  0.00    -0.393 C  
BRANCH  18  19
HETATM   19  C   UNL     1     -11.222   9.610  69.987  1.00  0.00    -0.231 C  
BRANCH  19  20
HETATM   20  O   UNL     1     -11.537   9.172  71.363  1.00  0.00    -0.288 OA 
HETATM   21  O   UNL     1     -13.143   7.645  71.511  1.00  0.00    -0.340 OA 
HETATM   22  O   UNL     1     -11.309   7.770  73.110  1.00  0.00    -0.374 OA 
HETATM   23  P   UNL     1     -11.521   7.450  71.520  1.00  0.00    -0.288 P  
HETATM   24  O   UNL     1     -11.507   5.908  71.661  1.00  0.00    -0.259 OA 
ENDBRANCH  19  20
ENDBRANCH  18  19
ENDBRANCH   3  18
BRANCH   3  25
HETATM   25  S   UNL     1      -9.846  12.513  68.575  1.00  0.00    -0.090 SA 
BRANCH  25  26
HETATM   26  C   UNL     1      -9.817  11.452  67.107  1.00  0.00    -0.190 C  
HETATM   27  O   UNL     1      -9.063  10.488  67.040  1.00  0.00    -0.143 OA 
BRANCH  26  28
HETATM   28  C   UNL     1     -10.682  11.807  65.875  1.00  0.00    -0.328 A  
HETATM   29  C   UNL     1     -10.982  11.662  63.408  1.00  0.00    -0.442 A  
HETATM   30  C   UNL     1     -10.242  11.407  64.584  1.00  0.00    -0.347 A  
HETATM   31  C   UNL     1     -11.928  12.440  65.908  1.00  0.00    -0.434 A  
HETATM   32  C   UNL     1     -12.209  12.309  63.492  1.00  0.00    -0.669 A  
HETATM   33  C   UNL     1     -12.683  12.691  64.748  1.00  0.00    -0.460 A  
ENDBRANCH  26  28
ENDBRANCH  25  26
ENDBRANCH   3  25
TORSDOF 9
ENDMDL
MODEL      110
REMARK 921   NORMALIZED FREE ENERGY PREDICTED BY IDOCK:   -5.73 KCAL/MOL
REMARK 922        TOTAL FREE ENERGY PREDICTED BY IDOCK:  -10.25 KCAL/MOL
REMARK 923 INTER-LIGAND FREE ENERGY PREDICTED BY IDOCK:   -9.52 KCAL/MOL
REMARK 924 INTRA-LIGAND FREE ENERGY PREDICTED BY IDOCK:   -0.73 KCAL/MOL
REMARK 927      BINDING AFFINITY PREDICTED BY RF-SCORE:    0.00 PKD
ROOT
HETATM    1  C   UNL     1      -7.568  13.345  67.357  1.00  0.00    -0.138 C  
HETATM    2  C   UNL     1      -8.963  13.988  67.291  1.00  0.00    -0.218 C  
HETATM    3  C   UNL     1      -9.209  15.107  68.038  1.00  0.00    -0.185 C  
ENDROOT
BRANCH   2   4
HETATM    4  N   UNL     1      -9.830  13.344  66.388  1.00  0.00    -0.291 N  
HETATM    5  C   UNL     1     -10.162  13.933  65.157  1.00  0.00    -0.358 C  
HETATM    6  O   UNL     1     -11.102  13.617  64.441  1.00  0.00    -0.375 OA 
BRANCH   4   7
HETATM    7  C   UNL     1     -10.805  12.348  66.884  1.00  0.00    -0.251 C  
BRANCH   7   8
HETATM    8  C   UNL     1     -10.284  10.922  66.900  1.00  0.00    -0.272 A  
HETATM    9  H2  UNL     1     -11.042  11.690  69.247  1.00  0.00     0.000 HD 
HETATM   10  C   UNL     1      -9.603  10.240  65.955  1.00  0.00    -0.209 A  
HETATM   11  N   UNL     1     -10.351   8.752  68.016  1.00  0.00    -0.217 NA 
HETATM   12  N   UNL     1      -9.454   8.868  65.859  1.00  0.00    -0.245 NA 
HETATM   13  H1  UNL     1     -11.106  10.116  70.050  1.00  0.00     0.000 HD 
HETATM   14  C   UNL     1     -10.013   6.675  66.698  1.00  0.00    -0.203 C  
HETATM   15  N   UNL     1     -10.925  10.677  69.217  1.00  0.00    -0.227 NA 
HETATM   16  C   UNL     1      -9.895   8.168  66.862  1.00  0.00    -0.247 A  
HETATM   17  C   UNL     1     -10.548  10.101  68.121  1.00  0.00    -0.223 A  
ENDBRANCH   7   8
ENDBRANCH   4   7
ENDBRANCH   2   4
BRANCH   3  18
HETATM   18  C   UNL     1      -7.993  15.918  68.670  1.00  0.00    -0.156 C  
BRANCH  18  19
HETATM   19  C   UNL     1      -6.984  16.593  67.662  1.00  0.00    -0.139 C  
BRANCH  19  20
HETATM   20  O   UNL     1      -6.982  18.070  67.638  1.00  0.00    -0.195 OA 
HETATM   21  O   UNL     1      -7.541  18.973  65.688  1.00  0.00    -0.474 OA 
HETATM   22  O   UNL     1      -8.007  20.067  67.814  1.00  0.00    -0.292 OA 
HETATM   23  P   UNL     1      -8.461  18.715  67.013  1.00  0.00    -0.286 P  
HETATM   24  O   UNL     1      -9.783  19.293  66.454  1.00  0.00    -0.338 OA 
ENDBRANCH  19  20
ENDBRANCH  18  19
ENDBRANCH   3  18
BRANCH   3  25
HETATM   25  S   UNL     1     -10.856  15.820  68.373  1.00  0.00    -0.314 SA 
BRANCH  25  26
HETATM   26  C   UNL     1     -11.971  14.673  69.225  1.00  0.00    -0.302 C  
HETATM   27  O   UNL     1     -12.519  13.760  68.619  1.00  0.00    -0.132 OA 
BRANCH  26  28
HETATM   28  C   UNL     1     -12.318  14.892  70.716  1.00  0.00    -0.392 A  
HETATM   29  C   UNL     1     -12.032  16.292  72.754  1.00  0.00    -0.636 A  
HETATM   30  C   UNL     1     -11.747  15.999  71.402  1.00  0.00    -0.536 A  
HETATM   31  C   UNL     1     -13.218  14.129  71.465  1.00  0.00    -0.423 A  
HETATM   32  C   UNL     1     -12.923  15.494  73.460  1.00  0.00    -0.669 A  
HETATM   33  C   UNL     1     -13.521  14.415  72.808  1.00  0.00    -0.582 A  
ENDBRANCH  26  28
ENDBRANCH  25  26
ENDBRANCH   3  25
TORSDOF 9
ENDMDL
MODEL      111
REMARK 921   NORMALIZED FREE ENERGY PREDICTED BY IDOCK:   -5.73 KCAL/MOL
REMARK 922        TOTAL FREE ENERGY PREDICTED BY IDOCK:  -10.25 KCAL/MOL
REMARK 923 INTER-LIGAND FREE ENERGY PREDICTED BY IDOCK:   -8.86 KCAL/MOL
REMARK 924 INTRA-LIGAND FREE ENERGY PREDICTED BY IDOCK:   -1.39 KCAL/MOL
REMARK 927      BINDING AFFINITY PREDICTED BY RF-SCORE:    0.00 PKD
ROOT
HETATM    1  C   UNL     1     -12.106  12.496  65.548  1.00  0.00    -0.481 C  
HETATM    2  C   UNL     1     -10.916  12.661  66.509  1.00  0.00    -0.269 C  
HETATM    3  C   UNL     1     -10.340  11.542  67.042  1.00  0.00    -0.220 C  
ENDROOT
BRANCH   2   4
HETATM    4  N   UNL     1     -10.523  14.002  66.680  1.00  0.00    -0.270 N  
HETATM    5  C   UNL     1      -9.165  14.359  66.728  1.00  0.00    -0.268 C  
HETATM    6  O   UNL     1      -8.716  15.413  67.152  1.00  0.00    -0.191 OA 
BRANCH   4   7
HETATM    7  C   UNL     1     -11.441  14.964  67.327  1.00  0.00    -0.340 C  
BRANCH   7   8
HETATM    8  C   UNL     1     -11.636  14.733  68.815  1.00  0.00    -0.347 A  
HETATM    9  H2  UNL     1     -10.333  16.915  68.348  1.00  0.00     0.000 HD 
HETATM   10  C   UNL     1     -12.055  13.631  69.472  1.00  0.00    -0.314 A  
HETATM   11  N   UNL     1     -11.801  15.765  71.022  1.00  0.00    -0.384 NA 
HETATM   12  N   UNL     1     -12.548  13.563  70.762  1.00  0.00    -0.331 NA 
HETATM   13  H1  UNL     1     -10.467  17.668  69.942  1.00  0.00     0.000 HD 
HETATM   14  C   UNL     1     -13.225  14.722  72.769  1.00  0.00    -0.581 C  
HETATM   15  N   UNL     1     -10.667  16.891  69.312  1.00  0.00    -0.325 NA 
HETATM   16  C   UNL     1     -12.466  14.652  71.469  1.00  0.00    -0.346 A  
HETATM   17  C   UNL     1     -11.343  15.873  69.737  1.00  0.00    -0.347 A  
ENDBRANCH   7   8
ENDBRANCH   4   7
ENDBRANCH   2   4
BRANCH   3  18
HETATM   18  C   UNL     1     -10.656  10.114  66.413  1.00  0.00    -0.155 C  
BRANCH  18  19
HETATM   19  C   UNL     1      -9.464   9.371  65.693  1.00  0.00    -0.262 C  
BRANCH  19  20
HETATM   20  O   UNL     1      -9.183   7.997  66.155  1.00  0.00    -0.186 OA 
HETATM   21  O   UNL     1      -8.208   6.687  64.650  1.00  0.00    -0.112 OA 
HETATM   22  O   UNL     1      -7.832   6.430  67.043  1.00  0.00    -0.102 OA 
HETATM   23  P   UNL     1      -7.539   7.536  65.874  1.00  0.00    -0.097 P  
HETATM   24  O   UNL     1      -6.068   7.124  65.623  1.00  0.00    -0.036 OA 
ENDBRANCH  19  20
ENDBRANCH  18  19
ENDBRANCH   3  18
BRANCH   3  25
HETATM   25  S   UNL     1      -9.167  11.516  68.441  1.00  0.00    -0.175 SA 
BRANCH  25  26
HETATM   26  C   UNL     1      -9.174   9.948  69.350  1.00  0.00    -0.214 C  
HETATM   27  O   UNL     1      -8.302   9.107  69.162  1.00  0.00    -0.117 OA 
BRANCH  26  28
HETATM   28  C   UNL     1     -10.339   9.612  70.309  1.00  0.00    -0.336 A  
HETATM   29  C   UNL     1     -11.101   8.387  72.338  1.00  0.00    -0.431 A  
HETATM   30  C   UNL     1     -10.105   8.726  71.396  1.00  0.00    -0.354 A  
HETATM   31  C   UNL     1     -11.622  10.162  70.258  1.00  0.00    -0.379 A  
HETATM   32  C   UNL     1     -12.367   8.950  72.234  1.00  0.00    -0.430 A  
HETATM   33  C   UNL     1     -12.623   9.844  71.194  1.00  0.00    -0.464 A  
ENDBRANCH  26  28
ENDBRANCH  25  26
ENDBRANCH   3  25
TORSDOF 9
ENDMDL
MODEL      112
REMARK 921   NORMALIZED FREE ENERGY PREDICTED BY IDOCK:   -5.73 KCAL/MOL
REMARK 922        TOTAL FREE ENERGY PREDICTED BY IDOCK:  -10.25 KCAL/MOL
REMARK 923 INTER-LIGAND FREE ENERGY PREDICTED BY IDOCK:   -8.90 KCAL/MOL
REMARK 924 INTRA-LIGAND FREE ENERGY PREDICTED BY IDOCK:   -1.35 KCAL/MOL
REMARK 927      BINDING AFFINITY PREDICTED BY RF-SCORE:    0.00 PKD
ROOT
HETATM    1  C   UNL     1      -7.436  12.029  67.691  1.00  0.00    -0.132 C  
HETATM    2  C   UNL     1      -8.736  11.332  68.126  1.00  0.00    -0.155 C  
HETATM    3  C   UNL     1      -9.927  11.791  67.635  1.00  0.00    -0.194 C  
ENDROOT
BRANCH   2   4
HETATM    4  N   UNL     1      -8.518  10.226  68.970  1.00  0.00    -0.140 N  
HETATM    5  C   UNL     1      -7.505  10.246  69.943  1.00  0.00    -0.158 C  
HETATM    6  O   UNL     1      -7.044   9.270  70.517  1.00  0.00    -0.074 OA 
BRANCH   4   7
HETATM    7  C   UNL     1      -8.942   8.875  68.540  1.00  0.00    -0.134 C  
BRANCH   7   8
HETATM    8  C   UNL     1      -8.392   8.450  67.191  1.00  0.00    -0.122 A  
HETATM    9  H2  UNL     1      -6.763   7.873  69.111  1.00  0.00     0.000 HD 
HETATM   10  C   UNL     1      -8.816   8.762  65.948  1.00  0.00    -0.186 A  
HETATM   11  N   UNL     1      -6.908   6.924  65.996  1.00  0.00    -0.059 NA 
HETATM   12  N   UNL     1      -8.522   8.095  64.772  1.00  0.00    -0.101 NA 
HETATM   13  H1  UNL     1      -5.698   6.756  68.250  1.00  0.00     0.000 HD 
HETATM   14  C   UNL     1      -7.465   6.217  63.682  1.00  0.00    -0.075 C  
HETATM   15  N   UNL     1      -6.507   7.378  68.257  1.00  0.00    -0.044 NA 
HETATM   16  C   UNL     1      -7.627   7.153  64.851  1.00  0.00    -0.103 A  
HETATM   17  C   UNL     1      -7.207   7.539  67.181  1.00  0.00    -0.086 A  
ENDBRANCH   7   8
ENDBRANCH   4   7
ENDBRANCH   2   4
BRANCH   3  18
HETATM   18  C   UNL     1      -9.939  12.777  66.385  1.00  0.00    -0.268 C  
BRANCH  18  19
HETATM   19  C   UNL     1     -10.022  12.115  64.955  1.00  0.00    -0.212 C  
BRANCH  19  20
HETATM   20  O   UNL     1     -10.993  12.717  64.018  1.00  0.00    -0.349 OA 
HETATM   21  O   UNL     1     -13.097  12.063  64.305  1.00  0.00    -0.671 OA 
HETATM   22  O   UNL     1     -12.521  14.273  63.459  1.00  0.00    -0.798 OA 
HETATM   23  P   UNL     1     -12.348  13.413  64.839  1.00  0.00    -0.388 P  
HETATM   24  O   UNL     1     -13.559  14.036  65.573  1.00  0.00    -0.596 OA 
ENDBRANCH  19  20
ENDBRANCH  18  19
ENDBRANCH   3  18
BRANCH   3  25
HETATM   25  S   UNL     1     -11.580  11.347  68.270  1.00  0.00    -0.292 SA 
BRANCH  25  26
HETATM   26  C   UNL     1     -11.739  11.566  70.062  1.00  0.00    -0.332 C  
HETATM   27  O   UNL     1     -11.444  10.662  70.836  1.00  0.00    -0.301 OA 
BRANCH  26  28
HETATM   28  C   UNL     1     -12.341  12.870  70.634  1.00  0.00    -0.385 A  
HETATM   29  C   UNL     1     -13.792  13.934  72.355  1.00  0.00    -0.668 A  
HETATM   30  C   UNL     1     -13.220  12.793  71.749  1.00  0.00    -0.471 A  
HETATM   31  C   UNL     1     -12.048  14.164  70.198  1.00  0.00    -0.411 A  
HETATM   32  C   UNL     1     -13.479  15.199  71.874  1.00  0.00    -0.522 A  
HETATM   33  C   UNL     1     -12.599  15.311  70.797  1.00  0.00    -0.474 A  
ENDBRANCH  26  28
ENDBRANCH  25  26
ENDBRANCH   3  25
TORSDOF 9
ENDMDL
MODEL      113
REMARK 921   NORMALIZED FREE ENERGY PREDICTED BY IDOCK:   -5.73 KCAL/MOL
REMARK 922        TOTAL FREE ENERGY PREDICTED BY IDOCK:  -10.25 KCAL/MOL
REMARK 923 INTER-LIGAND FREE ENERGY PREDICTED BY IDOCK:   -9.51 KCAL/MOL
REMARK 924 INTRA-LIGAND FREE ENERGY PREDICTED BY IDOCK:   -0.74 KCAL/MOL
REMARK 927      BINDING AFFINITY PREDICTED BY RF-SCORE:    0.00 PKD
ROOT
HETATM    1  C   UNL     1     -12.323  11.829  68.629  1.00  0.00     0.284 C  
HETATM    2  C   UNL     1     -11.021  12.491  68.146  1.00  0.00    -0.228 C  
HETATM    3  C   UNL     1     -10.884  13.845  68.271  1.00  0.00    -0.249 C  
ENDROOT
BRANCH   2   4
HETATM    4  N   UNL     1     -10.073  11.566  67.666  1.00  0.00    -0.182 N  
HETATM    5  C   UNL     1     -10.399  10.660  66.644  1.00  0.00    -0.241 C  
HETATM    6  O   UNL     1      -9.774   9.650  66.356  1.00  0.00    -0.190 OA 
BRANCH   4   7
HETATM    7  C   UNL     1      -8.943  11.154  68.525  1.00  0.00    -0.168 C  
BRANCH   7   8
HETATM    8  C   UNL     1      -9.298  10.098  69.556  1.00  0.00    -0.230 A  
HETATM    9  H2  UNL     1      -7.424   9.294  67.969  1.00  0.00     0.000 HD 
HETATM   10  C   UNL     1     -10.348  10.033  70.402  1.00  0.00    -0.205 A  
HETATM   11  N   UNL     1      -8.523   8.158  70.820  1.00  0.00    -0.121 NA 
HETATM   12  N   UNL     1     -10.455   9.260  71.544  1.00  0.00    -0.345 NA 
HETATM   13  H1  UNL     1      -6.853   7.899  68.893  1.00  0.00     0.000 HD 
HETATM   14  C   UNL     1      -9.418   7.729  73.096  1.00  0.00    -0.325 C  
HETATM   15  N   UNL     1      -7.486   8.693  68.791  1.00  0.00    -0.090 NA 
HETATM   16  C   UNL     1      -9.503   8.397  71.748  1.00  0.00    -0.233 A  
HETATM   17  C   UNL     1      -8.370   8.935  69.705  1.00  0.00    -0.123 A  
ENDBRANCH   7   8
ENDBRANCH   4   7
ENDBRANCH   2   4
BRANCH   3  18
HETATM   18  C   UNL     1     -11.883  14.658  69.207  1.00  0.00    -0.357 C  
BRANCH  18  19
HETATM   19  C   UNL     1     -11.243  15.477  70.394  1.00  0.00    -0.337 C  
BRANCH  19  20
HETATM   20  O   UNL     1     -12.187  15.999  71.404  1.00  0.00    -0.432 OA 
HETATM   21  O   UNL     1     -14.307  15.419  71.089  1.00  0.00    -0.490 OA 
HETATM   22  O   UNL     1     -13.376  15.810  73.306  1.00  0.00    -0.546 OA 
HETATM   23  P   UNL     1     -13.185  14.754  72.072  1.00  0.00    -0.436 P  
HETATM   24  O   UNL     1     -14.078  13.640  72.669  1.00  0.00    -0.746 OA 
ENDBRANCH  19  20
ENDBRANCH  18  19
ENDBRANCH   3  18
BRANCH   3  25
HETATM   25  S   UNL     1      -9.597  14.861  67.467  1.00  0.00    -0.205 SA 
BRANCH  25  26
HETATM   26  C   UNL     1     -10.274  16.138  66.374  1.00  0.00    -0.306 C  
HETATM   27  O   UNL     1     -10.780  15.843  65.298  1.00  0.00    -0.397 OA 
BRANCH  26  28
HETATM   28  C   UNL     1     -10.136  17.632  66.748  1.00  0.00    -0.334 A  
HETATM   29  C   UNL     1      -9.370  19.318  68.412  1.00  0.00    -0.422 A  
HETATM   30  C   UNL     1      -9.563  17.980  68.001  1.00  0.00    -0.295 A  
HETATM   31  C   UNL     1     -10.464  18.713  65.925  1.00  0.00    -0.395 A  
HETATM   32  C   UNL     1      -9.726  20.358  67.562  1.00  0.00    -0.571 A  
HETATM   33  C   UNL     1     -10.267  20.050  66.313  1.00  0.00    -0.595 A  
ENDBRANCH  26  28
ENDBRANCH  25  26
ENDBRANCH   3  25
TORSDOF 9
ENDMDL
MODEL      114
REMARK 921   NORMALIZED FREE ENERGY PREDICTED BY IDOCK:   -5.70 KCAL/MOL
REMARK 922        TOTAL FREE ENERGY PREDICTED BY IDOCK:  -10.20 KCAL/MOL
REMARK 923 INTER-LIGAND FREE ENERGY PREDICTED BY IDOCK:   -8.60 KCAL/MOL
REMARK 924 INTRA-LIGAND FREE ENERGY PREDICTED BY IDOCK:   -1.60 KCAL/MOL
REMARK 927      BINDING AFFINITY PREDICTED BY RF-SCORE:    0.00 PKD
ROOT
HETATM    1  C   UNL     1     -10.988   6.970  67.082  1.00  0.00    -0.393 C  
HETATM    2  C   UNL     1      -9.888   7.461  68.038  1.00  0.00    -0.148 C  
HETATM    3  C   UNL     1      -9.701   6.803  69.222  1.00  0.00    -0.151 C  
ENDROOT
BRANCH   2   4
HETATM    4  N   UNL     1      -9.146   8.541  67.523  1.00  0.00    -0.134 N  
HETATM    5  C   UNL     1      -7.794   8.390  67.173  1.00  0.00    -0.100 C  
HETATM    6  O   UNL     1      -6.994   9.297  66.997  1.00  0.00    -0.083 OA 
BRANCH   4   7
HETATM    7  C   UNL     1      -9.560   9.929  67.820  1.00  0.00    -0.141 C  
BRANCH   7   8
HETATM    8  C   UNL     1     -10.365  10.589  66.716  1.00  0.00    -0.301 A  
HETATM    9  H2  UNL     1     -11.574  10.730  68.995  1.00  0.00     0.000 HD 
HETATM   10  C   UNL     1     -10.200  10.538  65.377  1.00  0.00    -0.270 A  
HETATM   11  N   UNL     1     -12.049  12.267  66.160  1.00  0.00    -0.627 NA 
HETATM   12  N   UNL     1     -10.720  11.409  64.437  1.00  0.00    -0.335 NA 
HETATM   13  H1  UNL     1     -12.783  11.956  68.596  1.00  0.00     0.000 HD 
HETATM   14  C   UNL     1     -11.961  13.426  63.966  1.00  0.00    -0.520 C  
HETATM   15  N   UNL     1     -11.993  11.371  68.322  1.00  0.00    -0.610 NA 
HETATM   16  C   UNL     1     -11.575  12.287  64.874  1.00  0.00    -0.342 A  
HETATM   17  C   UNL     1     -11.523  11.445  67.118  1.00  0.00    -0.190 A  
ENDBRANCH   7   8
ENDBRANCH   4   7
ENDBRANCH   2   4
BRANCH   3  18
HETATM   18  C   UNL     1     -10.355   5.367  69.440  1.00  0.00    -0.339 C  
BRANCH  18  19
HETATM   19  C   UNL     1      -9.644   4.409  70.472  1.00  0.00    -0.199 C  
BRANCH  19  20
HETATM   20  O   UNL     1      -8.696   3.430  69.901  1.00  0.00    -0.066 OA 
HETATM   21  O   UNL     1      -9.621   1.885  68.600  1.00  0.00    -0.169 OA 
HETATM   22  O   UNL     1      -7.346   2.687  68.259  1.00  0.00    -0.048 OA 
HETATM   23  P   UNL     1      -8.870   3.276  68.187  1.00  0.00    -0.158 P  
HETATM   24  O   UNL     1      -9.025   3.139  66.653  1.00  0.00    -0.137 OA 
ENDBRANCH  19  20
ENDBRANCH  18  19
ENDBRANCH   3  18
BRANCH   3  25
HETATM   25  S   UNL     1      -8.710   7.410  70.630  1.00  0.00    -0.143 SA 
BRANCH  25  26
HETATM   26  C   UNL     1      -9.680   8.357  71.832  1.00  0.00    -0.261 C  
HETATM   27  O   UNL     1      -9.161   8.809  72.846  1.00  0.00    -0.311 OA 
BRANCH  26  28
HETATM   28  C   UNL     1     -11.205   8.528  71.636  1.00  0.00    -0.361 A  
HETATM   29  C   UNL     1     -13.452   7.456  71.620  1.00  0.00    -0.437 A  
HETATM   30  C   UNL     1     -12.047   7.388  71.752  1.00  0.00    -0.345 A  
HETATM   31  C   UNL     1     -11.869   9.737  71.419  1.00  0.00    -0.488 A  
HETATM   32  C   UNL     1     -14.064   8.682  71.389  1.00  0.00    -0.337 A  
HETATM   33  C   UNL     1     -13.268   9.824  71.296  1.00  0.00    -0.452 A  
ENDBRANCH  26  28
ENDBRANCH  25  26
ENDBRANCH   3  25
TORSDOF 9
ENDMDL
MODEL      115
REMARK 921   NORMALIZED FREE ENERGY PREDICTED BY IDOCK:   -5.69 KCAL/MOL
REMARK 922        TOTAL FREE ENERGY PREDICTED BY IDOCK:  -10.20 KCAL/MOL
REMARK 923 INTER-LIGAND FREE ENERGY PREDICTED BY IDOCK:   -8.76 KCAL/MOL
REMARK 924 INTRA-LIGAND FREE ENERGY PREDICTED BY IDOCK:   -1.44 KCAL/MOL
REMARK 927      BINDING AFFINITY PREDICTED BY RF-SCORE:    0.00 PKD
ROOT
HETATM    1  C   UNL     1      -9.432  14.926  65.610  1.00  0.00    -0.152 C  
HETATM    2  C   UNL     1      -9.380  14.984  67.146  1.00  0.00    -0.215 C  
HETATM    3  C   UNL     1     -10.554  14.962  67.847  1.00  0.00    -0.254 C  
ENDROOT
BRANCH   2   4
HETATM    4  N   UNL     1      -8.068  14.999  67.657  1.00  0.00    -0.156 N  
HETATM    5  C   UNL     1      -7.053  15.734  67.024  1.00  0.00    -0.134 C  
HETATM    6  O   UNL     1      -5.851  15.594  67.200  1.00  0.00    -0.329 OA 
BRANCH   4   7
HETATM    7  C   UNL     1      -7.594  13.883  68.504  1.00  0.00    -0.134 C  
BRANCH   7   8
HETATM    8  C   UNL     1      -7.249  12.621  67.734  1.00  0.00    -0.127 A  
HETATM    9  H2  UNL     1      -9.355  12.304  69.197  1.00  0.00     0.000 HD 
HETATM   10  C   UNL     1      -6.129  12.304  67.050  1.00  0.00    -0.042 A  
HETATM   11  N   UNL     1      -8.092  10.548  66.758  1.00  0.00    -0.120 NA 
HETATM   12  N   UNL     1      -5.987  11.319  66.090  1.00  0.00    -0.110 NA 
HETATM   13  H1  UNL     1      -9.973  10.812  68.479  1.00  0.00     0.000 HD 
HETATM   14  C   UNL     1      -7.015   9.612  64.727  1.00  0.00    -0.111 C  
HETATM   15  N   UNL     1      -9.272  11.552  68.513  1.00  0.00    -0.184 NA 
HETATM   16  C   UNL     1      -7.000  10.518  65.930  1.00  0.00    -0.131 A  
HETATM   17  C   UNL     1      -8.277  11.536  67.686  1.00  0.00    -0.131 A  
ENDBRANCH   7   8
ENDBRANCH   4   7
ENDBRANCH   2   4
BRANCH   3  18
HETATM   18  C   UNL     1     -11.902  14.531  67.117  1.00  0.00    -0.412 C  
BRANCH  18  19
HETATM   19  C   UNL     1     -12.076  12.997  66.787  1.00  0.00    -0.300 C  
BRANCH  19  20
HETATM   20  O   UNL     1     -12.874  12.679  65.585  1.00  0.00    -0.435 OA 
HETATM   21  O   UNL     1     -12.387  13.897  63.792  1.00  0.00    -0.669 OA 
HETATM   22  O   UNL     1     -13.194  11.603  63.633  1.00  0.00    -0.425 OA 
HETATM   23  P   UNL     1     -11.880  12.398  64.197  1.00  0.00    -0.479 P  
HETATM   24  O   UNL     1     -10.990  12.145  62.956  1.00  0.00    -0.273 OA 
ENDBRANCH  19  20
ENDBRANCH  18  19
ENDBRANCH   3  18
BRANCH   3  25
HETATM   25  S   UNL     1     -10.742  15.361  69.618  1.00  0.00    -0.296 SA 
BRANCH  25  26
HETATM   26  C   UNL     1     -12.373  14.932  70.279  1.00  0.00    -0.341 C  
HETATM   27  O   UNL     1     -13.250  15.781  70.395  1.00  0.00    -0.365 OA 
BRANCH  26  28
HETATM   28  C   UNL     1     -12.650  13.501  70.794  1.00  0.00    -0.382 A  
HETATM   29  C   UNL     1     -12.152  11.069  70.606  1.00  0.00    -0.471 A  
HETATM   30  C   UNL     1     -11.983  12.405  70.181  1.00  0.00    -0.376 A  
HETATM   31  C   UNL     1     -13.461  13.168  71.882  1.00  0.00    -0.513 A  
HETATM   32  C   UNL     1     -12.982  10.788  71.684  1.00  0.00    -0.581 A  
HETATM   33  C   UNL     1     -13.631  11.844  72.325  1.00  0.00    -0.109 A  
ENDBRANCH  26  28
ENDBRANCH  25  26
ENDBRANCH   3  25
TORSDOF 9
ENDMDL
MODEL      116
REMARK 921   NORMALIZED FREE ENERGY PREDICTED BY IDOCK:   -5.65 KCAL/MOL
REMARK 922        TOTAL FREE ENERGY PREDICTED BY IDOCK:  -10.13 KCAL/MOL
REMARK 923 INTER-LIGAND FREE ENERGY PREDICTED BY IDOCK:   -8.60 KCAL/MOL
REMARK 924 INTRA-LIGAND FREE ENERGY PREDICTED BY IDOCK:   -1.53 KCAL/MOL
REMARK 927      BINDING AFFINITY PREDICTED BY RF-SCORE:    0.00 PKD
ROOT
HETATM    1  C   UNL     1     -12.146  14.200  68.994  1.00  0.00    -0.348 C  
HETATM    2  C   UNL     1     -11.774  13.282  67.817  1.00  0.00    -0.358 C  
HETATM    3  C   UNL     1     -11.573  11.951  68.057  1.00  0.00    -0.332 C  
ENDROOT
BRANCH   2   4
HETATM    4  N   UNL     1     -11.739  13.952  66.579  1.00  0.00    -0.372 N  
HETATM    5  C   UNL     1     -12.733  13.737  65.611  1.00  0.00    -0.478 C  
HETATM    6  O   UNL     1     -12.655  14.028  64.426  1.00  0.00    -0.651 OA 
BRANCH   4   7
HETATM    7  C   UNL     1     -10.454  14.457  66.049  1.00  0.00    -0.301 C  
BRANCH   7   8
HETATM    8  C   UNL     1     -10.188  15.920  66.354  1.00  0.00    -0.311 A  
HETATM    9  H2  UNL     1      -9.112  14.365  68.115  1.00  0.00     0.000 HD 
HETATM   10  C   UNL     1     -10.745  17.029  65.823  1.00  0.00    -0.142 A  
HETATM   11  N   UNL     1      -8.703  17.527  67.437  1.00  0.00    -0.226 NA 
HETATM   12  N   UNL     1     -10.245  18.318  65.866  1.00  0.00    -0.587 NA 
HETATM   13  H1  UNL     1      -8.026  15.525  68.888  1.00  0.00     0.000 HD 
HETATM   14  C   UNL     1      -8.452  19.809  66.491  1.00  0.00    -0.380 C  
HETATM   15  N   UNL     1      -8.734  15.310  68.186  1.00  0.00    -0.159 NA 
HETATM   16  C   UNL     1      -9.200  18.507  66.618  1.00  0.00    -0.306 A  
HETATM   17  C   UNL     1      -9.151  16.236  67.384  1.00  0.00    -0.195 A  
ENDBRANCH   7   8
ENDBRANCH   4   7
ENDBRANCH   2   4
BRANCH   3  18
HETATM   18  C   UNL     1     -12.057  11.314  69.434  1.00  0.00    -0.384 C  
BRANCH  18  19
HETATM   19  C   UNL     1     -11.061  10.323  70.152  1.00  0.00    -0.319 C  
BRANCH  19  20
HETATM   20  O   UNL     1     -11.586   8.972  70.438  1.00  0.00    -0.226 OA 
HETATM   21  O   UNL     1     -11.684   8.446  72.594  1.00  0.00    -0.386 OA 
HETATM   22  O   UNL     1     -13.253   7.550  70.960  1.00  0.00    -0.210 OA 
HETATM   23  P   UNL     1     -12.861   9.001  71.607  1.00  0.00    -0.384 P  
HETATM   24  O   UNL     1     -14.002   9.026  72.653  1.00  0.00    -0.463 OA 
ENDBRANCH  19  20
ENDBRANCH  18  19
ENDBRANCH   3  18
BRANCH   3  25
HETATM   25  S   UNL     1     -10.803  10.767  66.900  1.00  0.00    -0.186 SA 
BRANCH  25  26
HETATM   26  C   UNL     1      -8.998  10.696  67.046  1.00  0.00    -0.137 C  
HETATM   27  O   UNL     1      -8.312  11.699  66.885  1.00  0.00    -0.159 OA 
BRANCH  26  28
HETATM   28  C   UNL     1      -8.292   9.341  67.286  1.00  0.00    -0.125 A  
HETATM   29  C   UNL     1      -6.264   7.940  66.937  1.00  0.00    -0.054 A  
HETATM   30  C   UNL     1      -6.995   9.133  66.743  1.00  0.00    -0.081 A  
HETATM   31  C   UNL     1      -8.784   8.291  68.066  1.00  0.00    -0.135 A  
HETATM   32  C   UNL     1      -6.804   6.919  67.709  1.00  0.00    -0.081 A  
HETATM   33  C   UNL     1      -8.064   7.102  68.279  1.00  0.00    -0.124 A  
ENDBRANCH  26  28
ENDBRANCH  25  26
ENDBRANCH   3  25
TORSDOF 9
ENDMDL
MODEL      117
REMARK 921   NORMALIZED FREE ENERGY PREDICTED BY IDOCK:   -5.65 KCAL/MOL
REMARK 922        TOTAL FREE ENERGY PREDICTED BY IDOCK:  -10.13 KCAL/MOL
REMARK 923 INTER-LIGAND FREE ENERGY PREDICTED BY IDOCK:   -9.00 KCAL/MOL
REMARK 924 INTRA-LIGAND FREE ENERGY PREDICTED BY IDOCK:   -1.12 KCAL/MOL
REMARK 927      BINDING AFFINITY PREDICTED BY RF-SCORE:    0.00 PKD
ROOT
HETATM    1  C   UNL     1      -8.794  13.587  67.094  1.00  0.00    -0.231 C  
HETATM    2  C   UNL     1     -10.011  12.991  67.820  1.00  0.00    -0.227 C  
HETATM    3  C   UNL     1     -10.140  11.631  67.885  1.00  0.00    -0.187 C  
ENDROOT
BRANCH   2   4
HETATM    4  N   UNL     1     -10.846  13.967  68.397  1.00  0.00    -0.247 N  
HETATM    5  C   UNL     1     -11.454  13.754  69.645  1.00  0.00    -0.237 C  
HETATM    6  O   UNL     1     -12.400  14.382  70.098  1.00  0.00    -0.322 OA 
BRANCH   4   7
HETATM    7  C   UNL     1     -11.524  14.960  67.536  1.00  0.00    -0.348 C  
BRANCH   7   8
HETATM    8  C   UNL     1     -10.793  16.285  67.421  1.00  0.00    -0.242 A  
HETATM    9  H2  UNL     1     -10.948  15.077  65.143  1.00  0.00     0.000 HD 
HETATM   10  C   UNL     1     -10.315  17.096  68.388  1.00  0.00    -0.362 A  
HETATM   11  N   UNL     1     -10.172  18.136  65.955  1.00  0.00    -0.558 NA 
HETATM   12  N   UNL     1      -9.975  18.431  68.267  1.00  0.00    -0.349 NA 
HETATM   13  H1  UNL     1     -10.513  16.422  64.081  1.00  0.00     0.000 HD 
HETATM   14  C   UNL     1      -9.893  20.417  66.896  1.00  0.00    -0.572 C  
HETATM   15  N   UNL     1     -10.679  16.053  65.018  1.00  0.00    -0.593 NA 
HETATM   16  C   UNL     1      -9.982  18.922  67.063  1.00  0.00    -0.340 A  
HETATM   17  C   UNL     1     -10.549  16.825  66.048  1.00  0.00    -0.228 A  
ENDBRANCH   7   8
ENDBRANCH   4   7
ENDBRANCH   2   4
BRANCH   3  18
HETATM   18  C   UNL     1      -8.894  10.702  67.536  1.00  0.00    -0.132 C  
BRANCH  18  19
HETATM   19  C   UNL     1      -8.896  10.008  66.119  1.00  0.00    -0.148 C  
BRANCH  19  20
HETATM   20  O   UNL     1      -8.791  10.911  64.955  1.00  0.00    -0.183 OA 
HETATM   21  O   UNL     1      -9.867  10.221  63.138  1.00  0.00    -0.253 OA 
HETATM   22  O   UNL     1      -9.555  12.582  63.654  1.00  0.00    -0.165 OA 
HETATM   23  P   UNL     1     -10.338  11.290  64.280  1.00  0.00    -0.386 P  
HETATM   24  O   UNL     1     -11.723  11.630  63.677  1.00  0.00    -0.420 OA 
ENDBRANCH  19  20
ENDBRANCH  18  19
ENDBRANCH   3  18
BRANCH   3  25
HETATM   25  S   UNL     1     -11.647  10.729  68.384  1.00  0.00    -0.154 SA 
BRANCH  25  26
HETATM   26  C   UNL     1     -11.482   9.892  69.983  1.00  0.00    -0.217 C  
HETATM   27  O   UNL     1     -11.605  10.511  71.033  1.00  0.00    -0.330 OA 
BRANCH  26  28
HETATM   28  C   UNL     1     -11.090   8.398  70.039  1.00  0.00    -0.148 A  
HETATM   29  C   UNL     1     -10.999   6.301  71.378  1.00  0.00    -0.327 A  
HETATM   30  C   UNL     1     -11.299   7.674  71.245  1.00  0.00    -0.286 A  
HETATM   31  C   UNL     1     -10.599   7.642  68.971  1.00  0.00    -0.186 A  
HETATM   32  C   UNL     1     -10.498   5.597  70.289  1.00  0.00    -0.363 A  
HETATM   33  C   UNL     1     -10.306   6.271  69.083  1.00  0.00    -0.262 A  
ENDBRANCH  26  28
ENDBRANCH  25  26
ENDBRANCH   3  25
TORSDOF 9
ENDMDL
MODEL      118
REMARK 921   NORMALIZED FREE ENERGY PREDICTED BY IDOCK:   -5.64 KCAL/MOL
REMARK 922        TOTAL FREE ENERGY PREDICTED BY IDOCK:  -10.11 KCAL/MOL
REMARK 923 INTER-LIGAND FREE ENERGY PREDICTED BY IDOCK:   -9.22 KCAL/MOL
REMARK 924 INTRA-LIGAND FREE ENERGY PREDICTED BY IDOCK:   -0.89 KCAL/MOL
REMARK 927      BINDING AFFINITY PREDICTED BY RF-SCORE:    0.00 PKD
ROOT
HETATM    1  C   UNL     1      -7.869  13.331  67.552  1.00  0.00    -0.173 C  
HETATM    2  C   UNL     1      -9.355  13.163  67.915  1.00  0.00    -0.215 C  
HETATM    3  C   UNL     1      -9.792  11.945  68.355  1.00  0.00    -0.201 C  
ENDROOT
BRANCH   2   4
HETATM    4  N   UNL     1     -10.095  14.355  67.791  1.00  0.00    -0.225 N  
HETATM    5  C   UNL     1     -11.060  14.711  68.747  1.00  0.00    -0.260 C  
HETATM    6  O   UNL     1     -11.942  15.544  68.599  1.00  0.00    -0.335 OA 
BRANCH   4   7
HETATM    7  C   UNL     1     -10.278  14.975  66.461  1.00  0.00    -0.275 C  
BRANCH   7   8
HETATM    8  C   UNL     1      -9.870  16.436  66.394  1.00  0.00    -0.312 A  
HETATM    9  H2  UNL     1     -11.335  15.759  64.377  1.00  0.00     0.000 HD 
HETATM   10  C   UNL     1      -8.947  17.110  67.112  1.00  0.00    -0.228 A  
HETATM   11  N   UNL     1     -10.426  18.659  65.554  1.00  0.00    -0.539 NA 
HETATM   12  N   UNL     1      -8.847  18.480  67.270  1.00  0.00    -0.267 NA 
HETATM   13  H1  UNL     1     -11.750  17.369  63.778  1.00  0.00     0.000 HD 
HETATM   14  C   UNL     1      -9.773  20.671  66.854  1.00  0.00    -0.424 C  
HETATM   15  N   UNL     1     -11.269  16.774  64.453  1.00  0.00    -1.107 NA 
HETATM   16  C   UNL     1      -9.638  19.205  66.535  1.00  0.00    -0.355 A  
HETATM   17  C   UNL     1     -10.575  17.308  65.405  1.00  0.00    -0.072 A  
ENDBRANCH   7   8
ENDBRANCH   4   7
ENDBRANCH   2   4
BRANCH   3  18
HETATM   18  C   UNL     1      -8.737  10.846  68.817  1.00  0.00    -0.158 C  
BRANCH  18  19
HETATM   19  C   UNL     1      -9.070   9.344  68.464  1.00  0.00    -0.131 C  
BRANCH  19  20
HETATM   20  O   UNL     1      -8.168   8.692  67.492  1.00  0.00    -0.109 OA 
HETATM   21  O   UNL     1      -9.191   7.464  65.949  1.00  0.00    -0.099 OA 
HETATM   22  O   UNL     1      -7.086   8.613  65.519  1.00  0.00    -0.080 OA 
HETATM   23  P   UNL     1      -8.640   8.998  65.856  1.00  0.00    -0.175 P  
HETATM   24  O   UNL     1      -9.061   9.273  64.392  1.00  0.00    -0.189 OA 
ENDBRANCH  19  20
ENDBRANCH  18  19
ENDBRANCH   3  18
BRANCH   3  25
HETATM   25  S   UNL     1     -11.539  11.436  68.507  1.00  0.00    -0.321 SA 
BRANCH  25  26
HETATM   26  C   UNL     1     -12.118  11.373  70.223  1.00  0.00    -0.374 C  
HETATM   27  O   UNL     1     -12.389  12.400  70.835  1.00  0.00    -0.377 OA 
BRANCH  26  28
HETATM   28  C   UNL     1     -12.188  10.020  70.969  1.00  0.00    -0.462 A  
HETATM   29  C   UNL     1     -10.950   8.185  72.109  1.00  0.00    -0.372 A  
HETATM   30  C   UNL     1     -10.980   9.403  71.395  1.00  0.00    -0.443 A  
HETATM   31  C   UNL     1     -13.358   9.354  71.342  1.00  0.00    -0.417 A  
HETATM   32  C   UNL     1     -12.142   7.553  72.442  1.00  0.00    -0.216 A  
HETATM   33  C   UNL     1     -13.347   8.146  72.062  1.00  0.00    -0.309 A  
ENDBRANCH  26  28
ENDBRANCH  25  26
ENDBRANCH   3  25
TORSDOF 9
ENDMDL
MODEL      119
REMARK 921   NORMALIZED FREE ENERGY PREDICTED BY IDOCK:   -5.64 KCAL/MOL
REMARK 922        TOTAL FREE ENERGY PREDICTED BY IDOCK:  -10.11 KCAL/MOL
REMARK 923 INTER-LIGAND FREE ENERGY PREDICTED BY IDOCK:   -8.20 KCAL/MOL
REMARK 924 INTRA-LIGAND FREE ENERGY PREDICTED BY IDOCK:   -1.91 KCAL/MOL
REMARK 927      BINDING AFFINITY PREDICTED BY RF-SCORE:    0.00 PKD
ROOT
HETATM    1  C   UNL     1      -7.700  12.518  67.133  1.00  0.00    -0.109 C  
HETATM    2  C   UNL     1      -8.627  11.430  67.702  1.00  0.00    -0.130 C  
HETATM    3  C   UNL     1      -9.956  11.464  67.384  1.00  0.00    -0.186 C  
ENDROOT
BRANCH   2   4
HETATM    4  N   UNL     1      -7.946  10.466  68.470  1.00  0.00    -0.108 N  
HETATM    5  C   UNL     1      -7.458  10.772  69.751  1.00  0.00    -0.018 C  
HETATM    6  O   UNL     1      -6.624  10.130  70.372  1.00  0.00    -0.117 OA 
BRANCH   4   7
HETATM    7  C   UNL     1      -7.270   9.334  67.801  1.00  0.00    -0.083 C  
BRANCH   7   8
HETATM    8  C   UNL     1      -8.050   8.032  67.838  1.00  0.00    -0.129 A  
HETATM    9  H2  UNL     1      -8.646   9.445  65.759  1.00  0.00     0.000 HD 
HETATM   10  C   UNL     1      -8.196   7.140  68.841  1.00  0.00    -0.125 A  
HETATM   11  N   UNL     1      -9.219   6.331  66.534  1.00  0.00    -0.151 NA 
HETATM   12  N   UNL     1      -8.611   5.825  68.736  1.00  0.00    -0.109 NA 
HETATM   13  H1  UNL     1      -9.478   8.209  64.809  1.00  0.00     0.000 HD 
HETATM   14  C   UNL     1      -9.247   3.976  67.319  1.00  0.00    -0.187 C  
HETATM   15  N   UNL     1      -8.982   8.488  65.655  1.00  0.00    -0.182 NA 
HETATM   16  C   UNL     1      -9.044   5.448  67.568  1.00  0.00    -0.107 A  
HETATM   17  C   UNL     1      -8.778   7.624  66.598  1.00  0.00    -0.141 A  
ENDBRANCH   7   8
ENDBRANCH   4   7
ENDBRANCH   2   4
BRANCH   3  18
HETATM   18  C   UNL     1     -10.458  12.381  66.182  1.00  0.00    -0.274 C  
BRANCH  18  19
HETATM   19  C   UNL     1     -11.816  13.156  66.395  1.00  0.00    -0.400 C  
BRANCH  19  20
HETATM   20  O   UNL     1     -11.855  14.545  65.893  1.00  0.00    -0.369 OA 
HETATM   21  O   UNL     1     -10.930  16.050  67.240  1.00  0.00    -0.300 OA 
HETATM   22  O   UNL     1     -10.945  16.301  64.816  1.00  0.00    -0.631 OA 
HETATM   23  P   UNL     1     -10.298  15.298  65.935  1.00  0.00    -0.385 P  
HETATM   24  O   UNL     1      -8.904  15.972  65.971  1.00  0.00    -0.333 OA 
ENDBRANCH  19  20
ENDBRANCH  18  19
ENDBRANCH   3  18
BRANCH   3  25
HETATM   25  S   UNL     1     -11.270  10.499  68.206  1.00  0.00    -0.264 SA 
BRANCH  25  26
HETATM   26  C   UNL     1     -11.394  10.831  69.983  1.00  0.00    -0.319 C  
HETATM   27  O   UNL     1     -10.977  10.023  70.805  1.00  0.00    -0.313 OA 
BRANCH  26  28
HETATM   28  C   UNL     1     -12.118  12.101  70.487  1.00  0.00    -0.383 A  
HETATM   29  C   UNL     1     -13.627  13.125  72.181  1.00  0.00    -0.637 A  
HETATM   30  C   UNL     1     -12.953  12.011  71.634  1.00  0.00    -0.439 A  
HETATM   31  C   UNL     1     -11.976  13.386  69.956  1.00  0.00    -0.407 A  
HETATM   32  C   UNL     1     -13.465  14.379  71.607  1.00  0.00    -0.451 A  
HETATM   33  C   UNL     1     -12.631  14.507  70.496  1.00  0.00    -0.413 A  
ENDBRANCH  26  28
ENDBRANCH  25  26
ENDBRANCH   3  25
TORSDOF 9
ENDMDL
MODEL      120
REMARK 921   NORMALIZED FREE ENERGY PREDICTED BY IDOCK:   -5.63 KCAL/MOL
REMARK 922        TOTAL FREE ENERGY PREDICTED BY IDOCK:  -10.10 KCAL/MOL
REMARK 923 INTER-LIGAND FREE ENERGY PREDICTED BY IDOCK:  -10.21 KCAL/MOL
REMARK 924 INTRA-LIGAND FREE ENERGY PREDICTED BY IDOCK:    0.12 KCAL/MOL
REMARK 927      BINDING AFFINITY PREDICTED BY RF-SCORE:    0.00 PKD
ROOT
HETATM    1  C   UNL     1      -9.332  14.481  66.767  1.00  0.00    -0.278 C  
HETATM    2  C   UNL     1     -10.041  13.567  67.781  1.00  0.00    -0.236 C  
HETATM    3  C   UNL     1     -10.165  12.236  67.495  1.00  0.00    -0.204 C  
ENDROOT
BRANCH   2   4
HETATM    4  N   UNL     1     -10.441  14.241  68.951  1.00  0.00    -0.246 N  
HETATM    5  C   UNL     1     -11.800  14.407  69.263  1.00  0.00    -0.325 C  
HETATM    6  O   UNL     1     -12.258  15.201  70.072  1.00  0.00    -0.321 OA 
BRANCH   4   7
HETATM    7  C   UNL     1      -9.533  15.222  69.584  1.00  0.00    -0.165 C  
BRANCH   7   8
HETATM    8  C   UNL     1      -9.567  16.601  68.950  1.00  0.00    -0.252 A  
HETATM    9  H2  UNL     1      -7.228  16.039  69.893  1.00  0.00     0.000 HD 
HETATM   10  C   UNL     1     -10.622  17.344  68.553  1.00  0.00    -0.340 A  
HETATM   11  N   UNL     1      -8.276  18.364  67.862  1.00  0.00    -0.255 NA 
HETATM   12  N   UNL     1     -10.607  18.416  67.679  1.00  0.00    -0.420 NA 
HETATM   13  H1  UNL     1      -6.291  17.306  69.092  1.00  0.00     0.000 HD 
HETATM   14  C   UNL     1      -9.355  19.816  66.161  1.00  0.00    -0.439 C  
HETATM   15  N   UNL     1      -7.184  16.844  69.267  1.00  0.00    -0.216 NA 
HETATM   16  C   UNL     1      -9.435  18.845  67.310  1.00  0.00    -0.301 A  
HETATM   17  C   UNL     1      -8.259  17.279  68.694  1.00  0.00    -0.262 A  
ENDBRANCH   7   8
ENDBRANCH   4   7
ENDBRANCH   2   4
BRANCH   3  18
HETATM   18  C   UNL     1      -9.295  11.594  66.326  1.00  0.00    -0.228 C  
BRANCH  18  19
HETATM   19  C   UNL     1      -9.739  11.914  64.847  1.00  0.00    -0.137 C  
BRANCH  19  20
HETATM   20  O   UNL     1     -11.169  11.702  64.539  1.00  0.00    -0.315 OA 
HETATM   21  O   UNL     1     -12.559  13.115  65.541  1.00  0.00    -0.472 OA 
HETATM   22  O   UNL     1     -13.039  12.134  63.363  1.00  0.00    -0.752 OA 
HETATM   23  P   UNL     1     -11.950  13.158  64.026  1.00  0.00    -0.471 P  
HETATM   24  O   UNL     1     -12.649  14.460  63.566  1.00  0.00    -0.784 OA 
ENDBRANCH  19  20
ENDBRANCH  18  19
ENDBRANCH   3  18
BRANCH   3  25
HETATM   25  S   UNL     1     -11.248  11.057  68.373  1.00  0.00    -0.300 SA 
BRANCH  25  26
HETATM   26  C   UNL     1     -10.353   9.996  69.538  1.00  0.00    -0.235 C  
HETATM   27  O   UNL     1      -9.130  10.028  69.608  1.00  0.00    -0.206 OA 
BRANCH  26  28
HETATM   28  C   UNL     1     -11.122   8.965  70.396  1.00  0.00    -0.270 A  
HETATM   29  C   UNL     1     -12.763   8.561  72.225  1.00  0.00    -0.420 A  
HETATM   30  C   UNL     1     -11.998   9.430  71.414  1.00  0.00    -0.446 A  
HETATM   31  C   UNL     1     -11.097   7.578  70.223  1.00  0.00    -0.263 A  
HETATM   32  C   UNL     1     -12.691   7.189  72.022  1.00  0.00    -0.229 A  
HETATM   33  C   UNL     1     -11.860   6.700  71.013  1.00  0.00    -0.427 A  
ENDBRANCH  26  28
ENDBRANCH  25  26
ENDBRANCH   3  25
TORSDOF 9
ENDMDL
MODEL      121
REMARK 921   NORMALIZED FREE ENERGY PREDICTED BY IDOCK:   -5.62 KCAL/MOL
REMARK 922        TOTAL FREE ENERGY PREDICTED BY IDOCK:  -10.09 KCAL/MOL
REMARK 923 INTER-LIGAND FREE ENERGY PREDICTED BY IDOCK:   -8.57 KCAL/MOL
REMARK 924 INTRA-LIGAND FREE ENERGY PREDICTED BY IDOCK:   -1.52 KCAL/MOL
REMARK 927      BINDING AFFINITY PREDICTED BY RF-SCORE:    0.00 PKD
ROOT
HETATM    1  C   UNL     1      -9.792   8.844  72.277  1.00  0.00    -0.162 C  
HETATM    2  C   UNL     1     -10.786   9.326  71.207  1.00  0.00    -0.347 C  
HETATM    3  C   UNL     1     -10.311  10.024  70.132  1.00  0.00    -0.266 C  
ENDROOT
BRANCH   2   4
HETATM    4  N   UNL     1     -12.112   8.921  71.458  1.00  0.00    -0.312 N  
HETATM    5  C   UNL     1     -12.820   9.408  72.568  1.00  0.00    -0.235 C  
HETATM    6  O   UNL     1     -13.838   8.922  73.038  1.00  0.00    -0.280 OA 
BRANCH   4   7
HETATM    7  C   UNL     1     -12.604   7.634  70.921  1.00  0.00    -0.054 C  
BRANCH   7   8
HETATM    8  C   UNL     1     -11.768   6.432  71.323  1.00  0.00    -0.359 A  
HETATM    9  H2  UNL     1     -11.778   6.776  68.763  1.00  0.00     0.000 HD 
HETATM   10  C   UNL     1     -11.688   5.793  72.510  1.00  0.00    -0.225 A  
HETATM   11  N   UNL     1      -9.913   4.962  70.726  1.00  0.00    -0.209 NA 
HETATM   12  N   UNL     1     -10.682   4.944  72.935  1.00  0.00    -0.220 NA 
HETATM   13  H1  UNL     1     -10.425   5.724  68.333  1.00  0.00     0.000 HD 
HETATM   14  C   UNL     1      -8.535   3.924  72.511  1.00  0.00    -0.100 C  
HETATM   15  N   UNL     1     -11.037   6.133  69.039  1.00  0.00    -0.379 NA 
HETATM   16  C   UNL     1      -9.792   4.613  72.046  1.00  0.00    -0.179 A  
HETATM   17  C   UNL     1     -10.872   5.833  70.288  1.00  0.00    -0.303 A  
ENDBRANCH   7   8
ENDBRANCH   4   7
ENDBRANCH   2   4
BRANCH   3  18
HETATM   18  C   UNL     1      -8.749  10.025  69.818  1.00  0.00    -0.198 C  
BRANCH  18  19
HETATM   19  C   UNL     1      -8.325   9.876  68.305  1.00  0.00    -0.110 C  
BRANCH  19  20
HETATM   20  O   UNL     1      -8.710   8.612  67.646  1.00  0.00    -0.134 OA 
HETATM   21  O   UNL     1     -10.411   8.778  66.227  1.00  0.00    -0.231 OA 
HETATM   22  O   UNL     1      -8.622   7.149  65.936  1.00  0.00    -0.146 OA 
HETATM   23  P   UNL     1      -8.805   8.775  65.926  1.00  0.00    -0.201 P  
HETATM   24  O   UNL     1      -8.891   8.920  64.387  1.00  0.00    -0.136 OA 
ENDBRANCH  19  20
ENDBRANCH  18  19
ENDBRANCH   3  18
BRANCH   3  25
HETATM   25  S   UNL     1     -11.326  10.969  68.945  1.00  0.00    -0.308 SA 
BRANCH  25  26
HETATM   26  C   UNL     1     -11.245  12.761  69.204  1.00  0.00    -0.237 C  
HETATM   27  O   UNL     1     -10.413  13.445  68.620  1.00  0.00    -0.243 OA 
BRANCH  26  28
HETATM   28  C   UNL     1     -12.170  13.438  70.242  1.00  0.00    -0.405 A  
HETATM   29  C   UNL     1     -13.654  13.168  72.223  1.00  0.00    -0.677 A  
HETATM   30  C   UNL     1     -12.817  12.633  71.219  1.00  0.00    -0.344 A  
HETATM   31  C   UNL     1     -12.387  14.812  70.367  1.00  0.00    -0.402 A  
HETATM   32  C   UNL     1     -13.850  14.542  72.296  1.00  0.00    -0.587 A  
HETATM   33  C   UNL     1     -13.208  15.363  71.368  1.00  0.00    -0.578 A  
ENDBRANCH  26  28
ENDBRANCH  25  26
ENDBRANCH   3  25
TORSDOF 9
ENDMDL
MODEL      122
REMARK 921   NORMALIZED FREE ENERGY PREDICTED BY IDOCK:   -5.61 KCAL/MOL
REMARK 922        TOTAL FREE ENERGY PREDICTED BY IDOCK:  -10.08 KCAL/MOL
REMARK 923 INTER-LIGAND FREE ENERGY PREDICTED BY IDOCK:   -8.39 KCAL/MOL
REMARK 924 INTRA-LIGAND FREE ENERGY PREDICTED BY IDOCK:   -1.69 KCAL/MOL
REMARK 927      BINDING AFFINITY PREDICTED BY RF-SCORE:    0.00 PKD
ROOT
HETATM    1  C   UNL     1     -11.164  11.988  67.710  1.00  0.00    -0.331 C  
HETATM    2  C   UNL     1      -9.754  11.446  67.423  1.00  0.00    -0.181 C  
HETATM    3  C   UNL     1      -9.529  10.783  66.248  1.00  0.00    -0.181 C  
ENDROOT
BRANCH   2   4
HETATM    4  N   UNL     1      -8.821  11.764  68.429  1.00  0.00    -0.173 N  
HETATM    5  C   UNL     1      -8.153  12.999  68.433  1.00  0.00    -0.131 C  
HETATM    6  O   UNL     1      -7.141  13.264  69.065  1.00  0.00    -0.103 OA 
BRANCH   4   7
HETATM    7  C   UNL     1      -8.133  10.682  69.166  1.00  0.00    -0.141 C  
BRANCH   7   8
HETATM    8  C   UNL     1      -9.068   9.730  69.889  1.00  0.00    -0.257 A  
HETATM    9  H2  UNL     1      -6.944   8.526  69.044  1.00  0.00     0.000 HD 
HETATM   10  C   UNL     1     -10.350   9.903  70.275  1.00  0.00    -0.281 A  
HETATM   11  N   UNL     1      -9.261   7.657  71.165  1.00  0.00    -0.146 NA 
HETATM   12  N   UNL     1     -11.045   9.169  71.219  1.00  0.00    -0.305 NA 
HETATM   13  H1  UNL     1      -7.076   7.033  69.981  1.00  0.00     0.000 HD 
HETATM   14  C   UNL     1     -11.027   7.433  72.896  1.00  0.00    -0.408 C  
HETATM   15  N   UNL     1      -7.440   7.951  69.724  1.00  0.00    -0.086 NA 
HETATM   16  C   UNL     1     -10.448   8.110  71.681  1.00  0.00    -0.228 A  
HETATM   17  C   UNL     1      -8.534   8.384  70.264  1.00  0.00    -0.126 A  
ENDBRANCH   7   8
ENDBRANCH   4   7
ENDBRANCH   2   4
BRANCH   3  18
HETATM   18  C   UNL     1     -10.593  10.884  65.068  1.00  0.00    -0.287 C  
BRANCH  18  19
HETATM   19  C   UNL     1     -10.151  11.671  63.774  1.00  0.00    -0.381 C  
BRANCH  19  20
HETATM   20  O   UNL     1     -11.167  12.565  63.180  1.00  0.00    -0.388 OA 
HETATM   21  O   UNL     1     -13.269  12.048  63.677  1.00  0.00    -0.737 OA 
HETATM   22  O   UNL     1     -12.551  14.339  63.261  1.00  0.00    -0.716 OA 
HETATM   23  P   UNL     1     -12.284  13.158  64.361  1.00  0.00    -0.381 P  
HETATM   24  O   UNL     1     -13.284  13.689  65.417  1.00  0.00    -0.678 OA 
ENDBRANCH  19  20
ENDBRANCH  18  19
ENDBRANCH   3  18
BRANCH   3  25
HETATM   25  S   UNL     1      -8.055   9.778  65.862  1.00  0.00    -0.117 SA 
BRANCH  25  26
HETATM   26  C   UNL     1      -8.450   8.054  65.466  1.00  0.00    -0.144 C  
HETATM   27  O   UNL     1      -8.219   7.594  64.353  1.00  0.00    -0.122 OA 
BRANCH  26  28
HETATM   28  C   UNL     1      -9.173   7.165  66.505  1.00  0.00    -0.199 A  
HETATM   29  C   UNL     1      -9.160   5.065  67.842  1.00  0.00    -0.126 A  
HETATM   30  C   UNL     1      -8.586   5.925  66.880  1.00  0.00    -0.111 A  
HETATM   31  C   UNL     1     -10.346   7.497  67.187  1.00  0.00    -0.384 A  
HETATM   32  C   UNL     1     -10.337   5.435  68.482  1.00  0.00    -0.219 A  
HETATM   33  C   UNL     1     -10.924   6.658  68.156  1.00  0.00    -0.323 A  
ENDBRANCH  26  28
ENDBRANCH  25  26
ENDBRANCH   3  25
TORSDOF 9
ENDMDL
MODEL      123
REMARK 921   NORMALIZED FREE ENERGY PREDICTED BY IDOCK:   -5.61 KCAL/MOL
REMARK 922        TOTAL FREE ENERGY PREDICTED BY IDOCK:  -10.07 KCAL/MOL
REMARK 923 INTER-LIGAND FREE ENERGY PREDICTED BY IDOCK:   -8.76 KCAL/MOL
REMARK 924 INTRA-LIGAND FREE ENERGY PREDICTED BY IDOCK:   -1.32 KCAL/MOL
REMARK 927      BINDING AFFINITY PREDICTED BY RF-SCORE:    0.00 PKD
ROOT
HETATM    1  C   UNL     1     -10.699  12.974  65.149  1.00  0.00    -0.324 C  
HETATM    2  C   UNL     1      -9.900  12.540  66.389  1.00  0.00    -0.253 C  
HETATM    3  C   UNL     1      -9.768  11.205  66.654  1.00  0.00    -0.196 C  
ENDROOT
BRANCH   2   4
HETATM    4  N   UNL     1      -9.337  13.621  67.094  1.00  0.00    -0.231 N  
HETATM    5  C   UNL     1      -7.957  13.679  67.350  1.00  0.00    -0.166 C  
HETATM    6  O   UNL     1      -7.411  14.395  68.176  1.00  0.00    -0.107 OA 
BRANCH   4   7
HETATM    7  C   UNL     1     -10.174  14.417  68.017  1.00  0.00    -0.228 C  
BRANCH   7   8
HETATM    8  C   UNL     1     -10.456  15.830  67.540  1.00  0.00    -0.288 A  
HETATM    9  H2  UNL     1     -11.126  15.505  70.014  1.00  0.00     0.000 HD 
HETATM   10  C   UNL     1     -10.461  16.336  66.288  1.00  0.00    -0.308 A  
HETATM   11  N   UNL     1     -10.724  18.170  68.181  1.00  0.00    -0.292 NA 
HETATM   12  N   UNL     1     -10.376  17.667  65.924  1.00  0.00    -0.562 NA 
HETATM   13  H1  UNL     1     -11.304  17.200  70.482  1.00  0.00     0.000 HD 
HETATM   14  C   UNL     1     -10.082  19.968  66.594  1.00  0.00    -0.607 C  
HETATM   15  N   UNL     1     -11.090  16.496  69.775  1.00  0.00    -0.309 NA 
HETATM   16  C   UNL     1     -10.441  18.535  66.890  1.00  0.00    -0.396 A  
HETATM   17  C   UNL     1     -10.771  16.862  68.575  1.00  0.00    -0.359 A  
ENDBRANCH   7   8
ENDBRANCH   4   7
ENDBRANCH   2   4
BRANCH   3  18
HETATM   18  C   UNL     1     -10.121  10.137  65.528  1.00  0.00    -0.338 C  
BRANCH  18  19
HETATM   19  C   UNL     1      -9.072   9.955  64.363  1.00  0.00    -0.254 C  
BRANCH  19  20
HETATM   20  O   UNL     1      -7.691  10.388  64.661  1.00  0.00    -0.140 OA 
HETATM   21  O   UNL     1      -6.561   9.041  66.018  1.00  0.00    -0.063 OA 
HETATM   22  O   UNL     1      -5.471  10.365  64.288  1.00  0.00    -0.122 OA 
HETATM   23  P   UNL     1      -6.537   9.129  64.387  1.00  0.00    -0.084 P  
HETATM   24  O   UNL     1      -5.505   8.002  64.142  1.00  0.00    -0.043 OA 
ENDBRANCH  19  20
ENDBRANCH  18  19
ENDBRANCH   3  18
BRANCH   3  25
HETATM   25  S   UNL     1      -9.171  10.488  68.224  1.00  0.00    -0.158 SA 
BRANCH  25  26
HETATM   26  C   UNL     1     -10.468   9.639  69.161  1.00  0.00    -0.214 C  
HETATM   27  O   UNL     1     -10.639   8.430  69.048  1.00  0.00    -0.218 OA 
BRANCH  26  28
HETATM   28  C   UNL     1     -11.441  10.449  70.048  1.00  0.00    -0.382 A  
HETATM   29  C   UNL     1     -12.931  10.483  72.042  1.00  0.00    -0.490 A  
HETATM   30  C   UNL     1     -12.054   9.812  71.161  1.00  0.00    -0.460 A  
HETATM   31  C   UNL     1     -11.737  11.807  69.904  1.00  0.00    -0.399 A  
HETATM   32  C   UNL     1     -13.205  11.831  71.848  1.00  0.00    -0.468 A  
HETATM   33  C   UNL     1     -12.599  12.493  70.779  1.00  0.00    -0.299 A  
ENDBRANCH  26  28
ENDBRANCH  25  26
ENDBRANCH   3  25
TORSDOF 9
ENDMDL
MODEL      124
REMARK 921   NORMALIZED FREE ENERGY PREDICTED BY IDOCK:   -5.61 KCAL/MOL
REMARK 922        TOTAL FREE ENERGY PREDICTED BY IDOCK:  -10.07 KCAL/MOL
REMARK 923 INTER-LIGAND FREE ENERGY PREDICTED BY IDOCK:   -8.56 KCAL/MOL
REMARK 924 INTRA-LIGAND FREE ENERGY PREDICTED BY IDOCK:   -1.50 KCAL/MOL
REMARK 927      BINDING AFFINITY PREDICTED BY RF-SCORE:    0.00 PKD
ROOT
HETATM    1  C   UNL     1     -12.388  13.809  69.343  1.00  0.00    -0.219 C  
HETATM    2  C   UNL     1     -11.440  13.167  68.316  1.00  0.00    -0.314 C  
HETATM    3  C   UNL     1     -10.771  12.025  68.658  1.00  0.00    -0.236 C  
ENDROOT
BRANCH   2   4
HETATM    4  N   UNL     1     -11.424  13.840  67.079  1.00  0.00    -0.329 N  
HETATM    5  C   UNL     1     -12.278  13.454  66.033  1.00  0.00    -0.437 C  
HETATM    6  O   UNL     1     -12.155  13.762  64.856  1.00  0.00    -0.366 OA 
BRANCH   4   7
HETATM    7  C   UNL     1     -10.213  14.575  66.654  1.00  0.00    -0.275 C  
BRANCH   7   8
HETATM    8  C   UNL     1      -9.940  15.838  67.450  1.00  0.00    -0.237 A  
HETATM    9  H2  UNL     1      -8.541  13.845  68.311  1.00  0.00     0.000 HD 
HETATM   10  C   UNL     1     -10.610  17.010  67.468  1.00  0.00    -0.310 A  
HETATM   11  N   UNL     1      -8.340  17.056  68.835  1.00  0.00    -0.233 NA 
HETATM   12  N   UNL     1     -10.146  18.231  67.924  1.00  0.00    -0.343 NA 
HETATM   13  H1  UNL     1      -7.373  14.728  69.301  1.00  0.00     0.000 HD 
HETATM   14  C   UNL     1      -8.316  19.538  68.802  1.00  0.00    -0.346 C  
HETATM   15  N   UNL     1      -8.182  14.726  68.680  1.00  0.00    -0.152 NA 
HETATM   16  C   UNL     1      -8.996  18.221  68.531  1.00  0.00    -0.312 A  
HETATM   17  C   UNL     1      -8.754  15.842  68.360  1.00  0.00    -0.177 A  
ENDBRANCH   7   8
ENDBRANCH   4   7
ENDBRANCH   2   4
BRANCH   3  18
HETATM   18  C   UNL     1     -11.230  11.194  69.937  1.00  0.00    -0.293 C  
BRANCH  18  19
HETATM   19  C   UNL     1     -10.481   9.832  70.210  1.00  0.00    -0.288 C  
BRANCH  19  20
HETATM   20  O   UNL     1     -10.550   9.321  71.594  1.00  0.00    -0.349 OA 
HETATM   21  O   UNL     1     -12.573   9.377  72.510  1.00  0.00    -0.285 OA 
HETATM   22  O   UNL     1     -10.920   7.686  73.098  1.00  0.00    -0.392 OA 
HETATM   23  P   UNL     1     -11.794   8.134  71.790  1.00  0.00    -0.346 P  
HETATM   24  O   UNL     1     -12.907   7.073  71.965  1.00  0.00    -0.270 OA 
ENDBRANCH  19  20
ENDBRANCH  18  19
ENDBRANCH   3  18
BRANCH   3  25
HETATM   25  S   UNL     1      -9.366  11.302  67.744  1.00  0.00    -0.167 SA 
BRANCH  25  26
HETATM   26  C   UNL     1      -9.878  10.157  66.436  1.00  0.00    -0.222 C  
HETATM   27  O   UNL     1     -10.388  10.570  65.401  1.00  0.00    -0.278 OA 
BRANCH  26  28
HETATM   28  C   UNL     1      -9.761   8.631  66.652  1.00  0.00    -0.315 A  
HETATM   29  C   UNL     1     -10.878   6.518  67.351  1.00  0.00    -0.449 A  
HETATM   30  C   UNL     1     -10.885   7.916  67.152  1.00  0.00    -0.187 A  
HETATM   31  C   UNL     1      -8.653   7.843  66.331  1.00  0.00    -0.156 A  
HETATM   32  C   UNL     1      -9.745   5.781  67.030  1.00  0.00    -0.155 A  
HETATM   33  C   UNL     1      -8.634   6.448  66.512  1.00  0.00    -0.125 A  
ENDBRANCH  26  28
ENDBRANCH  25  26
ENDBRANCH   3  25
TORSDOF 9
ENDMDL
MODEL      125
REMARK 921   NORMALIZED FREE ENERGY PREDICTED BY IDOCK:   -5.60 KCAL/MOL
REMARK 922        TOTAL FREE ENERGY PREDICTED BY IDOCK:  -10.06 KCAL/MOL
REMARK 923 INTER-LIGAND FREE ENERGY PREDICTED BY IDOCK:   -8.82 KCAL/MOL
REMARK 924 INTRA-LIGAND FREE ENERGY PREDICTED BY IDOCK:   -1.24 KCAL/MOL
REMARK 927      BINDING AFFINITY PREDICTED BY RF-SCORE:    0.00 PKD
ROOT
HETATM    1  C   UNL     1      -8.990   6.776  69.896  1.00  0.00    -0.144 C  
HETATM    2  C   UNL     1      -9.558   8.163  70.242  1.00  0.00    -0.171 C  
HETATM    3  C   UNL     1     -10.259   8.845  69.287  1.00  0.00    -0.209 C  
ENDROOT
BRANCH   2   4
HETATM    4  N   UNL     1      -9.317   8.545  71.576  1.00  0.00    -0.199 N  
HETATM    5  C   UNL     1      -8.033   8.446  72.138  1.00  0.00    -0.128 C  
HETATM    6  O   UNL     1      -7.770   8.470  73.331  1.00  0.00    -0.343 OA 
BRANCH   4   7
HETATM    7  C   UNL     1     -10.426   8.546  72.555  1.00  0.00    -0.233 C  
BRANCH   7   8
HETATM    8  C   UNL     1     -10.792   7.170  73.082  1.00  0.00    -0.373 A  
HETATM    9  H2  UNL     1     -12.352   7.904  71.158  1.00  0.00     0.000 HD 
HETATM   10  C   UNL     1     -10.381   6.534  74.200  1.00  0.00    -0.329 A  
HETATM   11  N   UNL     1     -11.830   5.018  72.581  1.00  0.00    -0.011 NA 
HETATM   12  N   UNL     1     -10.455   5.179  74.466  1.00  0.00    -0.316 NA 
HETATM   13  H1  UNL     1     -13.092   6.342  70.786  1.00  0.00     0.000 HD 
HETATM   14  C   UNL     1     -11.003   2.958  73.694  1.00  0.00    -0.318 C  
HETATM   15  N   UNL     1     -12.445   6.904  71.339  1.00  0.00    -0.372 NA 
HETATM   16  C   UNL     1     -11.119   4.458  73.611  1.00  0.00    -0.278 A  
HETATM   17  C   UNL     1     -11.741   6.347  72.271  1.00  0.00    -0.290 A  
ENDBRANCH   7   8
ENDBRANCH   4   7
ENDBRANCH   2   4
BRANCH   3  18
HETATM   18  C   UNL     1     -10.774   8.081  67.989  1.00  0.00    -0.112 C  
BRANCH  18  19
HETATM   19  C   UNL     1      -9.808   8.062  66.741  1.00  0.00    -0.257 C  
BRANCH  19  20
HETATM   20  O   UNL     1      -9.106   9.328  66.446  1.00  0.00    -0.144 OA 
HETATM   21  O   UNL     1      -8.825   9.757  64.285  1.00  0.00    -0.196 OA 
HETATM   22  O   UNL     1      -9.081  11.522  65.944  1.00  0.00    -0.209 OA 
HETATM   23  P   UNL     1      -9.971  10.305  65.311  1.00  0.00    -0.240 P  
HETATM   24  O   UNL     1     -10.746  11.180  64.296  1.00  0.00    -0.358 OA 
ENDBRANCH  19  20
ENDBRANCH  18  19
ENDBRANCH   3  18
BRANCH   3  25
HETATM   25  S   UNL     1     -10.716  10.611  69.364  1.00  0.00    -0.247 SA 
BRANCH  25  26
HETATM   26  C   UNL     1     -12.220  10.919  70.326  1.00  0.00    -0.348 C  
HETATM   27  O   UNL     1     -13.038  10.028  70.519  1.00  0.00    -0.234 OA 
BRANCH  26  28
HETATM   28  C   UNL     1     -12.535  12.344  70.838  1.00  0.00    -0.367 A  
HETATM   29  C   UNL     1     -13.672  13.758  72.542  1.00  0.00    -0.667 A  
HETATM   30  C   UNL     1     -13.357  12.498  71.988  1.00  0.00    -0.528 A  
HETATM   31  C   UNL     1     -12.023  13.532  70.311  1.00  0.00    -0.386 A  
HETATM   32  C   UNL     1     -13.149  14.912  71.972  1.00  0.00    -0.426 A  
HETATM   33  C   UNL     1     -12.317  14.794  70.858  1.00  0.00    -0.388 A  
ENDBRANCH  26  28
ENDBRANCH  25  26
ENDBRANCH   3  25
TORSDOF 9
ENDMDL
MODEL      126
REMARK 921   NORMALIZED FREE ENERGY PREDICTED BY IDOCK:   -5.59 KCAL/MOL
REMARK 922        TOTAL FREE ENERGY PREDICTED BY IDOCK:  -10.04 KCAL/MOL
REMARK 923 INTER-LIGAND FREE ENERGY PREDICTED BY IDOCK:   -9.45 KCAL/MOL
REMARK 924 INTRA-LIGAND FREE ENERGY PREDICTED BY IDOCK:   -0.60 KCAL/MOL
REMARK 927      BINDING AFFINITY PREDICTED BY RF-SCORE:    0.00 PKD
ROOT
HETATM    1  C   UNL     1      -8.140   9.947  66.597  1.00  0.00    -0.117 C  
HETATM    2  C   UNL     1      -9.265  10.482  67.499  1.00  0.00    -0.142 C  
HETATM    3  C   UNL     1     -10.364  11.050  66.917  1.00  0.00    -0.235 C  
ENDROOT
BRANCH   2   4
HETATM    4  N   UNL     1      -9.031  10.259  68.870  1.00  0.00    -0.154 N  
HETATM    5  C   UNL     1      -7.780  10.534  69.445  1.00  0.00    -0.155 C  
HETATM    6  O   UNL     1      -7.381  10.121  70.524  1.00  0.00    -0.292 OA 
BRANCH   4   7
HETATM    7  C   UNL     1      -9.852   9.275  69.608  1.00  0.00    -0.186 C  
BRANCH   7   8
HETATM    8  C   UNL     1      -9.580   7.830  69.232  1.00  0.00    -0.159 A  
HETATM    9  H2  UNL     1     -11.497   8.025  70.952  1.00  0.00     0.000 HD 
HETATM   10  C   UNL     1      -8.541   7.293  68.556  1.00  0.00    -0.124 A  
HETATM   11  N   UNL     1     -10.499   5.576  69.047  1.00  0.00    -0.236 NA 
HETATM   12  N   UNL     1      -8.496   6.057  67.938  1.00  0.00    -0.115 NA 
HETATM   13  H1  UNL     1     -12.172   6.398  70.806  1.00  0.00     0.000 HD 
HETATM   14  C   UNL     1      -9.649   4.035  67.295  1.00  0.00    -0.229 C  
HETATM   15  N   UNL     1     -11.483   7.097  70.529  1.00  0.00    -0.296 NA 
HETATM   16  C   UNL     1      -9.508   5.268  68.150  1.00  0.00    -0.123 A  
HETATM   17  C   UNL     1     -10.590   6.805  69.639  1.00  0.00    -0.233 A  
ENDBRANCH   7   8
ENDBRANCH   4   7
ENDBRANCH   2   4
BRANCH   3  18
HETATM   18  C   UNL     1     -10.631  10.840  65.361  1.00  0.00    -0.224 C  
BRANCH  18  19
HETATM   19  C   UNL     1     -10.096  11.961  64.388  1.00  0.00    -0.279 C  
BRANCH  19  20
HETATM   20  O   UNL     1     -11.117  12.656  63.577  1.00  0.00    -0.448 OA 
HETATM   21  O   UNL     1     -13.217  12.105  64.048  1.00  0.00    -0.728 OA 
HETATM   22  O   UNL     1     -12.598  14.317  63.234  1.00  0.00    -0.716 OA 
HETATM   23  P   UNL     1     -12.342  13.387  64.556  1.00  0.00    -0.303 P  
HETATM   24  O   UNL     1     -13.437  14.042  65.431  1.00  0.00    -0.679 OA 
ENDBRANCH  19  20
ENDBRANCH  18  19
ENDBRANCH   3  18
BRANCH   3  25
HETATM   25  S   UNL     1     -11.632  12.039  67.780  1.00  0.00    -0.312 SA 
BRANCH  25  26
HETATM   26  C   UNL     1     -10.999  13.615  68.414  1.00  0.00    -0.262 C  
HETATM   27  O   UNL     1     -10.082  14.199  67.848  1.00  0.00    -0.227 OA 
BRANCH  26  28
HETATM   28  C   UNL     1     -11.550  14.197  69.736  1.00  0.00    -0.351 A  
HETATM   29  C   UNL     1     -11.727  16.164  71.252  1.00  0.00    -0.480 A  
HETATM   30  C   UNL     1     -11.242  15.541  70.080  1.00  0.00    -0.331 A  
HETATM   31  C   UNL     1     -12.406  13.538  70.623  1.00  0.00    -0.432 A  
HETATM   32  C   UNL     1     -12.563  15.461  72.110  1.00  0.00    -0.449 A  
HETATM   33  C   UNL     1     -12.907  14.147  71.788  1.00  0.00    -0.428 A  
ENDBRANCH  26  28
ENDBRANCH  25  26
ENDBRANCH   3  25
TORSDOF 9
ENDMDL
MODEL      127
REMARK 921   NORMALIZED FREE ENERGY PREDICTED BY IDOCK:   -5.59 KCAL/MOL
REMARK 922        TOTAL FREE ENERGY PREDICTED BY IDOCK:  -10.03 KCAL/MOL
REMARK 923 INTER-LIGAND FREE ENERGY PREDICTED BY IDOCK:   -8.42 KCAL/MOL
REMARK 924 INTRA-LIGAND FREE ENERGY PREDICTED BY IDOCK:   -1.61 KCAL/MOL
REMARK 927      BINDING AFFINITY PREDICTED BY RF-SCORE:    0.00 PKD
ROOT
HETATM    1  C   UNL     1     -10.841  12.023  69.038  1.00  0.00    -0.223 C  
HETATM    2  C   UNL     1     -10.272  13.303  68.403  1.00  0.00    -0.249 C  
HETATM    3  C   UNL     1      -9.059  13.245  67.775  1.00  0.00    -0.202 C  
ENDROOT
BRANCH   2   4
HETATM    4  N   UNL     1     -11.138  14.409  68.510  1.00  0.00    -0.243 N  
HETATM    5  C   UNL     1     -11.591  14.856  69.762  1.00  0.00    -0.303 C  
HETATM    6  O   UNL     1     -12.544  15.596  69.957  1.00  0.00    -0.334 OA 
BRANCH   4   7
HETATM    7  C   UNL     1     -11.997  14.786  67.367  1.00  0.00    -0.209 C  
BRANCH   7   8
HETATM    8  C   UNL     1     -11.731  13.994  66.100  1.00  0.00    -0.395 A  
HETATM    9  H2  UNL     1     -11.091  16.481  65.824  1.00  0.00     0.000 HD 
HETATM   10  C   UNL     1     -12.123  12.747  65.761  1.00  0.00    -0.448 A  
HETATM   11  N   UNL     1     -10.416  13.832  64.049  1.00  0.00    -0.022 NA 
HETATM   12  N   UNL     1     -11.584  11.940  64.775  1.00  0.00    -0.277 NA 
HETATM   13  H1  UNL     1     -10.126  16.361  64.348  1.00  0.00     0.000 HD 
HETATM   14  C   UNL     1      -9.883  11.603  63.095  1.00  0.00    -0.407 C  
HETATM   15  N   UNL     1     -10.692  15.919  65.073  1.00  0.00    -0.543 NA 
HETATM   16  C   UNL     1     -10.699  12.492  63.997  1.00  0.00    -0.415 A  
HETATM   17  C   UNL     1     -10.902  14.642  65.038  1.00  0.00    -0.417 A  
ENDBRANCH   7   8
ENDBRANCH   4   7
ENDBRANCH   2   4
BRANCH   3  18
HETATM   18  C   UNL     1      -8.430  11.831  67.401  1.00  0.00    -0.158 C  
BRANCH  18  19
HETATM   19  C   UNL     1      -7.067  11.450  68.099  1.00  0.00    -0.075 C  
BRANCH  19  20
HETATM   20  O   UNL     1      -6.952  10.058  68.580  1.00  0.00    -0.067 OA 
HETATM   21  O   UNL     1      -8.479   9.459  70.077  1.00  0.00    -0.150 OA 
HETATM   22  O   UNL     1      -7.496   7.874  68.510  1.00  0.00    -0.091 OA 
HETATM   23  P   UNL     1      -8.450   9.201  68.464  1.00  0.00    -0.129 P  
HETATM   24  O   UNL     1      -9.791   8.434  68.361  1.00  0.00    -0.166 OA 
ENDBRANCH  19  20
ENDBRANCH  18  19
ENDBRANCH   3  18
BRANCH   3  25
HETATM   25  S   UNL     1      -8.056  14.683  67.265  1.00  0.00    -0.188 SA 
BRANCH  25  26
HETATM   26  C   UNL     1      -8.272  16.123  68.345  1.00  0.00    -0.172 C  
HETATM   27  O   UNL     1      -8.025  16.054  69.543  1.00  0.00    -0.207 OA 
BRANCH  26  28
HETATM   28  C   UNL     1      -8.862  17.435  67.779  1.00  0.00    -0.232 A  
HETATM   29  C   UNL     1      -8.509  19.465  66.381  1.00  0.00    -0.361 A  
HETATM   30  C   UNL     1      -8.045  18.265  66.964  1.00  0.00    -0.241 A  
HETATM   31  C   UNL     1     -10.181  17.870  67.933  1.00  0.00    -0.375 A  
HETATM   32  C   UNL     1      -9.827  19.861  66.577  1.00  0.00    -0.567 A  
HETATM   33  C   UNL     1     -10.663  19.055  67.350  1.00  0.00    -0.559 A  
ENDBRANCH  26  28
ENDBRANCH  25  26
ENDBRANCH   3  25
TORSDOF 9
ENDMDL
MODEL      128
REMARK 921   NORMALIZED FREE ENERGY PREDICTED BY IDOCK:   -5.57 KCAL/MOL
REMARK 922        TOTAL FREE ENERGY PREDICTED BY IDOCK:  -10.02 KCAL/MOL
REMARK 923 INTER-LIGAND FREE ENERGY PREDICTED BY IDOCK:   -8.56 KCAL/MOL
REMARK 924 INTRA-LIGAND FREE ENERGY PREDICTED BY IDOCK:   -1.45 KCAL/MOL
REMARK 927      BINDING AFFINITY PREDICTED BY RF-SCORE:    0.00 PKD
ROOT
HETATM    1  C   UNL     1      -8.954  10.637  69.037  1.00  0.00    -0.165 C  
HETATM    2  C   UNL     1      -9.407  11.756  68.085  1.00  0.00    -0.190 C  
HETATM    3  C   UNL     1      -8.527  12.755  67.776  1.00  0.00    -0.177 C  
ENDROOT
BRANCH   2   4
HETATM    4  N   UNL     1     -10.712  11.569  67.589  1.00  0.00    -0.201 N  
HETATM    5  C   UNL     1     -11.057  11.971  66.289  1.00  0.00    -0.317 C  
HETATM    6  O   UNL     1     -12.193  12.123  65.863  1.00  0.00    -0.604 OA 
BRANCH   4   7
HETATM    7  C   UNL     1     -11.849  11.456  68.528  1.00  0.00    -0.294 C  
BRANCH   7   8
HETATM    8  C   UNL     1     -12.109  12.710  69.343  1.00  0.00    -0.236 A  
HETATM    9  H2  UNL     1     -12.764  10.574  70.639  1.00  0.00     0.000 HD 
HETATM   10  C   UNL     1     -12.115  14.005  68.960  1.00  0.00    -0.323 A  
HETATM   11  N   UNL     1     -12.330  13.664  71.579  1.00  0.00    -0.235 NA 
HETATM   12  N   UNL     1     -12.009  15.118  69.774  1.00  0.00    -0.318 NA 
HETATM   13  H1  UNL     1     -12.908  11.262  72.261  1.00  0.00     0.000 HD 
HETATM   14  C   UNL     1     -11.669  16.023  71.986  1.00  0.00    -0.588 C  
HETATM   15  N   UNL     1     -12.712  11.377  71.266  1.00  0.00    -0.415 NA 
HETATM   16  C   UNL     1     -12.052  14.901  71.056  1.00  0.00    -0.321 A  
HETATM   17  C   UNL     1     -12.397  12.542  70.800  1.00  0.00    -0.286 A  
ENDBRANCH   7   8
ENDBRANCH   4   7
ENDBRANCH   2   4
BRANCH   3  18
HETATM   18  C   UNL     1      -6.979  12.575  68.104  1.00  0.00    -0.089 C  
BRANCH  18  19
HETATM   19  C   UNL     1      -6.093  11.873  67.002  1.00  0.00    -0.149 C  
BRANCH  19  20
HETATM   20  O   UNL     1      -6.390  10.450  66.742  1.00  0.00    -0.067 OA 
HETATM   21  O   UNL     1      -8.052  10.088  65.313  1.00  0.00    -0.133 OA 
HETATM   22  O   UNL     1      -6.173   8.555  65.545  1.00  0.00    -0.048 OA 
HETATM   23  P   UNL     1      -6.440  10.091  65.050  1.00  0.00    -0.119 P  
HETATM   24  O   UNL     1      -6.484   9.771  63.536  1.00  0.00    -0.105 OA 
ENDBRANCH  19  20
ENDBRANCH  18  19
ENDBRANCH   3  18
BRANCH   3  25
HETATM   25  S   UNL     1      -8.954  14.332  66.961  1.00  0.00    -0.231 SA 
BRANCH  25  26
HETATM   26  C   UNL     1      -8.997  15.738  68.103  1.00  0.00    -0.180 C  
HETATM   27  O   UNL     1      -8.633  15.616  69.267  1.00  0.00    -0.236 OA 
BRANCH  26  28
HETATM   28  C   UNL     1      -9.585  17.093  67.644  1.00  0.00    -0.254 A  
HETATM   29  C   UNL     1     -10.208  19.425  68.253  1.00  0.00    -0.535 A  
HETATM   30  C   UNL     1      -9.710  18.147  68.590  1.00  0.00    -0.367 A  
HETATM   31  C   UNL     1      -9.955  17.421  66.337  1.00  0.00    -0.322 A  
HETATM   32  C   UNL     1     -10.576  19.697  66.941  1.00  0.00    -0.603 A  
HETATM   33  C   UNL     1     -10.441  18.692  65.982  1.00  0.00    -0.456 A  
ENDBRANCH  26  28
ENDBRANCH  25  26
ENDBRANCH   3  25
TORSDOF 9
ENDMDL
MODEL      129
REMARK 921   NORMALIZED FREE ENERGY PREDICTED BY IDOCK:   -5.56 KCAL/MOL
REMARK 922        TOTAL FREE ENERGY PREDICTED BY IDOCK:  -10.00 KCAL/MOL
REMARK 923 INTER-LIGAND FREE ENERGY PREDICTED BY IDOCK:   -8.24 KCAL/MOL
REMARK 924 INTRA-LIGAND FREE ENERGY PREDICTED BY IDOCK:   -1.76 KCAL/MOL
REMARK 927      BINDING AFFINITY PREDICTED BY RF-SCORE:    0.00 PKD
ROOT
HETATM    1  C   UNL     1      -7.211   7.418  68.699  1.00  0.00    -0.090 C  
HETATM    2  C   UNL     1      -7.927   8.740  69.023  1.00  0.00    -0.111 C  
HETATM    3  C   UNL     1      -8.662   9.349  68.044  1.00  0.00    -0.124 C  
ENDROOT
BRANCH   2   4
HETATM    4  N   UNL     1      -7.769   9.143  70.363  1.00  0.00    -0.110 N  
HETATM    5  C   UNL     1      -6.607   9.808  70.788  1.00  0.00    -0.088 C  
HETATM    6  O   UNL     1      -6.241   9.942  71.946  1.00  0.00    -0.297 OA 
BRANCH   4   7
HETATM    7  C   UNL     1      -8.516   8.450  71.435  1.00  0.00    -0.155 C  
BRANCH   7   8
HETATM    8  C   UNL     1     -10.021   8.440  71.238  1.00  0.00    -0.261 A  
HETATM    9  H2  UNL     1      -8.907   6.348  70.209  1.00  0.00     0.000 HD 
HETATM   10  C   UNL     1     -10.924   9.427  71.421  1.00  0.00    -0.373 A  
HETATM   11  N   UNL     1     -12.011   7.068  70.897  1.00  0.00    -0.359 NA 
HETATM   12  N   UNL     1     -12.292   9.291  71.569  1.00  0.00    -0.339 NA 
HETATM   13  H1  UNL     1     -10.347   5.349  69.977  1.00  0.00     0.000 HD 
HETATM   14  C   UNL     1     -14.203   7.830  71.779  1.00  0.00    -0.558 C  
HETATM   15  N   UNL     1      -9.916   6.220  70.288  1.00  0.00    -0.171 NA 
HETATM   16  C   UNL     1     -12.779   8.101  71.369  1.00  0.00    -0.268 A  
HETATM   17  C   UNL     1     -10.652   7.163  70.782  1.00  0.00    -0.222 A  
ENDBRANCH   7   8
ENDBRANCH   4   7
ENDBRANCH   2   4
BRANCH   3  18
HETATM   18  C   UNL     1      -9.055   8.539  66.732  1.00  0.00    -0.186 C  
BRANCH  18  19
HETATM   19  C   UNL     1     -10.273   7.542  66.847  1.00  0.00    -0.289 C  
BRANCH  19  20
HETATM   20  O   UNL     1     -10.205   6.335  65.997  1.00  0.00     0.126 OA 
HETATM   21  O   UNL     1      -8.361   5.121  66.245  1.00  0.00    -0.111 OA 
HETATM   22  O   UNL     1     -10.503   4.132  65.637  1.00  0.00    -0.167 OA 
HETATM   23  P   UNL     1      -9.838   4.912  66.911  1.00  0.00    -0.223 P  
HETATM   24  O   UNL     1      -9.510   3.640  67.729  1.00  0.00    -0.189 OA 
ENDBRANCH  19  20
ENDBRANCH  18  19
ENDBRANCH   3  18
BRANCH   3  25
HETATM   25  S   UNL     1      -9.295  11.061  68.101  1.00  0.00    -0.179 SA 
BRANCH  25  26
HETATM   26  C   UNL     1     -10.981  11.220  67.457  1.00  0.00    -0.265 C  
HETATM   27  O   UNL     1     -11.949  10.889  68.133  1.00  0.00    -0.581 OA 
BRANCH  26  28
HETATM   28  C   UNL     1     -11.215  11.690  66.002  1.00  0.00    -0.299 A  
HETATM   29  C   UNL     1     -12.370  13.274  64.468  1.00  0.00    -0.428 A  
HETATM   30  C   UNL     1     -12.119  12.760  65.759  1.00  0.00    -0.505 A  
HETATM   31  C   UNL     1     -10.554  11.203  64.871  1.00  0.00    -0.356 A  
HETATM   32  C   UNL     1     -11.698  12.744  63.373  1.00  0.00    -0.556 A  
HETATM   33  C   UNL     1     -10.784  11.711  63.580  1.00  0.00    -0.500 A  
ENDBRANCH  26  28
ENDBRANCH  25  26
ENDBRANCH   3  25
TORSDOF 9
ENDMDL
MODEL      130
REMARK 921   NORMALIZED FREE ENERGY PREDICTED BY IDOCK:   -5.56 KCAL/MOL
REMARK 922        TOTAL FREE ENERGY PREDICTED BY IDOCK:   -9.99 KCAL/MOL
REMARK 923 INTER-LIGAND FREE ENERGY PREDICTED BY IDOCK:   -8.61 KCAL/MOL
REMARK 924 INTRA-LIGAND FREE ENERGY PREDICTED BY IDOCK:   -1.39 KCAL/MOL
REMARK 927      BINDING AFFINITY PREDICTED BY RF-SCORE:    0.00 PKD
ROOT
HETATM    1  C   UNL     1     -11.935  12.738  68.965  1.00  0.00    -0.288 C  
HETATM    2  C   UNL     1     -10.877  13.695  68.390  1.00  0.00    -0.256 C  
HETATM    3  C   UNL     1     -10.105  13.273  67.344  1.00  0.00    -0.233 C  
ENDROOT
BRANCH   2   4
HETATM    4  N   UNL     1     -10.878  14.960  69.010  1.00  0.00    -0.236 N  
HETATM    5  C   UNL     1     -11.020  15.086  70.401  1.00  0.00    -0.190 C  
HETATM    6  O   UNL     1     -11.319  16.107  71.002  1.00  0.00    -0.387 OA 
BRANCH   4   7
HETATM    7  C   UNL     1     -11.258  16.161  68.235  1.00  0.00    -0.343 C  
BRANCH   7   8
HETATM    8  C   UNL     1     -10.087  17.041  67.837  1.00  0.00    -0.306 A  
HETATM    9  H2  UNL     1     -11.345  16.132  65.772  1.00  0.00     0.000 HD 
HETATM   10  C   UNL     1      -9.069  17.516  68.585  1.00  0.00    -0.263 A  
HETATM   11  N   UNL     1      -9.143  18.508  66.129  1.00  0.00    -0.493 NA 
HETATM   12  N   UNL     1      -8.233  18.576  68.283  1.00  0.00    -0.305 NA 
HETATM   13  H1  UNL     1     -10.672  17.205  64.538  1.00  0.00     0.000 HD 
HETATM   14  C   UNL     1      -7.671  20.394  66.796  1.00  0.00    -0.311 C  
HETATM   15  N   UNL     1     -10.726  16.899  65.510  1.00  0.00    -0.465 NA 
HETATM   16  C   UNL     1      -8.347  19.079  67.089  1.00  0.00    -0.278 A  
HETATM   17  C   UNL     1     -10.008  17.488  66.412  1.00  0.00    -0.325 A  
ENDBRANCH   7   8
ENDBRANCH   4   7
ENDBRANCH   2   4
BRANCH   3  18
HETATM   18  C   UNL     1     -10.530  11.978  66.521  1.00  0.00    -0.253 C  
BRANCH  18  19
HETATM   19  C   UNL     1     -10.116  11.931  64.999  1.00  0.00    -0.264 C  
BRANCH  19  20
HETATM   20  O   UNL     1     -11.074  12.532  64.048  1.00  0.00    -0.337 OA 
HETATM   21  O   UNL     1     -13.197  11.973  64.385  1.00  0.00    -0.669 OA 
HETATM   22  O   UNL     1     -12.547  14.123  63.441  1.00  0.00    -0.818 OA 
HETATM   23  P   UNL     1     -12.391  13.314  64.854  1.00  0.00    -0.404 P  
HETATM   24  O   UNL     1     -13.568  14.014  65.574  1.00  0.00    -0.596 OA 
ENDBRANCH  19  20
ENDBRANCH  18  19
ENDBRANCH   3  18
BRANCH   3  25
HETATM   25  S   UNL     1      -8.590  14.095  66.743  1.00  0.00     0.029 SA 
BRANCH  25  26
HETATM   26  C   UNL     1      -7.070  13.359  67.400  1.00  0.00    -0.094 C  
HETATM   27  O   UNL     1      -6.406  12.578  66.729  1.00  0.00    -0.111 OA 
BRANCH  26  28
HETATM   28  C   UNL     1      -6.641  13.639  68.859  1.00  0.00    -0.105 A  
HETATM   29  C   UNL     1      -5.839  12.711  71.026  1.00  0.00     0.149 A  
HETATM   30  C   UNL     1      -6.272  12.547  69.692  1.00  0.00    -0.126 A  
HETATM   31  C   UNL     1      -6.507  14.901  69.443  1.00  0.00    -0.131 A  
HETATM   32  C   UNL     1      -5.737  13.988  71.565  1.00  0.00    -0.226 A  
HETATM   33  C   UNL     1      -6.066  15.083  70.766  1.00  0.00     0.029 A  
ENDBRANCH  26  28
ENDBRANCH  25  26
ENDBRANCH   3  25
TORSDOF 9
ENDMDL
MODEL      131
REMARK 921   NORMALIZED FREE ENERGY PREDICTED BY IDOCK:   -5.54 KCAL/MOL
REMARK 922        TOTAL FREE ENERGY PREDICTED BY IDOCK:   -9.96 KCAL/MOL
REMARK 923 INTER-LIGAND FREE ENERGY PREDICTED BY IDOCK:   -8.25 KCAL/MOL
REMARK 924 INTRA-LIGAND FREE ENERGY PREDICTED BY IDOCK:   -1.71 KCAL/MOL
REMARK 927      BINDING AFFINITY PREDICTED BY RF-SCORE:    0.00 PKD
ROOT
HETATM    1  C   UNL     1      -7.275  10.941  69.091  1.00  0.00    -0.118 C  
HETATM    2  C   UNL     1      -8.405  10.560  68.121  1.00  0.00    -0.119 C  
HETATM    3  C   UNL     1      -8.869  11.503  67.245  1.00  0.00    -0.160 C  
ENDROOT
BRANCH   2   4
HETATM    4  N   UNL     1      -8.799   9.212  68.228  1.00  0.00    -0.129 N  
HETATM    5  C   UNL     1      -8.119   8.202  67.528  1.00  0.00    -0.123 C  
HETATM    6  O   UNL     1      -8.535   7.072  67.318  1.00  0.00    -0.120 OA 
BRANCH   4   7
HETATM    7  C   UNL     1     -10.187   8.877  68.612  1.00  0.00    -0.200 C  
BRANCH   7   8
HETATM    8  C   UNL     1     -10.351   8.483  70.069  1.00  0.00    -0.213 A  
HETATM    9  H2  UNL     1     -11.465   6.773  68.484  1.00  0.00     0.000 HD 
HETATM   10  C   UNL     1     -10.119   9.198  71.190  1.00  0.00    -0.314 A  
HETATM   11  N   UNL     1     -10.688   6.651  71.648  1.00  0.00    -0.225 NA 
HETATM   12  N   UNL     1      -9.945   8.710  72.472  1.00  0.00    -0.251 NA 
HETATM   13  H1  UNL     1     -11.694   5.442  69.624  1.00  0.00     0.000 HD 
HETATM   14  C   UNL     1      -9.735   6.801  73.935  1.00  0.00    -0.286 C  
HETATM   15  N   UNL     1     -11.368   6.387  69.424  1.00  0.00    -0.402 NA 
HETATM   16  C   UNL     1     -10.169   7.440  72.642  1.00  0.00    -0.227 A  
HETATM   17  C   UNL     1     -10.830   7.097  70.362  1.00  0.00    -0.246 A  
ENDBRANCH   7   8
ENDBRANCH   4   7
ENDBRANCH   2   4
BRANCH   3  18
HETATM   18  C   UNL     1      -8.026  12.831  66.996  1.00  0.00    -0.045 C  
BRANCH  18  19
HETATM   19  C   UNL     1      -8.400  14.089  67.872  1.00  0.00    -0.168 C  
BRANCH  19  20
HETATM   20  O   UNL     1      -9.291  15.081  67.235  1.00  0.00    -0.194 OA 
HETATM   21  O   UNL     1      -8.888  17.192  67.795  1.00  0.00    -0.219 OA 
HETATM   22  O   UNL     1      -9.784  16.567  65.618  1.00  0.00    -0.513 OA 
HETATM   23  P   UNL     1      -8.407  16.359  66.475  1.00  0.00    -0.329 P  
HETATM   24  O   UNL     1      -7.617  17.502  65.794  1.00  0.00    -0.514 OA 
ENDBRANCH  19  20
ENDBRANCH  18  19
ENDBRANCH   3  18
BRANCH   3  25
HETATM   25  S   UNL     1     -10.403  11.378  66.264  1.00  0.00    -0.251 SA 
BRANCH  25  26
HETATM   26  C   UNL     1     -11.691  12.534  66.802  1.00  0.00    -0.384 C  
HETATM   27  O   UNL     1     -12.316  13.205  65.988  1.00  0.00    -0.422 OA 
BRANCH  26  28
HETATM   28  C   UNL     1     -11.954  12.756  68.309  1.00  0.00    -0.276 A  
HETATM   29  C   UNL     1     -12.353  14.380  70.154  1.00  0.00    -0.406 A  
HETATM   30  C   UNL     1     -12.083  14.084  68.799  1.00  0.00    -0.338 A  
HETATM   31  C   UNL     1     -12.152  11.751  69.260  1.00  0.00    -0.292 A  
HETATM   32  C   UNL     1     -12.528  13.344  71.063  1.00  0.00    -0.437 A  
HETATM   33  C   UNL     1     -12.433  12.028  70.610  1.00  0.00    -0.335 A  
ENDBRANCH  26  28
ENDBRANCH  25  26
ENDBRANCH   3  25
TORSDOF 9
ENDMDL
MODEL      132
REMARK 921   NORMALIZED FREE ENERGY PREDICTED BY IDOCK:   -5.53 KCAL/MOL
REMARK 922        TOTAL FREE ENERGY PREDICTED BY IDOCK:   -9.95 KCAL/MOL
REMARK 923 INTER-LIGAND FREE ENERGY PREDICTED BY IDOCK:   -8.85 KCAL/MOL
REMARK 924 INTRA-LIGAND FREE ENERGY PREDICTED BY IDOCK:   -1.10 KCAL/MOL
REMARK 927      BINDING AFFINITY PREDICTED BY RF-SCORE:    0.00 PKD
ROOT
HETATM    1  C   UNL     1     -12.090  12.195  68.038  1.00  0.00    -0.043 C  
HETATM    2  C   UNL     1     -11.210  12.770  66.915  1.00  0.00    -0.296 C  
HETATM    3  C   UNL     1     -10.273  13.714  67.230  1.00  0.00    -0.246 C  
ENDROOT
BRANCH   2   4
HETATM    4  N   UNL     1     -11.458  12.183  65.659  1.00  0.00    -0.359 N  
HETATM    5  C   UNL     1     -12.523  12.619  64.854  1.00  0.00    -0.494 C  
HETATM    6  O   UNL     1     -13.001  12.011  63.907  1.00  0.00    -0.669 OA 
BRANCH   4   7
HETATM    7  C   UNL     1     -10.991  10.808  65.382  1.00  0.00     0.110 C  
BRANCH   7   8
HETATM    8  C   UNL     1     -10.158  10.198  66.494  1.00  0.00    -0.296 A  
HETATM    9  H2  UNL     1      -8.684  11.397  64.743  1.00  0.00     0.000 HD 
HETATM   10  C   UNL     1     -10.510   9.319  67.456  1.00  0.00    -0.274 A  
HETATM   11  N   UNL     1      -8.067  10.301  67.750  1.00  0.00    -0.103 NA 
HETATM   12  N   UNL     1      -9.839   9.059  68.637  1.00  0.00    -0.161 NA 
HETATM   13  H1  UNL     1      -7.175  11.485  65.659  1.00  0.00     0.000 HD 
HETATM   14  C   UNL     1      -8.020   9.596  70.131  1.00  0.00    -0.189 C  
HETATM   15  N   UNL     1      -8.154  11.206  65.593  1.00  0.00     0.004 NA 
HETATM   16  C   UNL     1      -8.671   9.614  68.772  1.00  0.00    -0.126 A  
HETATM   17  C   UNL     1      -8.723  10.607  66.590  1.00  0.00    -0.140 A  
ENDBRANCH   7   8
ENDBRANCH   4   7
ENDBRANCH   2   4
BRANCH   3  18
HETATM   18  C   UNL     1      -9.864  13.945  68.751  1.00  0.00    -0.117 C  
BRANCH  18  19
HETATM   19  C   UNL     1     -10.451  15.227  69.462  1.00  0.00    -0.260 C  
BRANCH  19  20
HETATM   20  O   UNL     1     -11.863  15.142  69.887  1.00  0.00    -0.288 OA 
HETATM   21  O   UNL     1     -12.303  13.524  71.344  1.00  0.00    -0.305 OA 
HETATM   22  O   UNL     1     -13.550  15.616  71.301  1.00  0.00    -0.546 OA 
HETATM   23  P   UNL     1     -12.025  15.111  71.610  1.00  0.00    -0.434 P  
HETATM   24  O   UNL     1     -12.171  15.084  73.150  1.00  0.00    -0.365 OA 
ENDBRANCH  19  20
ENDBRANCH  18  19
ENDBRANCH   3  18
BRANCH   3  25
HETATM   25  S   UNL     1      -9.377  14.762  66.033  1.00  0.00    -0.128 SA 
BRANCH  25  26
HETATM   26  C   UNL     1     -10.037  16.446  65.922  1.00  0.00    -0.347 C  
HETATM   27  O   UNL     1     -10.864  16.743  65.068  1.00  0.00    -0.653 OA 
BRANCH  26  28
HETATM   28  C   UNL     1      -9.492  17.556  66.850  1.00  0.00    -0.278 A  
HETATM   29  C   UNL     1      -9.919  19.711  68.021  1.00  0.00    -0.541 A  
HETATM   30  C   UNL     1     -10.322  18.668  67.159  1.00  0.00    -0.442 A  
HETATM   31  C   UNL     1      -8.252  17.545  67.494  1.00  0.00    -0.213 A  
HETATM   32  C   UNL     1      -8.668  19.661  68.625  1.00  0.00    -0.317 A  
HETATM   33  C   UNL     1      -7.839  18.570  68.364  1.00  0.00    -0.332 A  
ENDBRANCH  26  28
ENDBRANCH  25  26
ENDBRANCH   3  25
TORSDOF 9
ENDMDL
MODEL      133
REMARK 921   NORMALIZED FREE ENERGY PREDICTED BY IDOCK:   -5.53 KCAL/MOL
REMARK 922        TOTAL FREE ENERGY PREDICTED BY IDOCK:   -9.94 KCAL/MOL
REMARK 923 INTER-LIGAND FREE ENERGY PREDICTED BY IDOCK:   -8.34 KCAL/MOL
REMARK 924 INTRA-LIGAND FREE ENERGY PREDICTED BY IDOCK:   -1.60 KCAL/MOL
REMARK 927      BINDING AFFINITY PREDICTED BY RF-SCORE:    0.00 PKD
ROOT
HETATM    1  C   UNL     1      -9.917  12.091  64.677  1.00  0.00    -0.240 C  
HETATM    2  C   UNL     1      -9.537  12.194  66.163  1.00  0.00    -0.240 C  
HETATM    3  C   UNL     1      -9.824  11.144  66.991  1.00  0.00    -0.185 C  
ENDROOT
BRANCH   2   4
HETATM    4  N   UNL     1      -8.864  13.389  66.484  1.00  0.00    -0.059 N  
HETATM    5  C   UNL     1      -7.664  13.371  67.213  1.00  0.00    -0.079 C  
HETATM    6  O   UNL     1      -7.158  14.326  67.784  1.00  0.00    -0.144 OA 
BRANCH   4   7
HETATM    7  C   UNL     1      -9.613  14.663  66.549  1.00  0.00    -0.289 C  
BRANCH   7   8
HETATM    8  C   UNL     1     -10.434  14.837  67.813  1.00  0.00    -0.254 A  
HETATM    9  H2  UNL     1     -11.889  14.050  65.828  1.00  0.00     0.000 HD 
HETATM   10  C   UNL     1     -10.110  15.432  68.981  1.00  0.00    -0.234 A  
HETATM   11  N   UNL     1     -12.435  14.163  69.040  1.00  0.00    -0.092 NA 
HETATM   12  N   UNL     1     -10.734  15.271  70.204  1.00  0.00    -0.283 NA 
HETATM   13  H1  UNL     1     -13.331  13.548  66.719  1.00  0.00     0.000 HD 
HETATM   14  C   UNL     1     -12.413  14.142  71.523  1.00  0.00    -0.423 C  
HETATM   15  N   UNL     1     -12.386  13.933  66.711  1.00  0.00    -0.394 NA 
HETATM   16  C   UNL     1     -11.839  14.584  70.201  1.00  0.00    -0.308 A  
HETATM   17  C   UNL     1     -11.819  14.273  67.824  1.00  0.00    -0.379 A  
ENDBRANCH   7   8
ENDBRANCH   4   7
ENDBRANCH   2   4
BRANCH   3  18
HETATM   18  C   UNL     1     -10.208   9.730  66.369  1.00  0.00    -0.288 C  
BRANCH  18  19
HETATM   19  C   UNL     1      -9.099   8.608  66.406  1.00  0.00    -0.174 C  
BRANCH  19  20
HETATM   20  O   UNL     1      -9.579   7.217  66.284  1.00  0.00    -0.139 OA 
HETATM   21  O   UNL     1      -9.115   5.913  68.022  1.00  0.00    -0.118 OA 
HETATM   22  O   UNL     1     -11.099   5.594  66.644  1.00  0.00    -0.202 OA 
HETATM   23  P   UNL     1     -10.491   6.717  67.667  1.00  0.00    -0.300 P  
HETATM   24  O   UNL     1     -11.308   6.271  68.904  1.00  0.00    -0.373 OA 
ENDBRANCH  19  20
ENDBRANCH  18  19
ENDBRANCH   3  18
BRANCH   3  25
HETATM   25  S   UNL     1      -9.778  11.187  68.816  1.00  0.00    -0.152 SA 
BRANCH  25  26
HETATM   26  C   UNL     1     -11.282  10.531  69.584  1.00  0.00    -0.282 C  
HETATM   27  O   UNL     1     -12.391  10.909  69.224  1.00  0.00    -0.395 OA 
BRANCH  26  28
HETATM   28  C   UNL     1     -11.181   9.549  70.774  1.00  0.00    -0.383 A  
HETATM   29  C   UNL     1      -9.709   8.225  72.284  1.00  0.00    -0.362 A  
HETATM   30  C   UNL     1      -9.898   9.097  71.189  1.00  0.00    -0.371 A  
HETATM   31  C   UNL     1     -12.249   9.099  71.554  1.00  0.00    -0.422 A  
HETATM   32  C   UNL     1     -10.806   7.794  73.019  1.00  0.00    -0.451 A  
HETATM   33  C   UNL     1     -12.077   8.240  72.654  1.00  0.00    -0.326 A  
ENDBRANCH  26  28
ENDBRANCH  25  26
ENDBRANCH   3  25
TORSDOF 9
ENDMDL
MODEL      134
REMARK 921   NORMALIZED FREE ENERGY PREDICTED BY IDOCK:   -5.52 KCAL/MOL
REMARK 922        TOTAL FREE ENERGY PREDICTED BY IDOCK:   -9.93 KCAL/MOL
REMARK 923 INTER-LIGAND FREE ENERGY PREDICTED BY IDOCK:   -8.17 KCAL/MOL
REMARK 924 INTRA-LIGAND FREE ENERGY PREDICTED BY IDOCK:   -1.76 KCAL/MOL
REMARK 927      BINDING AFFINITY PREDICTED BY RF-SCORE:    0.00 PKD
ROOT
HETATM    1  C   UNL     1      -7.144  10.668  67.888  1.00  0.00    -0.086 C  
HETATM    2  C   UNL     1      -8.650  10.968  67.975  1.00  0.00    -0.134 C  
HETATM    3  C   UNL     1      -9.371  10.430  69.004  1.00  0.00    -0.194 C  
ENDROOT
BRANCH   2   4
HETATM    4  N   UNL     1      -9.101  11.842  66.966  1.00  0.00    -0.181 N  
HETATM    5  C   UNL     1      -9.815  11.360  65.857  1.00  0.00    -0.226 C  
HETATM    6  O   UNL     1      -9.998  11.960  64.808  1.00  0.00    -0.253 OA 
BRANCH   4   7
HETATM    7  C   UNL     1      -8.420  13.137  66.754  1.00  0.00     0.016 C  
BRANCH   7   8
HETATM    8  C   UNL     1      -9.130  14.323  67.381  1.00  0.00    -0.199 A  
HETATM    9  H2  UNL     1      -7.173  13.494  68.850  1.00  0.00     0.000 HD 
HETATM   10  C   UNL     1     -10.308  14.897  67.056  1.00  0.00    -0.264 A  
HETATM   11  N   UNL     1      -8.940  16.233  68.890  1.00  0.00    -0.238 NA 
HETATM   12  N   UNL     1     -10.749  16.159  67.408  1.00  0.00    -0.310 NA 
HETATM   13  H1  UNL     1      -7.026  14.883  69.933  1.00  0.00     0.000 HD 
HETATM   14  C   UNL     1     -10.285  18.277  68.471  1.00  0.00    -0.402 C  
HETATM   15  N   UNL     1      -7.484  14.418  69.148  1.00  0.00    -0.120 NA 
HETATM   16  C   UNL     1     -10.013  16.810  68.261  1.00  0.00    -0.273 A  
HETATM   17  C   UNL     1      -8.459  15.004  68.531  1.00  0.00    -0.163 A  
ENDBRANCH   7   8
ENDBRANCH   4   7
ENDBRANCH   2   4
BRANCH   3  18
HETATM   18  C   UNL     1      -8.614   9.814  70.262  1.00  0.00    -0.169 C  
BRANCH  18  19
HETATM   19  C   UNL     1      -9.103   8.402  70.768  1.00  0.00    -0.156 C  
BRANCH  19  20
HETATM   20  O   UNL     1      -9.671   8.363  72.132  1.00  0.00    -0.241 OA 
HETATM   21  O   UNL     1     -11.882   8.546  72.227  1.00  0.00    -0.358 OA 
HETATM   22  O   UNL     1     -10.605   7.280  73.871  1.00  0.00    -0.344 OA 
HETATM   23  P   UNL     1     -10.949   7.206  72.274  1.00  0.00    -0.271 P  
HETATM   24  O   UNL     1     -12.093   6.170  72.401  1.00  0.00    -0.272 OA 
ENDBRANCH  19  20
ENDBRANCH  18  19
ENDBRANCH   3  18
BRANCH   3  25
HETATM   25  S   UNL     1     -11.193  10.371  69.107  1.00  0.00    -0.233 SA 
BRANCH  25  26
HETATM   26  C   UNL     1     -11.972  11.996  68.923  1.00  0.00    -0.246 C  
HETATM   27  O   UNL     1     -12.204  12.462  67.813  1.00  0.00    -0.395 OA 
BRANCH  26  28
HETATM   28  C   UNL     1     -12.270  12.860  70.170  1.00  0.00    -0.336 A  
HETATM   29  C   UNL     1     -12.076  15.079  71.282  1.00  0.00    -0.384 A  
HETATM   30  C   UNL     1     -11.822  14.209  70.199  1.00  0.00    -0.382 A  
HETATM   31  C   UNL     1     -13.018  12.459  71.281  1.00  0.00    -0.297 A  
HETATM   32  C   UNL     1     -12.812  14.627  72.371  1.00  0.00    -0.442 A  
HETATM   33  C   UNL     1     -13.288  13.316  72.363  1.00  0.00    -0.616 A  
ENDBRANCH  26  28
ENDBRANCH  25  26
ENDBRANCH   3  25
TORSDOF 9
ENDMDL
MODEL      135
REMARK 921   NORMALIZED FREE ENERGY PREDICTED BY IDOCK:   -5.51 KCAL/MOL
REMARK 922        TOTAL FREE ENERGY PREDICTED BY IDOCK:   -9.91 KCAL/MOL
REMARK 923 INTER-LIGAND FREE ENERGY PREDICTED BY IDOCK:   -8.33 KCAL/MOL
REMARK 924 INTRA-LIGAND FREE ENERGY PREDICTED BY IDOCK:   -1.58 KCAL/MOL
REMARK 927      BINDING AFFINITY PREDICTED BY RF-SCORE:    0.00 PKD
ROOT
HETATM    1  C   UNL     1     -10.170  11.030  67.965  1.00  0.00    -0.201 C  
HETATM    2  C   UNL     1      -9.146  12.163  67.784  1.00  0.00    -0.189 C  
HETATM    3  C   UNL     1      -9.600  13.435  67.569  1.00  0.00    -0.221 C  
ENDROOT
BRANCH   2   4
HETATM    4  N   UNL     1      -7.812  11.733  67.923  1.00  0.00    -0.126 N  
HETATM    5  C   UNL     1      -7.047  12.095  69.043  1.00  0.00    -0.062 C  
HETATM    6  O   UNL     1      -5.830  12.030  69.132  1.00  0.00    -0.060 OA 
BRANCH   4   7
HETATM    7  C   UNL     1      -7.025  11.370  66.724  1.00  0.00    -0.128 C  
BRANCH   7   8
HETATM    8  C   UNL     1      -7.242   9.945  66.247  1.00  0.00    -0.102 A  
HETATM    9  H2  UNL     1      -8.774  11.613  65.004  1.00  0.00     0.000 HD 
HETATM   10  C   UNL     1      -6.816   8.780  66.781  1.00  0.00    -0.069 A  
HETATM   11  N   UNL     1      -7.968   8.511  64.409  1.00  0.00    -0.140 NA 
HETATM   12  N   UNL     1      -6.731   7.553  66.149  1.00  0.00    -0.052 NA 
HETATM   13  H1  UNL     1      -9.286  10.579  63.665  1.00  0.00     0.000 HD 
HETATM   14  C   UNL     1      -6.948   6.266  64.118  1.00  0.00    -0.044 C  
HETATM   15  N   UNL     1      -8.748  10.715  64.521  1.00  0.00    -0.173 NA 
HETATM   16  C   UNL     1      -7.249   7.479  64.958  1.00  0.00    -0.066 A  
HETATM   17  C   UNL     1      -8.031   9.746  64.993  1.00  0.00    -0.131 A  
ENDBRANCH   7   8
ENDBRANCH   4   7
ENDBRANCH   2   4
BRANCH   3  18
HETATM   18  C   UNL     1     -11.127  13.787  67.854  1.00  0.00    -0.285 C  
BRANCH  18  19
HETATM   19  C   UNL     1     -11.868  14.670  66.777  1.00  0.00    -0.317 C  
BRANCH  19  20
HETATM   20  O   UNL     1     -12.806  13.954  65.887  1.00  0.00    -0.472 OA 
HETATM   21  O   UNL     1     -12.720  14.567  63.753  1.00  0.00    -0.780 OA 
HETATM   22  O   UNL     1     -13.313  12.305  64.439  1.00  0.00    -0.786 OA 
HETATM   23  P   UNL     1     -12.013  13.295  64.497  1.00  0.00    -0.441 P  
HETATM   24  O   UNL     1     -11.303  12.706  63.254  1.00  0.00    -0.460 OA 
ENDBRANCH  19  20
ENDBRANCH  18  19
ENDBRANCH   3  18
BRANCH   3  25
HETATM   25  S   UNL     1      -8.588  14.842  66.996  1.00  0.00    -0.223 SA 
BRANCH  25  26
HETATM   26  C   UNL     1      -8.443  16.165  68.226  1.00  0.00    -0.180 C  
HETATM   27  O   UNL     1      -8.035  15.932  69.358  1.00  0.00    -0.232 OA 
BRANCH  26  28
HETATM   28  C   UNL     1      -8.924  17.595  67.887  1.00  0.00    -0.250 A  
HETATM   29  C   UNL     1      -8.438  19.762  66.762  1.00  0.00    -0.363 A  
HETATM   30  C   UNL     1      -8.069  18.453  67.142  1.00  0.00    -0.244 A  
HETATM   31  C   UNL     1     -10.182  18.125  68.187  1.00  0.00    -0.400 A  
HETATM   32  C   UNL     1      -9.696  20.249  67.098  1.00  0.00    -0.592 A  
HETATM   33  C   UNL     1     -10.569  19.423  67.806  1.00  0.00    -0.538 A  
ENDBRANCH  26  28
ENDBRANCH  25  26
ENDBRANCH   3  25
TORSDOF 9
ENDMDL
MODEL      136
REMARK 921   NORMALIZED FREE ENERGY PREDICTED BY IDOCK:   -5.50 KCAL/MOL
REMARK 922        TOTAL FREE ENERGY PREDICTED BY IDOCK:   -9.90 KCAL/MOL
REMARK 923 INTER-LIGAND FREE ENERGY PREDICTED BY IDOCK:   -8.62 KCAL/MOL
REMARK 924 INTRA-LIGAND FREE ENERGY PREDICTED BY IDOCK:   -1.29 KCAL/MOL
REMARK 927      BINDING AFFINITY PREDICTED BY RF-SCORE:    0.00 PKD
ROOT
HETATM    1  C   UNL     1      -7.756  13.203  67.762  1.00  0.00    -0.153 C  
HETATM    2  C   UNL     1      -9.211  13.300  68.249  1.00  0.00    -0.197 C  
HETATM    3  C   UNL     1      -9.931  12.149  68.409  1.00  0.00    -0.206 C  
ENDROOT
BRANCH   2   4
HETATM    4  N   UNL     1      -9.615  14.619  68.532  1.00  0.00    -0.216 N  
HETATM    5  C   UNL     1     -10.059  14.982  69.814  1.00  0.00    -0.087 C  
HETATM    6  O   UNL     1     -10.691  15.990  70.095  1.00  0.00    -0.317 OA 
BRANCH   4   7
HETATM    7  C   UNL     1     -10.088  15.496  67.439  1.00  0.00    -0.246 C  
BRANCH   7   8
HETATM    8  C   UNL     1      -9.172  16.670  67.142  1.00  0.00    -0.233 A  
HETATM    9  H2  UNL     1     -11.107  16.513  65.438  1.00  0.00     0.000 HD 
HETATM   10  C   UNL     1      -7.953  16.963  67.643  1.00  0.00    -0.174 A  
HETATM   11  N   UNL     1      -8.974  18.880  66.125  1.00  0.00    -0.470 NA 
HETATM   12  N   UNL     1      -7.313  18.189  67.620  1.00  0.00    -0.211 NA 
HETATM   13  H1  UNL     1     -10.973  18.120  64.713  1.00  0.00     0.000 HD 
HETATM   14  C   UNL     1      -7.390  20.540  67.074  1.00  0.00    -0.372 C  
HETATM   15  N   UNL     1     -10.647  17.422  65.382  1.00  0.00    -0.631 NA 
HETATM   16  C   UNL     1      -7.882  19.124  66.917  1.00  0.00    -0.252 A  
HETATM   17  C   UNL     1      -9.650  17.691  66.161  1.00  0.00    -0.188 A  
ENDBRANCH   7   8
ENDBRANCH   4   7
ENDBRANCH   2   4
BRANCH   3  18
HETATM   18  C   UNL     1      -9.181  10.745  68.435  1.00  0.00    -0.164 C  
BRANCH  18  19
HETATM   19  C   UNL     1      -9.585   9.698  67.325  1.00  0.00    -0.164 C  
BRANCH  19  20
HETATM   20  O   UNL     1     -10.352   8.524  67.789  1.00  0.00    -0.218 OA 
HETATM   21  O   UNL     1     -10.173   6.723  66.502  1.00  0.00    -0.155 OA 
HETATM   22  O   UNL     1     -10.535   6.578  68.907  1.00  0.00    -0.179 OA 
HETATM   23  P   UNL     1      -9.376   7.099  67.877  1.00  0.00    -0.127 P  
HETATM   24  O   UNL     1      -8.502   5.824  67.956  1.00  0.00    -0.107 OA 
ENDBRANCH  19  20
ENDBRANCH  18  19
ENDBRANCH   3  18
BRANCH   3  25
HETATM   25  S   UNL     1     -11.740  12.051  68.638  1.00  0.00    -0.322 SA 
BRANCH  25  26
HETATM   26  C   UNL     1     -12.235  11.954  70.379  1.00  0.00    -0.314 C  
HETATM   27  O   UNL     1     -12.593  12.956  70.989  1.00  0.00    -0.366 OA 
BRANCH  26  28
HETATM   28  C   UNL     1     -12.121  10.616  71.145  1.00  0.00    -0.445 A  
HETATM   29  C   UNL     1     -13.280   8.833  72.440  1.00  0.00    -0.441 A  
HETATM   30  C   UNL     1     -13.285  10.064  71.747  1.00  0.00    -0.540 A  
HETATM   31  C   UNL     1     -10.970   9.832  71.251  1.00  0.00    -0.331 A  
HETATM   32  C   UNL     1     -12.105   8.098  72.530  1.00  0.00    -0.377 A  
HETATM   33  C   UNL     1     -10.951   8.599  71.927  1.00  0.00    -0.412 A  
ENDBRANCH  26  28
ENDBRANCH  25  26
ENDBRANCH   3  25
TORSDOF 9
ENDMDL
MODEL      137
REMARK 921   NORMALIZED FREE ENERGY PREDICTED BY IDOCK:   -5.50 KCAL/MOL
REMARK 922        TOTAL FREE ENERGY PREDICTED BY IDOCK:   -9.90 KCAL/MOL
REMARK 923 INTER-LIGAND FREE ENERGY PREDICTED BY IDOCK:   -9.48 KCAL/MOL
REMARK 924 INTRA-LIGAND FREE ENERGY PREDICTED BY IDOCK:   -0.42 KCAL/MOL
REMARK 927      BINDING AFFINITY PREDICTED BY RF-SCORE:    0.00 PKD
ROOT
HETATM    1  C   UNL     1     -11.204   6.324  69.366  1.00  0.00    -0.489 C  
HETATM    2  C   UNL     1     -10.864   7.824  69.397  1.00  0.00    -0.113 C  
HETATM    3  C   UNL     1     -11.054   8.519  70.558  1.00  0.00    -0.244 C  
ENDROOT
BRANCH   2   4
HETATM    4  N   UNL     1     -10.327   8.296  68.184  1.00  0.00    -0.210 N  
HETATM    5  C   UNL     1     -10.075   7.423  67.113  1.00  0.00    -0.244 C  
HETATM    6  O   UNL     1      -9.363   7.658  66.149  1.00  0.00    -0.159 OA 
BRANCH   4   7
HETATM    7  C   UNL     1      -9.538   9.547  68.164  1.00  0.00    -0.137 C  
BRANCH   7   8
HETATM    8  C   UNL     1     -10.117  10.634  67.276  1.00  0.00    -0.238 A  
HETATM    9  H2  UNL     1      -7.597  10.275  66.830  1.00  0.00     0.000 HD 
HETATM   10  C   UNL     1     -11.307  11.266  67.348  1.00  0.00    -0.276 A  
HETATM   11  N   UNL     1      -9.918  11.848  65.167  1.00  0.00    -0.250 NA 
HETATM   12  N   UNL     1     -11.935  11.982  66.344  1.00  0.00    -0.593 NA 
HETATM   13  H1  UNL     1      -7.458  11.140  65.295  1.00  0.00     0.000 HD 
HETATM   14  C   UNL     1     -11.956  12.712  64.043  1.00  0.00    -0.530 C  
HETATM   15  N   UNL     1      -8.024  10.819  66.081  1.00  0.00    -0.155 NA 
HETATM   16  C   UNL     1     -11.243  12.188  65.262  1.00  0.00    -0.332 A  
HETATM   17  C   UNL     1      -9.286  11.104  66.125  1.00  0.00    -0.198 A  
ENDBRANCH   7   8
ENDBRANCH   4   7
ENDBRANCH   2   4
BRANCH   3  18
HETATM   18  C   UNL     1     -11.276   7.731  71.924  1.00  0.00    -0.310 C  
BRANCH  18  19
HETATM   19  C   UNL     1     -10.045   7.648  72.908  1.00  0.00    -0.286 C  
BRANCH  19  20
HETATM   20  O   UNL     1      -9.957   6.426  73.735  1.00  0.00    -0.187 OA 
HETATM   21  O   UNL     1     -11.568   4.940  73.378  1.00  0.00    -0.313 OA 
HETATM   22  O   UNL     1      -9.326   4.292  74.075  1.00  0.00    -0.105 OA 
HETATM   23  P   UNL     1     -10.048   4.985  72.782  1.00  0.00    -0.186 P  
HETATM   24  O   UNL     1     -10.130   3.696  71.929  1.00  0.00    -0.174 OA 
ENDBRANCH  19  20
ENDBRANCH  18  19
ENDBRANCH   3  18
BRANCH   3  25
HETATM   25  S   UNL     1     -11.046  10.337  70.721  1.00  0.00    -0.099 SA 
BRANCH  25  26
HETATM   26  C   UNL     1     -12.635  11.012  71.273  1.00  0.00    -0.412 C  
HETATM   27  O   UNL     1     -13.553  10.271  71.604  1.00  0.00    -0.269 OA 
BRANCH  26  28
HETATM   28  C   UNL     1     -12.881  12.538  71.244  1.00  0.00    -0.337 A  
HETATM   29  C   UNL     1     -13.947  14.514  72.321  1.00  0.00    -0.600 A  
HETATM   30  C   UNL     1     -13.693  13.126  72.253  1.00  0.00    -0.647 A  
HETATM   31  C   UNL     1     -12.315  13.439  70.339  1.00  0.00    -0.382 A  
HETATM   32  C   UNL     1     -13.371  15.367  71.388  1.00  0.00    -0.601 A  
HETATM   33  C   UNL     1     -12.548  14.825  70.400  1.00  0.00    -0.399 A  
ENDBRANCH  26  28
ENDBRANCH  25  26
ENDBRANCH   3  25
TORSDOF 9
ENDMDL
MODEL      138
REMARK 921   NORMALIZED FREE ENERGY PREDICTED BY IDOCK:   -5.49 KCAL/MOL
REMARK 922        TOTAL FREE ENERGY PREDICTED BY IDOCK:   -9.88 KCAL/MOL
REMARK 923 INTER-LIGAND FREE ENERGY PREDICTED BY IDOCK:   -8.97 KCAL/MOL
REMARK 924 INTRA-LIGAND FREE ENERGY PREDICTED BY IDOCK:   -0.91 KCAL/MOL
REMARK 927      BINDING AFFINITY PREDICTED BY RF-SCORE:    0.00 PKD
ROOT
HETATM    1  C   UNL     1     -13.204   9.243  71.279  1.00  0.00    -0.325 C  
HETATM    2  C   UNL     1     -11.743   9.177  70.801  1.00  0.00    -0.256 C  
HETATM    3  C   UNL     1     -11.346   9.996  69.781  1.00  0.00    -0.228 C  
ENDROOT
BRANCH   2   4
HETATM    4  N   UNL     1     -10.955   8.278  71.546  1.00  0.00    -0.243 N  
HETATM    5  C   UNL     1      -9.674   8.638  71.995  1.00  0.00    -0.321 C  
HETATM    6  O   UNL     1      -8.809   7.868  72.384  1.00  0.00    -0.126 OA 
BRANCH   4   7
HETATM    7  C   UNL     1     -11.187   6.822  71.429  1.00  0.00    -0.268 C  
BRANCH   7   8
HETATM    8  C   UNL     1     -10.519   6.180  70.227  1.00  0.00    -0.288 A  
HETATM    9  H2  UNL     1      -9.359   5.511  72.437  1.00  0.00     0.000 HD 
HETATM   10  C   UNL     1     -10.671   6.440  68.911  1.00  0.00    -0.288 A  
HETATM   11  N   UNL     1      -9.179   4.309  69.412  1.00  0.00    -0.122 NA 
HETATM   12  N   UNL     1     -10.324   5.623  67.852  1.00  0.00    -0.200 NA 
HETATM   13  H1  UNL     1      -8.401   4.146  71.849  1.00  0.00     0.000 HD 
HETATM   14  C   UNL     1      -9.482   3.493  67.087  1.00  0.00    -0.219 C  
HETATM   15  N   UNL     1      -9.068   4.899  71.674  1.00  0.00    -0.137 NA 
HETATM   16  C   UNL     1      -9.649   4.550  68.147  1.00  0.00    -0.146 A  
HETATM   17  C   UNL     1      -9.543   5.077  70.484  1.00  0.00    -0.185 A  
ENDBRANCH   7   8
ENDBRANCH   4   7
ENDBRANCH   2   4
BRANCH   3  18
HETATM   18  C   UNL     1     -12.264  11.223  69.349  1.00  0.00    -0.315 C  
BRANCH  18  19
HETATM   19  C   UNL     1     -11.963  12.614  70.030  1.00  0.00    -0.306 C  
BRANCH  19  20
HETATM   20  O   UNL     1     -12.634  12.862  71.323  1.00  0.00    -0.350 OA 
HETATM   21  O   UNL     1     -12.220  14.849  72.223  1.00  0.00    -0.339 OA 
HETATM   22  O   UNL     1     -14.326  13.673  72.566  1.00  0.00    -0.707 OA 
HETATM   23  P   UNL     1     -13.499  14.359  71.333  1.00  0.00    -0.311 P  
HETATM   24  O   UNL     1     -14.274  15.699  71.343  1.00  0.00    -0.535 OA 
ENDBRANCH  19  20
ENDBRANCH  18  19
ENDBRANCH   3  18
BRANCH   3  25
HETATM   25  S   UNL     1      -9.787   9.844  68.843  1.00  0.00    -0.186 SA 
BRANCH  25  26
HETATM   26  C   UNL     1      -9.412  11.304  67.838  1.00  0.00    -0.178 C  
HETATM   27  O   UNL     1      -8.696  12.200  68.271  1.00  0.00    -0.178 OA 
BRANCH  26  28
HETATM   28  C   UNL     1     -10.072  11.482  66.451  1.00  0.00    -0.250 A  
HETATM   29  C   UNL     1     -10.089  10.863  64.040  1.00  0.00    -0.419 A  
HETATM   30  C   UNL     1      -9.533  10.784  65.336  1.00  0.00    -0.258 A  
HETATM   31  C   UNL     1     -11.223  12.228  66.185  1.00  0.00    -0.372 A  
HETATM   32  C   UNL     1     -11.227  11.631  63.823  1.00  0.00    -0.498 A  
HETATM   33  C   UNL     1     -11.796  12.308  64.903  1.00  0.00    -0.417 A  
ENDBRANCH  26  28
ENDBRANCH  25  26
ENDBRANCH   3  25
TORSDOF 9
ENDMDL
MODEL      139
REMARK 921   NORMALIZED FREE ENERGY PREDICTED BY IDOCK:   -5.47 KCAL/MOL
REMARK 922        TOTAL FREE ENERGY PREDICTED BY IDOCK:   -9.85 KCAL/MOL
REMARK 923 INTER-LIGAND FREE ENERGY PREDICTED BY IDOCK:   -8.46 KCAL/MOL
REMARK 924 INTRA-LIGAND FREE ENERGY PREDICTED BY IDOCK:   -1.39 KCAL/MOL
REMARK 927      BINDING AFFINITY PREDICTED BY RF-SCORE:    0.00 PKD
ROOT
HETATM    1  C   UNL     1     -11.890  12.748  67.800  1.00  0.00    -0.387 C  
HETATM    2  C   UNL     1     -11.283  12.168  66.512  1.00  0.00    -0.328 C  
HETATM    3  C   UNL     1     -10.731  10.917  66.548  1.00  0.00    -0.209 C  
ENDROOT
BRANCH   2   4
HETATM    4  N   UNL     1     -11.429  13.017  65.398  1.00  0.00    -0.304 N  
HETATM    5  C   UNL     1     -12.391  12.755  64.409  1.00  0.00    -0.424 C  
HETATM    6  O   UNL     1     -12.414  13.239  63.286  1.00  0.00    -0.736 OA 
BRANCH   4   7
HETATM    7  C   UNL     1     -10.293  13.854  64.955  1.00  0.00    -0.396 C  
BRANCH   7   8
HETATM    8  C   UNL     1     -10.360  15.294  65.430  1.00  0.00    -0.421 A  
HETATM    9  H2  UNL     1      -9.026  13.808  67.069  1.00  0.00     0.000 HD 
HETATM   10  C   UNL     1     -11.129  16.315  64.993  1.00  0.00    -0.254 A  
HETATM   11  N   UNL     1      -9.293  17.042  66.760  1.00  0.00    -0.243 NA 
HETATM   12  N   UNL     1     -10.922  17.666  65.201  1.00  0.00    -0.623 NA 
HETATM   13  H1  UNL     1      -8.242  15.074  68.021  1.00  0.00     0.000 HD 
HETATM   14  C   UNL     1      -9.515  19.420  66.081  1.00  0.00    -0.361 C  
HETATM   15  N   UNL     1      -8.864  14.797  67.262  1.00  0.00    -0.192 NA 
HETATM   16  C   UNL     1      -9.967  17.984  66.025  1.00  0.00    -0.216 A  
HETATM   17  C   UNL     1      -9.448  15.701  66.543  1.00  0.00    -0.274 A  
ENDBRANCH   7   8
ENDBRANCH   4   7
ENDBRANCH   2   4
BRANCH   3  18
HETATM   18  C   UNL     1     -11.028   9.958  67.784  1.00  0.00    -0.278 C  
BRANCH  18  19
HETATM   19  C   UNL     1     -10.033  10.040  69.006  1.00  0.00    -0.196 C  
BRANCH  19  20
HETATM   20  O   UNL     1      -9.803   8.778  69.740  1.00  0.00    -0.180 OA 
HETATM   21  O   UNL     1      -9.297   9.027  71.889  1.00  0.00    -0.341 OA 
HETATM   22  O   UNL     1     -10.492   7.079  71.046  1.00  0.00    -0.211 OA 
HETATM   23  P   UNL     1     -10.736   8.689  71.194  1.00  0.00    -0.288 P  
HETATM   24  O   UNL     1     -11.572   8.609  72.495  1.00  0.00    -0.356 OA 
ENDBRANCH  19  20
ENDBRANCH  18  19
ENDBRANCH   3  18
BRANCH   3  25
HETATM   25  S   UNL     1      -9.670  10.187  65.255  1.00  0.00    -0.316 SA 
BRANCH  25  26
HETATM   26  C   UNL     1      -8.355   9.132  65.921  1.00  0.00    -0.123 C  
HETATM   27  O   UNL     1      -7.350   9.621  66.426  1.00  0.00    -0.092 OA 
BRANCH  26  28
HETATM   28  C   UNL     1      -8.444   7.596  65.775  1.00  0.00    -0.153 A  
HETATM   29  C   UNL     1      -7.328   5.486  65.068  1.00  0.00    -0.068 A  
HETATM   30  C   UNL     1      -7.346   6.891  65.211  1.00  0.00    -0.084 A  
HETATM   31  C   UNL     1      -9.499   6.794  66.218  1.00  0.00    -0.116 A  
HETATM   32  C   UNL     1      -8.409   4.734  65.511  1.00  0.00    -0.120 A  
HETATM   33  C   UNL     1      -9.492   5.393  66.093  1.00  0.00    -0.171 A  
ENDBRANCH  26  28
ENDBRANCH  25  26
ENDBRANCH   3  25
TORSDOF 9
ENDMDL
MODEL      140
REMARK 921   NORMALIZED FREE ENERGY PREDICTED BY IDOCK:   -5.46 KCAL/MOL
REMARK 922        TOTAL FREE ENERGY PREDICTED BY IDOCK:   -9.84 KCAL/MOL
REMARK 923 INTER-LIGAND FREE ENERGY PREDICTED BY IDOCK:   -9.12 KCAL/MOL
REMARK 924 INTRA-LIGAND FREE ENERGY PREDICTED BY IDOCK:   -0.71 KCAL/MOL
REMARK 927      BINDING AFFINITY PREDICTED BY RF-SCORE:    0.00 PKD
ROOT
HETATM    1  C   UNL     1     -11.237   6.161  69.638  1.00  0.00    -0.488 C  
HETATM    2  C   UNL     1     -10.968   7.666  69.468  1.00  0.00    -0.097 C  
HETATM    3  C   UNL     1     -11.181   8.497  70.532  1.00  0.00    -0.242 C  
ENDROOT
BRANCH   2   4
HETATM    4  N   UNL     1     -10.464   8.000  68.196  1.00  0.00    -0.194 N  
HETATM    5  C   UNL     1     -10.470   7.068  67.146  1.00  0.00    -0.312 C  
HETATM    6  O   UNL     1      -9.815   7.143  66.117  1.00  0.00    -0.017 OA 
BRANCH   4   7
HETATM    7  C   UNL     1      -9.468   9.085  68.060  1.00  0.00    -0.142 C  
BRANCH   7   8
HETATM    8  C   UNL     1      -9.849  10.157  67.056  1.00  0.00    -0.238 A  
HETATM    9  H2  UNL     1      -7.427   9.331  66.699  1.00  0.00     0.000 HD 
HETATM   10  C   UNL     1     -10.914  10.987  67.039  1.00  0.00    -0.272 A  
HETATM   11  N   UNL     1      -9.440  11.097  64.840  1.00  0.00    -0.221 NA 
HETATM   12  N   UNL     1     -11.407  11.692  65.956  1.00  0.00    -0.271 NA 
HETATM   13  H1  UNL     1      -7.137   9.998  65.088  1.00  0.00     0.000 HD 
HETATM   14  C   UNL     1     -11.296  12.176  63.593  1.00  0.00    -0.545 C  
HETATM   15  N   UNL     1      -7.753   9.860  65.890  1.00  0.00    -0.106 NA 
HETATM   16  C   UNL     1     -10.687  11.666  64.873  1.00  0.00    -0.296 A  
HETATM   17  C   UNL     1      -8.947  10.359  65.880  1.00  0.00    -0.162 A  
ENDBRANCH   7   8
ENDBRANCH   4   7
ENDBRANCH   2   4
BRANCH   3  18
HETATM   18  C   UNL     1     -11.353   7.885  71.992  1.00  0.00    -0.343 C  
BRANCH  18  19
HETATM   19  C   UNL     1     -10.053   7.779  72.880  1.00  0.00    -0.301 C  
BRANCH  19  20
HETATM   20  O   UNL     1      -8.806   7.438  72.165  1.00  0.00    -0.122 OA 
HETATM   21  O   UNL     1      -7.583   9.182  71.536  1.00  0.00    -0.318 OA 
HETATM   22  O   UNL     1      -6.592   7.030  72.103  1.00  0.00    -0.055 OA 
HETATM   23  P   UNL     1      -7.425   8.224  72.849  1.00  0.00    -0.021 P  
HETATM   24  O   UNL     1      -6.189   8.926  73.462  1.00  0.00    -0.252 OA 
ENDBRANCH  19  20
ENDBRANCH  18  19
ENDBRANCH   3  18
BRANCH   3  25
HETATM   25  S   UNL     1     -11.257  10.320  70.458  1.00  0.00    -0.309 SA 
BRANCH  25  26
HETATM   26  C   UNL     1     -12.681  11.012  71.339  1.00  0.00    -0.429 C  
HETATM   27  O   UNL     1     -13.534  10.282  71.830  1.00  0.00    -0.377 OA 
BRANCH  26  28
HETATM   28  C   UNL     1     -12.885  12.544  71.401  1.00  0.00    -0.359 A  
HETATM   29  C   UNL     1     -12.455  14.763  70.358  1.00  0.00    -0.405 A  
HETATM   30  C   UNL     1     -12.296  13.360  70.397  1.00  0.00    -0.382 A  
HETATM   31  C   UNL     1     -13.672  13.225  72.334  1.00  0.00    -0.678 A  
HETATM   32  C   UNL     1     -13.237  15.395  71.318  1.00  0.00    -0.585 A  
HETATM   33  C   UNL     1     -13.850  14.620  72.302  1.00  0.00    -0.583 A  
ENDBRANCH  26  28
ENDBRANCH  25  26
ENDBRANCH   3  25
TORSDOF 9
ENDMDL
MODEL      141
REMARK 921   NORMALIZED FREE ENERGY PREDICTED BY IDOCK:   -5.43 KCAL/MOL
REMARK 922        TOTAL FREE ENERGY PREDICTED BY IDOCK:   -9.80 KCAL/MOL
REMARK 923 INTER-LIGAND FREE ENERGY PREDICTED BY IDOCK:   -8.10 KCAL/MOL
REMARK 924 INTRA-LIGAND FREE ENERGY PREDICTED BY IDOCK:   -1.70 KCAL/MOL
REMARK 927      BINDING AFFINITY PREDICTED BY RF-SCORE:    0.00 PKD
ROOT
HETATM    1  C   UNL     1     -13.055  10.461  71.767  1.00  0.00    -0.567 C  
HETATM    2  C   UNL     1     -11.791  10.527  70.893  1.00  0.00    -0.355 C  
HETATM    3  C   UNL     1     -10.874   9.516  70.982  1.00  0.00    -0.353 C  
ENDROOT
BRANCH   2   4
HETATM    4  N   UNL     1     -11.767  11.643  70.034  1.00  0.00    -0.330 N  
HETATM    5  C   UNL     1     -12.227  12.898  70.465  1.00  0.00    -0.314 C  
HETATM    6  O   UNL     1     -12.518  13.841  69.743  1.00  0.00    -0.287 OA 
BRANCH   4   7
HETATM    7  C   UNL     1     -11.776  11.447  68.569  1.00  0.00    -0.318 C  
BRANCH   7   8
HETATM    8  C   UNL     1     -10.813  12.346  67.815  1.00  0.00    -0.257 A  
HETATM    9  H2  UNL     1     -12.846  11.691  66.362  1.00  0.00     0.000 HD 
HETATM   10  C   UNL     1      -9.553  12.718  68.127  1.00  0.00    -0.223 A  
HETATM   11  N   UNL     1     -10.548  13.977  66.017  1.00  0.00    -0.291 NA 
HETATM   12  N   UNL     1      -8.847  13.791  67.613  1.00  0.00    -0.178 NA 
HETATM   13  H1  UNL     1     -12.663  12.882  65.069  1.00  0.00     0.000 HD 
HETATM   14  C   UNL     1      -8.822  15.752  66.204  1.00  0.00    -0.346 C  
HETATM   15  N   UNL     1     -12.340  12.473  65.946  1.00  0.00    -0.603 NA 
HETATM   16  C   UNL     1      -9.401  14.425  66.621  1.00  0.00    -0.278 A  
HETATM   17  C   UNL     1     -11.286  12.946  66.530  1.00  0.00    -0.318 A  
ENDBRANCH   7   8
ENDBRANCH   4   7
ENDBRANCH   2   4
BRANCH   3  18
HETATM   18  C   UNL     1     -11.272   8.150  71.697  1.00  0.00    -0.314 C  
BRANCH  18  19
HETATM   19  C   UNL     1     -11.785   6.982  70.768  1.00  0.00    -0.349 C  
BRANCH  19  20
HETATM   20  O   UNL     1     -11.630   5.613  71.302  1.00  0.00    -0.027 OA 
HETATM   21  O   UNL     1      -9.993   4.430  70.377  1.00  0.00    -0.218 OA 
HETATM   22  O   UNL     1     -10.689   4.111  72.690  1.00  0.00    -0.158 OA 
HETATM   23  P   UNL     1     -10.000   5.277  71.774  1.00  0.00    -0.202 P  
HETATM   24  O   UNL     1      -8.541   4.977  72.197  1.00  0.00    -0.122 OA 
ENDBRANCH  19  20
ENDBRANCH  18  19
ENDBRANCH   3  18
BRANCH   3  25
HETATM   25  S   UNL     1      -9.178   9.559  70.310  1.00  0.00    -0.240 SA 
BRANCH  25  26
HETATM   26  C   UNL     1      -8.947   8.467  68.883  1.00  0.00    -0.146 C  
HETATM   27  O   UNL     1      -8.753   7.266  69.033  1.00  0.00    -0.132 OA 
BRANCH  26  28
HETATM   28  C   UNL     1      -8.899   9.057  67.454  1.00  0.00    -0.125 A  
HETATM   29  C   UNL     1      -7.518  10.063  65.643  1.00  0.00    -0.137 A  
HETATM   30  C   UNL     1      -7.661   9.537  66.946  1.00  0.00    -0.095 A  
HETATM   31  C   UNL     1      -9.968   9.106  66.555  1.00  0.00    -0.359 A  
HETATM   32  C   UNL     1      -8.615  10.104  64.792  1.00  0.00    -0.191 A  
HETATM   33  C   UNL     1      -9.840   9.616  65.251  1.00  0.00    -0.269 A  
ENDBRANCH  26  28
ENDBRANCH  25  26
ENDBRANCH   3  25
TORSDOF 9
ENDMDL
MODEL      142
REMARK 921   NORMALIZED FREE ENERGY PREDICTED BY IDOCK:   -5.42 KCAL/MOL
REMARK 922        TOTAL FREE ENERGY PREDICTED BY IDOCK:   -9.78 KCAL/MOL
REMARK 923 INTER-LIGAND FREE ENERGY PREDICTED BY IDOCK:   -8.86 KCAL/MOL
REMARK 924 INTRA-LIGAND FREE ENERGY PREDICTED BY IDOCK:   -0.92 KCAL/MOL
REMARK 927      BINDING AFFINITY PREDICTED BY RF-SCORE:    0.00 PKD
ROOT
HETATM    1  C   UNL     1      -7.372  10.652  67.448  1.00  0.00    -0.093 C  
HETATM    2  C   UNL     1      -8.880  10.379  67.577  1.00  0.00    -0.134 C  
HETATM    3  C   UNL     1      -9.725  11.432  67.790  1.00  0.00    -0.175 C  
ENDROOT
BRANCH   2   4
HETATM    4  N   UNL     1      -9.216   9.023  67.398  1.00  0.00    -0.137 N  
HETATM    5  C   UNL     1     -10.428   8.651  66.794  1.00  0.00    -0.228 C  
HETATM    6  O   UNL     1     -10.945   7.545  66.846  1.00  0.00    -0.292 OA 
BRANCH   4   7
HETATM    7  C   UNL     1      -8.614   7.992  68.270  1.00  0.00    -0.130 C  
BRANCH   7   8
HETATM    8  C   UNL     1      -8.845   8.218  69.753  1.00  0.00    -0.142 A  
HETATM    9  H2  UNL     1     -10.729   6.801  68.697  1.00  0.00     0.000 HD 
HETATM   10  C   UNL     1      -8.233   9.069  70.603  1.00  0.00    -0.181 A  
HETATM   11  N   UNL     1      -9.890   7.378  71.793  1.00  0.00    -0.167 NA 
HETATM   12  N   UNL     1      -8.221   9.006  71.985  1.00  0.00    -0.330 NA 
HETATM   13  H1  UNL     1     -11.475   6.180  70.174  1.00  0.00     0.000 HD 
HETATM   14  C   UNL     1      -8.827   7.812  73.994  1.00  0.00    -0.304 C  
HETATM   15  N   UNL     1     -10.760   6.745  69.715  1.00  0.00    -0.233 NA 
HETATM   16  C   UNL     1      -8.999   8.116  72.529  1.00  0.00    -0.220 A  
HETATM   17  C   UNL     1      -9.893   7.391  70.425  1.00  0.00    -0.183 A  
ENDBRANCH   7   8
ENDBRANCH   4   7
ENDBRANCH   2   4
BRANCH   3  18
HETATM   18  C   UNL     1      -9.208  12.920  67.554  1.00  0.00    -0.192 C  
BRANCH  18  19
HETATM   19  C   UNL     1     -10.275  13.977  67.069  1.00  0.00    -0.261 C  
BRANCH  19  20
HETATM   20  O   UNL     1     -10.203  15.309  67.706  1.00  0.00    -0.233 OA 
HETATM   21  O   UNL     1      -8.674  16.673  66.847  1.00  0.00    -0.190 OA 
HETATM   22  O   UNL     1     -10.748  17.490  67.831  1.00  0.00    -0.384 OA 
HETATM   23  P   UNL     1     -10.278  16.591  66.547  1.00  0.00    -0.292 P  
HETATM   24  O   UNL     1     -10.346  17.739  65.511  1.00  0.00    -0.623 OA 
ENDBRANCH  19  20
ENDBRANCH  18  19
ENDBRANCH   3  18
BRANCH   3  25
HETATM   25  S   UNL     1     -11.471  11.306  68.307  1.00  0.00    -0.309 SA 
BRANCH  25  26
HETATM   26  C   UNL     1     -11.689  11.341  70.105  1.00  0.00    -0.343 C  
HETATM   27  O   UNL     1     -11.311  10.408  70.804  1.00  0.00    -0.330 OA 
BRANCH  26  28
HETATM   28  C   UNL     1     -12.441  12.515  70.773  1.00  0.00    -0.357 A  
HETATM   29  C   UNL     1     -13.983  13.265  72.578  1.00  0.00    -0.476 A  
HETATM   30  C   UNL     1     -13.282  12.251  71.889  1.00  0.00    -0.481 A  
HETATM   31  C   UNL     1     -12.323  13.863  70.425  1.00  0.00    -0.433 A  
HETATM   32  C   UNL     1     -13.844  14.590  72.184  1.00  0.00    -0.574 A  
HETATM   33  C   UNL     1     -13.005  14.886  71.109  1.00  0.00    -0.432 A  
ENDBRANCH  26  28
ENDBRANCH  25  26
ENDBRANCH   3  25
TORSDOF 9
ENDMDL
MODEL      143
REMARK 921   NORMALIZED FREE ENERGY PREDICTED BY IDOCK:   -5.40 KCAL/MOL
REMARK 922        TOTAL FREE ENERGY PREDICTED BY IDOCK:   -9.74 KCAL/MOL
REMARK 923 INTER-LIGAND FREE ENERGY PREDICTED BY IDOCK:   -7.97 KCAL/MOL
REMARK 924 INTRA-LIGAND FREE ENERGY PREDICTED BY IDOCK:   -1.78 KCAL/MOL
REMARK 927      BINDING AFFINITY PREDICTED BY RF-SCORE:    0.00 PKD
ROOT
HETATM    1  C   UNL     1     -11.009  10.786  66.397  1.00  0.00    -0.108 C  
HETATM    2  C   UNL     1      -9.774  10.435  67.243  1.00  0.00    -0.165 C  
HETATM    3  C   UNL     1      -9.704   9.200  67.827  1.00  0.00    -0.154 C  
ENDROOT
BRANCH   2   4
HETATM    4  N   UNL     1      -8.805  11.457  67.263  1.00  0.00    -0.150 N  
HETATM    5  C   UNL     1      -7.509  11.237  66.769  1.00  0.00    -0.146 C  
HETATM    6  O   UNL     1      -6.529  11.932  66.993  1.00  0.00    -0.145 OA 
BRANCH   4   7
HETATM    7  C   UNL     1      -8.919  12.562  68.239  1.00  0.00    -0.178 C  
BRANCH   7   8
HETATM    8  C   UNL     1      -9.469  13.851  67.658  1.00  0.00    -0.212 A  
HETATM    9  H2  UNL     1     -11.241  12.606  69.067  1.00  0.00     0.000 HD 
HETATM   10  C   UNL     1      -8.955  14.660  66.707  1.00  0.00    -0.257 A  
HETATM   11  N   UNL     1     -11.110  15.644  67.894  1.00  0.00    -0.322 NA 
HETATM   12  N   UNL     1      -9.295  15.976  66.455  1.00  0.00    -0.245 NA 
HETATM   13  H1  UNL     1     -12.421  13.909  69.251  1.00  0.00     0.000 HD 
HETATM   14  C   UNL     1     -10.567  17.929  67.088  1.00  0.00    -0.315 C  
HETATM   15  N   UNL     1     -11.531  13.567  68.886  1.00  0.00    -0.283 NA 
HETATM   16  C   UNL     1     -10.319  16.443  67.109  1.00  0.00    -0.290 A  
HETATM   17  C   UNL     1     -10.772  14.353  68.193  1.00  0.00    -0.236 A  
ENDBRANCH   7   8
ENDBRANCH   4   7
ENDBRANCH   2   4
BRANCH   3  18
HETATM   18  C   UNL     1     -10.693   8.045  67.355  1.00  0.00    -0.260 C  
BRANCH  18  19
HETATM   19  C   UNL     1     -10.883   6.823  68.334  1.00  0.00    -0.223 C  
BRANCH  19  20
HETATM   20  O   UNL     1     -10.164   5.584  67.971  1.00  0.00    -0.168 OA 
HETATM   21  O   UNL     1     -10.676   4.759  65.973  1.00  0.00    -0.319 OA 
HETATM   22  O   UNL     1      -8.473   4.480  66.975  1.00  0.00    -0.105 OA 
HETATM   23  P   UNL     1      -9.414   5.696  66.416  1.00  0.00    -0.139 P  
HETATM   24  O   UNL     1      -8.742   5.796  65.025  1.00  0.00    -0.127 OA 
ENDBRANCH  19  20
ENDBRANCH  18  19
ENDBRANCH   3  18
BRANCH   3  25
HETATM   25  S   UNL     1      -8.521   8.705  69.126  1.00  0.00    -0.125 SA 
BRANCH  25  26
HETATM   26  C   UNL     1      -9.087   9.108  70.800  1.00  0.00    -0.255 C  
HETATM   27  O   UNL     1      -8.305   9.122  71.744  1.00  0.00    -0.340 OA 
BRANCH  26  28
HETATM   28  C   UNL     1     -10.590   9.348  71.073  1.00  0.00    -0.400 A  
HETATM   29  C   UNL     1     -12.631   8.667  72.326  1.00  0.00    -0.457 A  
HETATM   30  C   UNL     1     -11.268   8.502  71.993  1.00  0.00    -0.418 A  
HETATM   31  C   UNL     1     -11.359  10.388  70.546  1.00  0.00    -0.424 A  
HETATM   32  C   UNL     1     -13.357   9.709  71.762  1.00  0.00    -0.505 A  
HETATM   33  C   UNL     1     -12.714  10.574  70.876  1.00  0.00    -0.495 A  
ENDBRANCH  26  28
ENDBRANCH  25  26
ENDBRANCH   3  25
TORSDOF 9
ENDMDL
MODEL      144
REMARK 921   NORMALIZED FREE ENERGY PREDICTED BY IDOCK:   -5.39 KCAL/MOL
REMARK 922        TOTAL FREE ENERGY PREDICTED BY IDOCK:   -9.74 KCAL/MOL
REMARK 923 INTER-LIGAND FREE ENERGY PREDICTED BY IDOCK:   -7.74 KCAL/MOL
REMARK 924 INTRA-LIGAND FREE ENERGY PREDICTED BY IDOCK:   -2.01 KCAL/MOL
REMARK 927      BINDING AFFINITY PREDICTED BY RF-SCORE:    0.00 PKD
ROOT
HETATM    1  C   UNL     1     -11.073   8.576  70.021  1.00  0.00    -0.152 C  
HETATM    2  C   UNL     1      -9.930   9.446  69.472  1.00  0.00    -0.191 C  
HETATM    3  C   UNL     1     -10.238  10.621  68.845  1.00  0.00    -0.201 C  
ENDROOT
BRANCH   2   4
HETATM    4  N   UNL     1      -8.652   8.921  69.746  1.00  0.00    -0.128 N  
HETATM    5  C   UNL     1      -7.654   9.714  70.335  1.00  0.00    -0.163 C  
HETATM    6  O   UNL     1      -6.457   9.465  70.352  1.00  0.00    -0.054 OA 
BRANCH   4   7
HETATM    7  C   UNL     1      -8.151   7.760  68.978  1.00  0.00    -0.125 C  
BRANCH   7   8
HETATM    8  C   UNL     1      -7.789   8.075  67.538  1.00  0.00    -0.118 A  
HETATM    9  H2  UNL     1      -9.972   6.702  67.697  1.00  0.00     0.000 HD 
HETATM   10  C   UNL     1      -6.642   8.564  67.022  1.00  0.00    -0.058 A  
HETATM   11  N   UNL     1      -8.617   8.395  65.264  1.00  0.00    -0.171 NA 
HETATM   12  N   UNL     1      -6.468   9.157  65.785  1.00  0.00    -0.063 NA 
HETATM   13  H1  UNL     1     -10.578   6.947  66.055  1.00  0.00     0.000 HD 
HETATM   14  C   UNL     1      -7.454   9.970  63.736  1.00  0.00    -0.141 C  
HETATM   15  N   UNL     1      -9.867   7.110  66.768  1.00  0.00    -0.205 NA 
HETATM   16  C   UNL     1      -7.484   9.112  64.975  1.00  0.00    -0.105 A  
HETATM   17  C   UNL     1      -8.831   7.836  66.493  1.00  0.00    -0.153 A  
ENDBRANCH   7   8
ENDBRANCH   4   7
ENDBRANCH   2   4
BRANCH   3  18
HETATM   18  C   UNL     1     -11.698  11.238  68.997  1.00  0.00    -0.410 C  
BRANCH  18  19
HETATM   19  C   UNL     1     -11.871  12.415  70.034  1.00  0.00    -0.288 C  
BRANCH  19  20
HETATM   20  O   UNL     1     -12.305  13.712  69.475  1.00  0.00    -0.294 OA 
HETATM   21  O   UNL     1     -13.523  14.961  70.851  1.00  0.00    -0.368 OA 
HETATM   22  O   UNL     1     -12.061  15.928  69.159  1.00  0.00    -0.339 OA 
HETATM   23  P   UNL     1     -11.924  15.035  70.523  1.00  0.00    -0.371 P  
HETATM   24  O   UNL     1     -11.583  16.219  71.460  1.00  0.00    -0.457 OA 
ENDBRANCH  19  20
ENDBRANCH  18  19
ENDBRANCH   3  18
BRANCH   3  25
HETATM   25  S   UNL     1      -9.090  11.619  67.835  1.00  0.00    -0.177 SA 
BRANCH  25  26
HETATM   26  C   UNL     1      -9.902  12.998  66.984  1.00  0.00    -0.238 C  
HETATM   27  O   UNL     1      -9.797  14.145  67.402  1.00  0.00    -0.233 OA 
BRANCH  26  28
HETATM   28  C   UNL     1     -10.817  12.728  65.767  1.00  0.00    -0.299 A  
HETATM   29  C   UNL     1     -11.053  11.731  63.498  1.00  0.00    -0.503 A  
HETATM   30  C   UNL     1     -10.283  12.047  64.640  1.00  0.00    -0.313 A  
HETATM   31  C   UNL     1     -12.178  13.033  65.687  1.00  0.00    -0.521 A  
HETATM   32  C   UNL     1     -12.401  12.070  63.461  1.00  0.00    -0.661 A  
HETATM   33  C   UNL     1     -12.962  12.716  64.563  1.00  0.00    -0.236 A  
ENDBRANCH  26  28
ENDBRANCH  25  26
ENDBRANCH   3  25
TORSDOF 9
ENDMDL
MODEL      145
REMARK 921   NORMALIZED FREE ENERGY PREDICTED BY IDOCK:   -5.39 KCAL/MOL
REMARK 922        TOTAL FREE ENERGY PREDICTED BY IDOCK:   -9.74 KCAL/MOL
REMARK 923 INTER-LIGAND FREE ENERGY PREDICTED BY IDOCK:   -8.23 KCAL/MOL
REMARK 924 INTRA-LIGAND FREE ENERGY PREDICTED BY IDOCK:   -1.51 KCAL/MOL
REMARK 927      BINDING AFFINITY PREDICTED BY RF-SCORE:    0.00 PKD
ROOT
HETATM    1  C   UNL     1     -11.437  12.496  69.308  1.00  0.00    -0.353 C  
HETATM    2  C   UNL     1     -10.391  13.400  68.634  1.00  0.00    -0.205 C  
HETATM    3  C   UNL     1      -9.303  12.821  68.041  1.00  0.00    -0.213 C  
ENDROOT
BRANCH   2   4
HETATM    4  N   UNL     1     -10.731  14.766  68.670  1.00  0.00    -0.245 N  
HETATM    5  C   UNL     1     -10.511  15.538  69.822  1.00  0.00    -0.301 C  
HETATM    6  O   UNL     1     -11.017  16.624  70.065  1.00  0.00    -0.333 OA 
BRANCH   4   7
HETATM    7  C   UNL     1     -11.772  15.291  67.759  1.00  0.00    -0.191 C  
BRANCH   7   8
HETATM    8  C   UNL     1     -11.874  14.550  66.439  1.00  0.00    -0.361 A  
HETATM    9  H2  UNL     1     -10.254  16.557  66.287  1.00  0.00     0.000 HD 
HETATM   10  C   UNL     1     -12.756  13.609  66.041  1.00  0.00    -0.309 A  
HETATM   11  N   UNL     1     -10.768  13.999  64.333  1.00  0.00    -0.320 NA 
HETATM   12  N   UNL     1     -12.615  12.721  64.990  1.00  0.00    -0.640 NA 
HETATM   13  H1  UNL     1      -9.443  16.149  64.770  1.00  0.00     0.000 HD 
HETATM   14  C   UNL     1     -11.228  11.823  63.229  1.00  0.00    -0.357 C  
HETATM   15  N   UNL     1     -10.134  15.933  65.488  1.00  0.00    -0.404 NA 
HETATM   16  C   UNL     1     -11.588  12.906  64.213  1.00  0.00    -0.378 A  
HETATM   17  C   UNL     1     -10.860  14.867  65.386  1.00  0.00    -0.369 A  
ENDBRANCH   7   8
ENDBRANCH   4   7
ENDBRANCH   2   4
BRANCH   3  18
HETATM   18  C   UNL     1      -9.303  11.257  67.747  1.00  0.00    -0.163 C  
BRANCH  18  19
HETATM   19  C   UNL     1      -9.701  10.805  66.288  1.00  0.00    -0.205 C  
BRANCH  19  20
HETATM   20  O   UNL     1     -10.272   9.448  66.163  1.00  0.00    -0.279 OA 
HETATM   21  O   UNL     1      -8.778   7.830  65.874  1.00  0.00    -0.150 OA 
HETATM   22  O   UNL     1     -10.896   7.462  67.021  1.00  0.00    -0.354 OA 
HETATM   23  P   UNL     1      -9.523   8.322  67.242  1.00  0.00    -0.175 P  
HETATM   24  O   UNL     1      -8.853   7.315  68.208  1.00  0.00    -0.128 OA 
ENDBRANCH  19  20
ENDBRANCH  18  19
ENDBRANCH   3  18
BRANCH   3  25
HETATM   25  S   UNL     1      -7.797  13.699  67.497  1.00  0.00    -0.164 SA 
BRANCH  25  26
HETATM   26  C   UNL     1      -7.164  14.864  68.732  1.00  0.00    -0.123 C  
HETATM   27  O   UNL     1      -6.876  14.489  69.863  1.00  0.00    -0.152 OA 
BRANCH  26  28
HETATM   28  C   UNL     1      -7.066  16.371  68.399  1.00  0.00    -0.156 A  
HETATM   29  C   UNL     1      -7.455  18.183  66.737  1.00  0.00    -0.242 A  
HETATM   30  C   UNL     1      -7.480  16.822  67.116  1.00  0.00    -0.216 A  
HETATM   31  C   UNL     1      -6.666  17.377  69.282  1.00  0.00    -0.222 A  
HETATM   32  C   UNL     1      -7.034  19.144  67.647  1.00  0.00    -0.237 A  
HETATM   33  C   UNL     1      -6.646  18.737  68.924  1.00  0.00    -0.286 A  
ENDBRANCH  26  28
ENDBRANCH  25  26
ENDBRANCH   3  25
TORSDOF 9
ENDMDL
MODEL      146
REMARK 921   NORMALIZED FREE ENERGY PREDICTED BY IDOCK:   -5.38 KCAL/MOL
REMARK 922        TOTAL FREE ENERGY PREDICTED BY IDOCK:   -9.72 KCAL/MOL
REMARK 923 INTER-LIGAND FREE ENERGY PREDICTED BY IDOCK:   -8.00 KCAL/MOL
REMARK 924 INTRA-LIGAND FREE ENERGY PREDICTED BY IDOCK:   -1.72 KCAL/MOL
REMARK 927      BINDING AFFINITY PREDICTED BY RF-SCORE:    0.00 PKD
ROOT
HETATM    1  C   UNL     1      -8.829   9.529  63.859  1.00  0.00    -0.240 C  
HETATM    2  C   UNL     1      -8.717   8.938  65.274  1.00  0.00    -0.186 C  
HETATM    3  C   UNL     1      -9.277   9.618  66.319  1.00  0.00    -0.168 C  
ENDROOT
BRANCH   2   4
HETATM    4  N   UNL     1      -8.067   7.688  65.304  1.00  0.00    -0.128 N  
HETATM    5  C   UNL     1      -6.715   7.566  64.947  1.00  0.00    -0.047 C  
HETATM    6  O   UNL     1      -6.140   6.526  64.662  1.00  0.00    -0.032 OA 
BRANCH   4   7
HETATM    7  C   UNL     1      -8.857   6.443  65.186  1.00  0.00     0.166 C  
BRANCH   7   8
HETATM    8  C   UNL     1      -9.534   6.011  66.474  1.00  0.00    -0.177 A  
HETATM    9  H2  UNL     1      -7.326   4.729  66.077  1.00  0.00     0.000 HD 
HETATM   10  C   UNL     1     -10.782   6.265  66.922  1.00  0.00    -0.339 A  
HETATM   11  N   UNL     1      -9.233   5.056  68.700  1.00  0.00    -0.117 NA 
HETATM   12  N   UNL     1     -11.241   6.158  68.222  1.00  0.00    -0.244 NA 
HETATM   13  H1  UNL     1      -7.100   4.052  67.694  1.00  0.00     0.000 HD 
HETATM   14  C   UNL     1     -10.752   5.726  70.547  1.00  0.00    -0.361 C  
HETATM   15  N   UNL     1      -7.644   4.615  67.040  1.00  0.00    -0.086 NA 
HETATM   16  C   UNL     1     -10.424   5.620  69.080  1.00  0.00    -0.269 A  
HETATM   17  C   UNL     1      -8.738   5.185  67.432  1.00  0.00    -0.103 A  
ENDBRANCH   7   8
ENDBRANCH   4   7
ENDBRANCH   2   4
BRANCH   3  18
HETATM   18  C   UNL     1     -10.316  10.791  66.032  1.00  0.00    -0.300 C  
BRANCH  18  19
HETATM   19  C   UNL     1      -9.740  12.260  65.995  1.00  0.00    -0.242 C  
BRANCH  19  20
HETATM   20  O   UNL     1     -10.400  13.190  65.056  1.00  0.00    -0.317 OA 
HETATM   21  O   UNL     1     -11.059  12.275  63.142  1.00  0.00    -0.372 OA 
HETATM   22  O   UNL     1     -12.227  14.155  64.160  1.00  0.00    -0.556 OA 
HETATM   23  P   UNL     1     -11.920  12.584  64.495  1.00  0.00    -0.430 P  
HETATM   24  O   UNL     1     -13.281  12.041  63.994  1.00  0.00    -0.681 OA 
ENDBRANCH  19  20
ENDBRANCH  18  19
ENDBRANCH   3  18
BRANCH   3  25
HETATM   25  S   UNL     1      -8.973   9.286  68.088  1.00  0.00    -0.128 SA 
BRANCH  25  26
HETATM   26  C   UNL     1      -9.691  10.537  69.184  1.00  0.00    -0.211 C  
HETATM   27  O   UNL     1      -9.281  11.693  69.175  1.00  0.00     0.097 OA 
BRANCH  26  28
HETATM   28  C   UNL     1     -10.772  10.138  70.216  1.00  0.00    -0.352 A  
HETATM   29  C   UNL     1     -13.141  10.331  70.956  1.00  0.00    -0.458 A  
HETATM   30  C   UNL     1     -12.085  10.665  70.079  1.00  0.00    -0.393 A  
HETATM   31  C   UNL     1     -10.603   9.228  71.263  1.00  0.00    -0.417 A  
HETATM   32  C   UNL     1     -12.918   9.432  71.992  1.00  0.00    -0.508 A  
HETATM   33  C   UNL     1     -11.647   8.876  72.138  1.00  0.00    -0.400 A  
ENDBRANCH  26  28
ENDBRANCH  25  26
ENDBRANCH   3  25
TORSDOF 9
ENDMDL
MODEL      147
REMARK 921   NORMALIZED FREE ENERGY PREDICTED BY IDOCK:   -5.37 KCAL/MOL
REMARK 922        TOTAL FREE ENERGY PREDICTED BY IDOCK:   -9.70 KCAL/MOL
REMARK 923 INTER-LIGAND FREE ENERGY PREDICTED BY IDOCK:   -7.96 KCAL/MOL
REMARK 924 INTRA-LIGAND FREE ENERGY PREDICTED BY IDOCK:   -1.75 KCAL/MOL
REMARK 927      BINDING AFFINITY PREDICTED BY RF-SCORE:    0.00 PKD
ROOT
HETATM    1  C   UNL     1     -10.805   6.004  69.564  1.00  0.00    -0.439 C  
HETATM    2  C   UNL     1     -10.315   7.438  69.298  1.00  0.00    -0.204 C  
HETATM    3  C   UNL     1      -9.989   7.796  68.020  1.00  0.00    -0.175 C  
ENDROOT
BRANCH   2   4
HETATM    4  N   UNL     1     -10.318   8.248  70.450  1.00  0.00    -0.202 N  
HETATM    5  C   UNL     1      -9.141   8.468  71.184  1.00  0.00    -0.190 C  
HETATM    6  O   UNL     1      -9.079   8.899  72.326  1.00  0.00    -0.381 OA 
BRANCH   4   7
HETATM    7  C   UNL     1     -11.571   8.446  71.210  1.00  0.00    -0.283 C  
BRANCH   7   8
HETATM    8  C   UNL     1     -12.157   9.841  71.091  1.00  0.00    -0.460 A  
HETATM    9  H2  UNL     1     -13.666   8.286  72.499  1.00  0.00     0.000 HD 
HETATM   10  C   UNL     1     -11.807  10.860  70.279  1.00  0.00    -0.361 A  
HETATM   11  N   UNL     1     -13.612  11.521  72.102  1.00  0.00    -0.192 NA 
HETATM   12  N   UNL     1     -12.119  12.198  70.434  1.00  0.00    -0.352 NA 
HETATM   13  H1  UNL     1     -14.708   9.504  73.243  1.00  0.00     0.000 HD 
HETATM   14  C   UNL     1     -13.122  13.934  71.780  1.00  0.00    -0.458 C  
HETATM   15  N   UNL     1     -13.934   9.262  72.624  1.00  0.00    -0.438 NA 
HETATM   16  C   UNL     1     -12.958  12.489  71.385  1.00  0.00    -0.251 A  
HETATM   17  C   UNL     1     -13.292  10.195  71.998  1.00  0.00    -0.387 A  
ENDBRANCH   7   8
ENDBRANCH   4   7
ENDBRANCH   2   4
BRANCH   3  18
HETATM   18  C   UNL     1     -10.440   6.876  66.801  1.00  0.00    -0.300 C  
BRANCH  18  19
HETATM   19  C   UNL     1      -9.423   5.765  66.331  1.00  0.00    -0.156 C  
BRANCH  19  20
HETATM   20  O   UNL     1      -8.126   6.250  65.814  1.00  0.00    -0.113 OA 
HETATM   21  O   UNL     1      -6.579   6.612  67.367  1.00  0.00    -0.052 OA 
HETATM   22  O   UNL     1      -6.017   5.921  65.099  1.00  0.00    -0.024 OA 
HETATM   23  P   UNL     1      -6.797   5.312  66.402  1.00  0.00    -0.061 P  
HETATM   24  O   UNL     1      -5.607   4.472  66.927  1.00  0.00    -0.013 OA 
ENDBRANCH  19  20
ENDBRANCH  18  19
ENDBRANCH   3  18
BRANCH   3  25
HETATM   25  S   UNL     1      -9.078   9.304  67.540  1.00  0.00    -0.120 SA 
BRANCH  25  26
HETATM   26  C   UNL     1     -10.026  10.393  66.445  1.00  0.00    -0.221 C  
HETATM   27  O   UNL     1     -10.353  10.028  65.321  1.00  0.00    -0.236 OA 
BRANCH  26  28
HETATM   28  C   UNL     1     -10.355  11.839  66.884  1.00  0.00    -0.247 A  
HETATM   29  C   UNL     1     -12.006  13.702  66.907  1.00  0.00    -0.454 A  
HETATM   30  C   UNL     1     -11.610  12.401  66.524  1.00  0.00    -0.447 A  
HETATM   31  C   UNL     1      -9.547  12.653  67.683  1.00  0.00    -0.188 A  
HETATM   32  C   UNL     1     -11.160  14.477  67.690  1.00  0.00    -0.314 A  
HETATM   33  C   UNL     1      -9.932  13.945  68.083  1.00  0.00    -0.240 A  
ENDBRANCH  26  28
ENDBRANCH  25  26
ENDBRANCH   3  25
TORSDOF 9
ENDMDL
MODEL      148
REMARK 921   NORMALIZED FREE ENERGY PREDICTED BY IDOCK:   -5.36 KCAL/MOL
REMARK 922        TOTAL FREE ENERGY PREDICTED BY IDOCK:   -9.69 KCAL/MOL
REMARK 923 INTER-LIGAND FREE ENERGY PREDICTED BY IDOCK:   -8.30 KCAL/MOL
REMARK 924 INTRA-LIGAND FREE ENERGY PREDICTED BY IDOCK:   -1.39 KCAL/MOL
REMARK 927      BINDING AFFINITY PREDICTED BY RF-SCORE:    0.00 PKD
ROOT
HETATM    1  C   UNL     1      -8.996  12.889  66.501  1.00  0.00    -0.086 C  
HETATM    2  C   UNL     1     -10.310  12.311  67.053  1.00  0.00    -0.219 C  
HETATM    3  C   UNL     1     -10.251  11.321  67.994  1.00  0.00    -0.183 C  
ENDROOT
BRANCH   2   4
HETATM    4  N   UNL     1     -11.456  12.943  66.532  1.00  0.00    -0.323 N  
HETATM    5  C   UNL     1     -12.056  12.493  65.345  1.00  0.00    -0.435 C  
HETATM    6  O   UNL     1     -12.852  13.119  64.662  1.00  0.00    -0.693 OA 
BRANCH   4   7
HETATM    7  C   UNL     1     -11.743  14.352  66.879  1.00  0.00    -0.402 C  
BRANCH   7   8
HETATM    8  C   UNL     1     -11.613  14.668  68.357  1.00  0.00    -0.351 A  
HETATM    9  H2  UNL     1     -10.000  16.094  66.929  1.00  0.00     0.000 HD 
HETATM   10  C   UNL     1     -12.099  14.007  69.429  1.00  0.00    -0.340 A  
HETATM   11  N   UNL     1     -10.988  16.337  70.026  1.00  0.00    -0.361 NA 
HETATM   12  N   UNL     1     -12.260  14.498  70.712  1.00  0.00    -0.309 NA 
HETATM   13  H1  UNL     1      -9.560  17.311  68.133  1.00  0.00     0.000 HD 
HETATM   14  C   UNL     1     -12.137  16.374  72.227  1.00  0.00    -0.462 C  
HETATM   15  N   UNL     1     -10.082  16.474  67.872  1.00  0.00    -0.249 NA 
HETATM   16  C   UNL     1     -11.759  15.675  70.947  1.00  0.00    -0.387 A  
HETATM   17  C   UNL     1     -10.848  15.895  68.739  1.00  0.00    -0.284 A  
ENDBRANCH   7   8
ENDBRANCH   4   7
ENDBRANCH   2   4
BRANCH   3  18
HETATM   18  C   UNL     1      -8.881  11.030  68.751  1.00  0.00    -0.149 C  
BRANCH  18  19
HETATM   19  C   UNL     1      -8.370   9.538  68.753  1.00  0.00    -0.117 C  
BRANCH  19  20
HETATM   20  O   UNL     1      -9.026   8.626  67.793  1.00  0.00    -0.135 OA 
HETATM   21  O   UNL     1      -7.790   8.078  66.031  1.00  0.00    -0.088 OA 
HETATM   22  O   UNL     1      -9.463   6.576  66.971  1.00  0.00    -0.129 OA 
HETATM   23  P   UNL     1      -8.043   7.253  67.418  1.00  0.00    -0.113 P  
HETATM   24  O   UNL     1      -7.163   6.025  67.083  1.00  0.00    -0.072 OA 
ENDBRANCH  19  20
ENDBRANCH  18  19
ENDBRANCH   3  18
BRANCH   3  25
HETATM   25  S   UNL     1     -11.650  10.273  68.522  1.00  0.00     0.141 SA 
BRANCH  25  26
HETATM   26  C   UNL     1     -11.736  10.048  70.318  1.00  0.00    -0.251 C  
HETATM   27  O   UNL     1     -11.925  11.001  71.064  1.00  0.00    -0.318 OA 
BRANCH  26  28
HETATM   28  C   UNL     1     -11.476   8.655  70.938  1.00  0.00    -0.315 A  
HETATM   29  C   UNL     1     -11.105   6.223  70.556  1.00  0.00    -0.399 A  
HETATM   30  C   UNL     1     -11.371   7.526  70.080  1.00  0.00    -0.170 A  
HETATM   31  C   UNL     1     -11.258   8.394  72.293  1.00  0.00    -0.446 A  
HETATM   32  C   UNL     1     -10.910   6.013  71.916  1.00  0.00    -0.304 A  
HETATM   33  C   UNL     1     -10.980   7.104  72.782  1.00  0.00    -0.346 A  
ENDBRANCH  26  28
ENDBRANCH  25  26
ENDBRANCH   3  25
TORSDOF 9
ENDMDL
MODEL      149
REMARK 921   NORMALIZED FREE ENERGY PREDICTED BY IDOCK:   -5.36 KCAL/MOL
REMARK 922        TOTAL FREE ENERGY PREDICTED BY IDOCK:   -9.68 KCAL/MOL
REMARK 923 INTER-LIGAND FREE ENERGY PREDICTED BY IDOCK:   -8.40 KCAL/MOL
REMARK 924 INTRA-LIGAND FREE ENERGY PREDICTED BY IDOCK:   -1.28 KCAL/MOL
REMARK 927      BINDING AFFINITY PREDICTED BY RF-SCORE:    0.00 PKD
ROOT
HETATM    1  C   UNL     1      -7.755  10.869  67.951  1.00  0.00    -0.104 C  
HETATM    2  C   UNL     1      -9.008  10.229  68.572  1.00  0.00    -0.134 C  
HETATM    3  C   UNL     1     -10.239  10.647  68.150  1.00  0.00    -0.168 C  
ENDROOT
BRANCH   2   4
HETATM    4  N   UNL     1      -8.710   9.211  69.499  1.00  0.00    -0.134 N  
HETATM    5  C   UNL     1      -7.912   9.468  70.626  1.00  0.00    -0.117 C  
HETATM    6  O   UNL     1      -7.362   8.627  71.321  1.00  0.00    -0.078 OA 
BRANCH   4   7
HETATM    7  C   UNL     1      -8.754   7.794  69.078  1.00  0.00    -0.135 C  
BRANCH   7   8
HETATM    8  C   UNL     1      -9.598   6.905  69.973  1.00  0.00    -0.158 A  
HETATM    9  H2  UNL     1      -7.376   5.765  69.313  1.00  0.00     0.000 HD 
HETATM   10  C   UNL     1     -10.889   7.030  70.346  1.00  0.00    -0.254 A  
HETATM   11  N   UNL     1      -9.600   5.081  71.596  1.00  0.00    -0.151 NA 
HETATM   12  N   UNL     1     -11.514   6.415  71.416  1.00  0.00    -0.299 NA 
HETATM   13  H1  UNL     1      -7.370   4.454  70.499  1.00  0.00     0.000 HD 
HETATM   14  C   UNL     1     -11.335   5.009  73.371  1.00  0.00    -0.345 C  
HETATM   15  N   UNL     1      -7.817   5.276  70.093  1.00  0.00    -0.078 NA 
HETATM   16  C   UNL     1     -10.822   5.510  72.046  1.00  0.00    -0.226 A  
HETATM   17  C   UNL     1      -8.944   5.700  70.568  1.00  0.00    -0.138 A  
ENDBRANCH   7   8
ENDBRANCH   4   7
ENDBRANCH   2   4
BRANCH   3  18
HETATM   18  C   UNL     1     -10.369  11.502  66.814  1.00  0.00    -0.262 C  
BRANCH  18  19
HETATM   19  C   UNL     1     -11.214  12.832  66.897  1.00  0.00    -0.296 C  
BRANCH  19  20
HETATM   20  O   UNL     1     -10.778  13.934  66.014  1.00  0.00    -0.282 OA 
HETATM   21  O   UNL     1     -10.459  13.359  63.892  1.00  0.00    -0.253 OA 
HETATM   22  O   UNL     1     -11.185  15.591  64.545  1.00  0.00    -0.393 OA 
HETATM   23  P   UNL     1     -11.757  14.059  64.593  1.00  0.00    -0.424 P  
HETATM   24  O   UNL     1     -12.634  14.172  63.322  1.00  0.00    -0.766 OA 
ENDBRANCH  19  20
ENDBRANCH  18  19
ENDBRANCH   3  18
BRANCH   3  25
HETATM   25  S   UNL     1     -11.826  10.282  68.977  1.00  0.00     0.213 SA 
BRANCH  25  26
HETATM   26  C   UNL     1     -11.923  10.945  70.661  1.00  0.00    -0.368 C  
HETATM   27  O   UNL     1     -11.598  10.264  71.627  1.00  0.00    -0.191 OA 
BRANCH  26  28
HETATM   28  C   UNL     1     -12.509  12.354  70.907  1.00  0.00    -0.367 A  
HETATM   29  C   UNL     1     -13.998  13.798  72.284  1.00  0.00    -0.672 A  
HETATM   30  C   UNL     1     -13.436  12.541  71.968  1.00  0.00    -0.486 A  
HETATM   31  C   UNL     1     -12.158  13.516  70.215  1.00  0.00    -0.425 A  
HETATM   32  C   UNL     1     -13.628  14.921  71.556  1.00  0.00    -0.511 A  
HETATM   33  C   UNL     1     -12.699  14.777  70.524  1.00  0.00    -0.397 A  
ENDBRANCH  26  28
ENDBRANCH  25  26
ENDBRANCH   3  25
TORSDOF 9
ENDMDL
MODEL      150
REMARK 921   NORMALIZED FREE ENERGY PREDICTED BY IDOCK:   -5.35 KCAL/MOL
REMARK 922        TOTAL FREE ENERGY PREDICTED BY IDOCK:   -9.68 KCAL/MOL
REMARK 923 INTER-LIGAND FREE ENERGY PREDICTED BY IDOCK:   -8.06 KCAL/MOL
REMARK 924 INTRA-LIGAND FREE ENERGY PREDICTED BY IDOCK:   -1.62 KCAL/MOL
REMARK 927      BINDING AFFINITY PREDICTED BY RF-SCORE:    0.00 PKD
ROOT
HETATM    1  C   UNL     1      -9.321   7.032  66.687  1.00  0.00    -0.203 C  
HETATM    2  C   UNL     1      -8.536   8.242  67.220  1.00  0.00    -0.124 C  
HETATM    3  C   UNL     1      -8.574   9.414  66.516  1.00  0.00    -0.134 C  
ENDROOT
BRANCH   2   4
HETATM    4  N   UNL     1      -7.894   7.991  68.448  1.00  0.00    -0.120 N  
HETATM    5  C   UNL     1      -6.515   8.209  68.602  1.00  0.00    -0.053 C  
HETATM    6  O   UNL     1      -5.816   7.765  69.501  1.00  0.00    -0.023 OA 
BRANCH   4   7
HETATM    7  C   UNL     1      -8.483   7.031  69.405  1.00  0.00    -0.133 C  
BRANCH   7   8
HETATM    8  C   UNL     1      -9.662   7.577  70.189  1.00  0.00    -0.172 A  
HETATM    9  H2  UNL     1      -7.467   8.799  70.789  1.00  0.00     0.000 HD 
HETATM   10  C   UNL     1     -10.909   7.081  70.333  1.00  0.00    -0.254 A  
HETATM   11  N   UNL     1     -10.597   9.500  71.367  1.00  0.00    -0.309 NA 
HETATM   12  N   UNL     1     -12.037   7.762  70.753  1.00  0.00    -0.170 NA 
HETATM   13  H1  UNL     1      -8.145  10.200  71.628  1.00  0.00     0.000 HD 
HETATM   14  C   UNL     1     -13.054   9.855  71.399  1.00  0.00    -0.500 C  
HETATM   15  N   UNL     1      -8.276   9.320  71.128  1.00  0.00    -0.324 NA 
HETATM   16  C   UNL     1     -11.851   8.973  71.191  1.00  0.00    -0.301 A  
HETATM   17  C   UNL     1      -9.470   8.866  70.923  1.00  0.00    -0.236 A  
ENDBRANCH   7   8
ENDBRANCH   4   7
ENDBRANCH   2   4
BRANCH   3  18
HETATM   18  C   UNL     1      -9.676   9.622  65.386  1.00  0.00    -0.365 C  
BRANCH  18  19
HETATM   19  C   UNL     1      -9.967  11.107  64.937  1.00  0.00    -0.278 C  
BRANCH  19  20
HETATM   20  O   UNL     1     -11.266  11.340  64.273  1.00  0.00    -0.299 OA 
HETATM   21  O   UNL     1     -12.785  12.364  65.529  1.00  0.00    -0.530 OA 
HETATM   22  O   UNL     1     -12.707  12.619  63.108  1.00  0.00    -0.605 OA 
HETATM   23  P   UNL     1     -11.779  12.987  64.404  1.00  0.00    -0.432 P  
HETATM   24  O   UNL     1     -12.239  14.461  64.520  1.00  0.00    -0.456 OA 
ENDBRANCH  19  20
ENDBRANCH  18  19
ENDBRANCH   3  18
BRANCH   3  25
HETATM   25  S   UNL     1      -7.466  10.842  66.771  1.00  0.00    -0.140 SA 
BRANCH  25  26
HETATM   26  C   UNL     1      -7.935  11.867  68.190  1.00  0.00    -0.151 C  
HETATM   27  O   UNL     1      -7.206  11.957  69.171  1.00  0.00    -0.096 OA 
BRANCH  26  28
HETATM   28  C   UNL     1      -9.312  12.569  68.218  1.00  0.00    -0.193 A  
HETATM   29  C   UNL     1     -11.715  12.455  68.861  1.00  0.00    -0.372 A  
HETATM   30  C   UNL     1     -10.428  11.880  68.766  1.00  0.00    -0.207 A  
HETATM   31  C   UNL     1      -9.567  13.881  67.810  1.00  0.00    -0.222 A  
HETATM   32  C   UNL     1     -11.920  13.759  68.427  1.00  0.00    -0.395 A  
HETATM   33  C   UNL     1     -10.840  14.473  67.907  1.00  0.00    -0.260 A  
ENDBRANCH  26  28
ENDBRANCH  25  26
ENDBRANCH   3  25
TORSDOF 9
ENDMDL
MODEL      151
REMARK 921   NORMALIZED FREE ENERGY PREDICTED BY IDOCK:   -5.34 KCAL/MOL
REMARK 922        TOTAL FREE ENERGY PREDICTED BY IDOCK:   -9.66 KCAL/MOL
REMARK 923 INTER-LIGAND FREE ENERGY PREDICTED BY IDOCK:   -8.27 KCAL/MOL
REMARK 924 INTRA-LIGAND FREE ENERGY PREDICTED BY IDOCK:   -1.39 KCAL/MOL
REMARK 927      BINDING AFFINITY PREDICTED BY RF-SCORE:    0.00 PKD
ROOT
HETATM    1  C   UNL     1      -7.570  10.027  65.861  1.00  0.00    -0.114 C  
HETATM    2  C   UNL     1      -8.955   9.384  66.045  1.00  0.00    -0.168 C  
HETATM    3  C   UNL     1      -9.097   8.371  66.952  1.00  0.00    -0.148 C  
ENDROOT
BRANCH   2   4
HETATM    4  N   UNL     1      -9.956   9.987  65.258  1.00  0.00    -0.324 N  
HETATM    5  C   UNL     1      -9.676  10.458  63.966  1.00  0.00    -0.311 C  
HETATM    6  O   UNL     1     -10.364  11.236  63.322  1.00  0.00    -0.362 OA 
BRANCH   4   7
HETATM    7  C   UNL     1     -11.128  10.612  65.908  1.00  0.00     0.271 C  
BRANCH   7   8
HETATM    8  C   UNL     1     -10.918  12.060  66.310  1.00  0.00    -0.340 A  
HETATM    9  H2  UNL     1     -12.859  11.808  64.624  1.00  0.00     0.000 HD 
HETATM   10  C   UNL     1      -9.893  12.633  66.976  1.00  0.00    -0.225 A  
HETATM   11  N   UNL     1     -11.940  14.263  66.560  1.00  0.00    -0.425 NA 
HETATM   12  N   UNL     1      -9.895  13.857  67.620  1.00  0.00    -0.232 NA 
HETATM   13  H1  UNL     1     -13.608  13.397  64.817  1.00  0.00     0.000 HD 
HETATM   14  C   UNL     1     -11.130  15.807  68.328  1.00  0.00    -0.342 C  
HETATM   15  N   UNL     1     -12.881  12.726  65.066  1.00  0.00    -0.821 NA 
HETATM   16  C   UNL     1     -10.948  14.600  67.444  1.00  0.00    -0.308 A  
HETATM   17  C   UNL     1     -11.984  13.043  65.944  1.00  0.00    -0.435 A  
ENDBRANCH   7   8
ENDBRANCH   4   7
ENDBRANCH   2   4
BRANCH   3  18
HETATM   18  C   UNL     1      -7.955   8.111  68.031  1.00  0.00    -0.127 C  
BRANCH  18  19
HETATM   19  C   UNL     1      -8.214   8.654  69.489  1.00  0.00    -0.115 C  
BRANCH  19  20
HETATM   20  O   UNL     1      -7.591   7.886  70.587  1.00  0.00    -0.074 OA 
HETATM   21  O   UNL     1      -7.140   9.068  72.413  1.00  0.00    -0.326 OA 
HETATM   22  O   UNL     1      -7.694   6.697  72.496  1.00  0.00    -0.097 OA 
HETATM   23  P   UNL     1      -8.419   8.105  72.090  1.00  0.00    -0.186 P  
HETATM   24  O   UNL     1      -9.161   8.301  73.435  1.00  0.00    -0.247 OA 
ENDBRANCH  19  20
ENDBRANCH  18  19
ENDBRANCH   3  18
BRANCH   3  25
HETATM   25  S   UNL     1     -10.536   7.255  67.082  1.00  0.00    -0.344 SA 
BRANCH  25  26
HETATM   26  C   UNL     1     -10.203   5.772  68.068  1.00  0.00    -0.187 C  
HETATM   27  O   UNL     1      -9.732   4.764  67.552  1.00  0.00    -0.156 OA 
BRANCH  26  28
HETATM   28  C   UNL     1     -10.599   5.728  69.562  1.00  0.00    -0.390 A  
HETATM   29  C   UNL     1     -10.196   4.743  71.813  1.00  0.00    -0.258 A  
HETATM   30  C   UNL     1      -9.921   4.829  70.430  1.00  0.00    -0.315 A  
HETATM   31  C   UNL     1     -11.538   6.556  70.182  1.00  0.00    -0.466 A  
HETATM   32  C   UNL     1     -11.150   5.580  72.379  1.00  0.00    -0.312 A  
HETATM   33  C   UNL     1     -11.816   6.492  71.559  1.00  0.00    -0.386 A  
ENDBRANCH  26  28
ENDBRANCH  25  26
ENDBRANCH   3  25
TORSDOF 9
ENDMDL
MODEL      152
REMARK 921   NORMALIZED FREE ENERGY PREDICTED BY IDOCK:   -5.30 KCAL/MOL
REMARK 922        TOTAL FREE ENERGY PREDICTED BY IDOCK:   -9.60 KCAL/MOL
REMARK 923 INTER-LIGAND FREE ENERGY PREDICTED BY IDOCK:   -8.43 KCAL/MOL
REMARK 924 INTRA-LIGAND FREE ENERGY PREDICTED BY IDOCK:   -1.17 KCAL/MOL
REMARK 927      BINDING AFFINITY PREDICTED BY RF-SCORE:    0.00 PKD
ROOT
HETATM    1  C   UNL     1     -10.913   5.902  69.947  1.00  0.00    -0.444 C  
HETATM    2  C   UNL     1     -10.988   7.411  70.236  1.00  0.00    -0.255 C  
HETATM    3  C   UNL     1     -10.503   8.286  69.304  1.00  0.00    -0.210 C  
ENDROOT
BRANCH   2   4
HETATM    4  N   UNL     1     -11.625   7.712  71.456  1.00  0.00    -0.266 N  
HETATM    5  C   UNL     1     -12.996   8.009  71.503  1.00  0.00    -0.303 C  
HETATM    6  O   UNL     1     -13.580   8.554  72.429  1.00  0.00    -0.333 OA 
BRANCH   4   7
HETATM    7  C   UNL     1     -10.835   8.237  72.591  1.00  0.00    -0.311 C  
BRANCH   7   8
HETATM    8  C   UNL     1      -9.528   7.504  72.831  1.00  0.00    -0.239 A  
HETATM    9  H2  UNL     1     -11.458   6.498  74.223  1.00  0.00     0.000 HD 
HETATM   10  C   UNL     1      -8.269   7.844  72.481  1.00  0.00    -0.139 A  
HETATM   11  N   UNL     1      -8.473   5.406  73.499  1.00  0.00    -0.113 NA 
HETATM   12  N   UNL     1      -7.168   7.009  72.405  1.00  0.00    -0.072 NA 
HETATM   13  H1  UNL     1     -10.700   4.972  74.693  1.00  0.00     0.000 HD 
HETATM   14  C   UNL     1      -6.269   4.773  72.548  1.00  0.00    -0.026 C  
HETATM   15  N   UNL     1     -10.658   5.866  74.202  1.00  0.00    -0.224 NA 
HETATM   16  C   UNL     1      -7.329   5.799  72.853  1.00  0.00    -0.091 A  
HETATM   17  C   UNL     1      -9.589   6.195  73.551  1.00  0.00    -0.147 A  
ENDBRANCH   7   8
ENDBRANCH   4   7
ENDBRANCH   2   4
BRANCH   3  18
HETATM   18  C   UNL     1     -10.203   7.778  67.825  1.00  0.00    -0.271 C  
BRANCH  18  19
HETATM   19  C   UNL     1     -10.479   8.796  66.651  1.00  0.00    -0.170 C  
BRANCH  19  20
HETATM   20  O   UNL     1      -9.420   9.793  66.396  1.00  0.00    -0.163 OA 
HETATM   21  O   UNL     1      -8.646   9.821  64.314  1.00  0.00    -0.159 OA 
HETATM   22  O   UNL     1      -8.713  11.817  65.708  1.00  0.00    -0.039 OA 
HETATM   23  P   UNL     1      -9.768  10.777  65.016  1.00  0.00    -0.320 P  
HETATM   24  O   UNL     1     -10.080  11.658  63.782  1.00  0.00    -0.311 OA 
ENDBRANCH  19  20
ENDBRANCH  18  19
ENDBRANCH   3  18
BRANCH   3  25
HETATM   25  S   UNL     1     -10.182  10.061  69.580  1.00  0.00    -0.251 SA 
BRANCH  25  26
HETATM   26  C   UNL     1     -11.611  11.112  69.211  1.00  0.00    -0.318 C  
HETATM   27  O   UNL     1     -12.141  11.090  68.105  1.00  0.00    -0.610 OA 
BRANCH  26  28
HETATM   28  C   UNL     1     -12.124  12.123  70.263  1.00  0.00    -0.385 A  
HETATM   29  C   UNL     1     -12.359  14.506  70.945  1.00  0.00    -0.415 A  
HETATM   30  C   UNL     1     -11.900  13.511  70.053  1.00  0.00    -0.371 A  
HETATM   31  C   UNL     1     -12.871  11.807  71.401  1.00  0.00    -0.440 A  
HETATM   32  C   UNL     1     -13.084  14.139  72.072  1.00  0.00    -0.472 A  
HETATM   33  C   UNL     1     -13.345  12.786  72.293  1.00  0.00    -0.563 A  
ENDBRANCH  26  28
ENDBRANCH  25  26
ENDBRANCH   3  25
TORSDOF 9
ENDMDL
MODEL      153
REMARK 921   NORMALIZED FREE ENERGY PREDICTED BY IDOCK:   -5.30 KCAL/MOL
REMARK 922        TOTAL FREE ENERGY PREDICTED BY IDOCK:   -9.59 KCAL/MOL
REMARK 923 INTER-LIGAND FREE ENERGY PREDICTED BY IDOCK:   -7.48 KCAL/MOL
REMARK 924 INTRA-LIGAND FREE ENERGY PREDICTED BY IDOCK:   -2.11 KCAL/MOL
REMARK 927      BINDING AFFINITY PREDICTED BY RF-SCORE:    0.00 PKD
ROOT
HETATM    1  C   UNL     1      -6.335  11.342  66.719  1.00  0.00    -0.142 C  
HETATM    2  C   UNL     1      -7.703  10.690  66.457  1.00  0.00    -0.137 C  
HETATM    3  C   UNL     1      -8.758  11.027  67.258  1.00  0.00    -0.129 C  
ENDROOT
BRANCH   2   4
HETATM    4  N   UNL     1      -7.704   9.830  65.341  1.00  0.00    -0.117 N  
HETATM    5  C   UNL     1      -8.607  10.019  64.282  1.00  0.00    -0.189 C  
HETATM    6  O   UNL     1      -8.890   9.193  63.427  1.00  0.00    -0.186 OA 
BRANCH   4   7
HETATM    7  C   UNL     1      -7.173   8.456  65.469  1.00  0.00    -0.079 C  
BRANCH   7   8
HETATM    8  C   UNL     1      -8.001   7.549  66.360  1.00  0.00    -0.107 A  
HETATM    9  H2  UNL     1      -5.783   8.235  67.492  1.00  0.00     0.000 HD 
HETATM   10  C   UNL     1      -9.090   6.807  66.066  1.00  0.00    -0.072 A  
HETATM   11  N   UNL     1      -8.506   6.868  68.650  1.00  0.00    -0.121 NA 
HETATM   12  N   UNL     1     -10.009   6.281  66.956  1.00  0.00    -0.147 NA 
HETATM   13  H1  UNL     1      -6.155   7.756  69.153  1.00  0.00     0.000 HD 
HETATM   14  C   UNL     1     -10.791   6.091  69.232  1.00  0.00    -0.428 C  
HETATM   15  N   UNL     1      -6.429   7.836  68.173  1.00  0.00    -0.052 NA 
HETATM   16  C   UNL     1      -9.717   6.391  68.219  1.00  0.00    -0.127 A  
HETATM   17  C   UNL     1      -7.599   7.431  67.795  1.00  0.00    -0.107 A  
ENDBRANCH   7   8
ENDBRANCH   4   7
ENDBRANCH   2   4
BRANCH   3  18
HETATM   18  C   UNL     1      -8.661  12.312  68.193  1.00  0.00    -0.186 C  
BRANCH  18  19
HETATM   19  C   UNL     1      -9.133  13.684  67.572  1.00  0.00    -0.213 C  
BRANCH  19  20
HETATM   20  O   UNL     1      -9.970  13.592  66.358  1.00  0.00    -0.281 OA 
HETATM   21  O   UNL     1     -11.757  14.911  66.354  1.00  0.00    -0.307 OA 
HETATM   22  O   UNL     1     -10.590  14.288  64.308  1.00  0.00    -0.177 OA 
HETATM   23  P   UNL     1     -10.293  15.146  65.669  1.00  0.00    -0.415 P  
HETATM   24  O   UNL     1     -10.583  16.536  65.052  1.00  0.00    -0.670 OA 
ENDBRANCH  19  20
ENDBRANCH  18  19
ENDBRANCH   3  18
BRANCH   3  25
HETATM   25  S   UNL     1     -10.351  10.139  67.347  1.00  0.00    -0.255 SA 
BRANCH  25  26
HETATM   26  C   UNL     1     -11.499  10.850  68.555  1.00  0.00    -0.310 C  
HETATM   27  O   UNL     1     -12.051  11.924  68.343  1.00  0.00    -0.448 OA 
BRANCH  26  28
HETATM   28  C   UNL     1     -11.725  10.152  69.915  1.00  0.00    -0.248 A  
HETATM   29  C   UNL     1     -10.724   8.929  71.839  1.00  0.00    -0.426 A  
HETATM   30  C   UNL     1     -10.616   9.561  70.581  1.00  0.00    -0.374 A  
HETATM   31  C   UNL     1     -12.934  10.099  70.615  1.00  0.00    -0.296 A  
HETATM   32  C   UNL     1     -11.952   8.890  72.488  1.00  0.00    -0.219 A  
HETATM   33  C   UNL     1     -13.056   9.484  71.874  1.00  0.00    -0.517 A  
ENDBRANCH  26  28
ENDBRANCH  25  26
ENDBRANCH   3  25
TORSDOF 9
ENDMDL
MODEL      154
REMARK 921   NORMALIZED FREE ENERGY PREDICTED BY IDOCK:   -5.28 KCAL/MOL
REMARK 922        TOTAL FREE ENERGY PREDICTED BY IDOCK:   -9.56 KCAL/MOL
REMARK 923 INTER-LIGAND FREE ENERGY PREDICTED BY IDOCK:   -7.86 KCAL/MOL
REMARK 924 INTRA-LIGAND FREE ENERGY PREDICTED BY IDOCK:   -1.70 KCAL/MOL
REMARK 927      BINDING AFFINITY PREDICTED BY RF-SCORE:    0.00 PKD
ROOT
HETATM    1  C   UNL     1      -6.869  10.077  69.506  1.00  0.00    -0.071 C  
HETATM    2  C   UNL     1      -8.001  10.381  68.511  1.00  0.00    -0.114 C  
HETATM    3  C   UNL     1      -9.290  10.102  68.873  1.00  0.00    -0.179 C  
ENDROOT
BRANCH   2   4
HETATM    4  N   UNL     1      -7.549  10.985  67.322  1.00  0.00    -0.106 N  
HETATM    5  C   UNL     1      -7.294  10.220  66.172  1.00  0.00    -0.122 C  
HETATM    6  O   UNL     1      -6.641  10.579  65.203  1.00  0.00    -0.112 OA 
BRANCH   4   7
HETATM    7  C   UNL     1      -6.838  12.281  67.377  1.00  0.00    -0.145 C  
BRANCH   7   8
HETATM    8  C   UNL     1      -7.713  13.454  67.782  1.00  0.00    -0.161 A  
HETATM    9  H2  UNL     1      -6.003  12.854  69.624  1.00  0.00     0.000 HD 
HETATM   10  C   UNL     1      -8.845  13.923  67.217  1.00  0.00    -0.221 A  
HETATM   11  N   UNL     1      -7.900  15.463  69.155  1.00  0.00    -0.194 NA 
HETATM   12  N   UNL     1      -9.411  15.173  67.394  1.00  0.00    -0.202 NA 
HETATM   13  H1  UNL     1      -6.127  14.317  70.609  1.00  0.00     0.000 HD 
HETATM   14  C   UNL     1      -9.262  17.381  68.359  1.00  0.00    -0.277 C  
HETATM   15  N   UNL     1      -6.413  13.773  69.794  1.00  0.00    -0.110 NA 
HETATM   16  C   UNL     1      -8.875  15.926  68.309  1.00  0.00    -0.179 A  
HETATM   17  C   UNL     1      -7.295  14.250  68.976  1.00  0.00    -0.117 A  
ENDBRANCH   7   8
ENDBRANCH   4   7
ENDBRANCH   2   4
BRANCH   3  18
HETATM   18  C   UNL     1      -9.637   9.810  70.399  1.00  0.00    -0.223 C  
BRANCH  18  19
HETATM   19  C   UNL     1     -11.153   9.926  70.822  1.00  0.00    -0.347 C  
BRANCH  19  20
HETATM   20  O   UNL     1     -11.606   8.991  71.872  1.00  0.00    -0.345 OA 
HETATM   21  O   UNL     1     -12.890   7.328  71.152  1.00  0.00    -0.351 OA 
HETATM   22  O   UNL     1     -11.410   7.096  73.073  1.00  0.00    -0.261 OA 
HETATM   23  P   UNL     1     -11.286   7.341  71.460  1.00  0.00    -0.274 P  
HETATM   24  O   UNL     1     -11.000   5.865  71.092  1.00  0.00    -0.270 OA 
ENDBRANCH  19  20
ENDBRANCH  18  19
ENDBRANCH   3  18
BRANCH   3  25
HETATM   25  S   UNL     1     -10.725  10.060  67.744  1.00  0.00    -0.280 SA 
BRANCH  25  26
HETATM   26  C   UNL     1     -11.468  11.690  67.472  1.00  0.00    -0.289 C  
HETATM   27  O   UNL     1     -11.885  12.358  68.412  1.00  0.00    -0.322 OA 
BRANCH  26  28
HETATM   28  C   UNL     1     -11.670  12.221  66.034  1.00  0.00    -0.451 A  
HETATM   29  C   UNL     1     -12.481  14.064  64.571  1.00  0.00    -0.342 A  
HETATM   30  C   UNL     1     -12.285  13.489  65.846  1.00  0.00    -0.507 A  
HETATM   31  C   UNL     1     -11.234  11.593  64.864  1.00  0.00    -0.287 A  
HETATM   32  C   UNL     1     -12.043  13.392  63.436  1.00  0.00    -0.437 A  
HETATM   33  C   UNL     1     -11.412  12.157  63.588  1.00  0.00    -0.566 A  
ENDBRANCH  26  28
ENDBRANCH  25  26
ENDBRANCH   3  25
TORSDOF 9
ENDMDL
MODEL      155
REMARK 921   NORMALIZED FREE ENERGY PREDICTED BY IDOCK:   -5.27 KCAL/MOL
REMARK 922        TOTAL FREE ENERGY PREDICTED BY IDOCK:   -9.55 KCAL/MOL
REMARK 923 INTER-LIGAND FREE ENERGY PREDICTED BY IDOCK:   -8.00 KCAL/MOL
REMARK 924 INTRA-LIGAND FREE ENERGY PREDICTED BY IDOCK:   -1.55 KCAL/MOL
REMARK 927      BINDING AFFINITY PREDICTED BY RF-SCORE:    0.00 PKD
ROOT
HETATM    1  C   UNL     1     -11.855  15.724  69.711  1.00  0.00    -0.352 C  
HETATM    2  C   UNL     1     -10.970  15.394  68.498  1.00  0.00    -0.278 C  
HETATM    3  C   UNL     1     -10.598  16.407  67.658  1.00  0.00    -0.313 C  
ENDROOT
BRANCH   2   4
HETATM    4  N   UNL     1     -10.596  14.038  68.435  1.00  0.00    -0.247 N  
HETATM    5  C   UNL     1     -11.467  13.025  68.869  1.00  0.00    -0.299 C  
HETATM    6  O   UNL     1     -11.154  11.873  69.128  1.00  0.00    -0.233 OA 
BRANCH   4   7
HETATM    7  C   UNL     1      -9.165  13.666  68.429  1.00  0.00    -0.169 C  
BRANCH   7   8
HETATM    8  C   UNL     1      -8.821  12.527  67.487  1.00  0.00    -0.184 A  
HETATM    9  H2  UNL     1      -7.269  12.562  69.552  1.00  0.00     0.000 HD 
HETATM   10  C   UNL     1      -9.231  12.298  66.222  1.00  0.00    -0.171 A  
HETATM   11  N   UNL     1      -7.834  10.305  67.269  1.00  0.00    -0.103 NA 
HETATM   12  N   UNL     1      -9.182  11.100  65.531  1.00  0.00    -0.216 NA 
HETATM   13  H1  UNL     1      -6.566  10.946  69.403  1.00  0.00     0.000 HD 
HETATM   14  C   UNL     1      -8.690   8.737  65.545  1.00  0.00    -0.217 C  
HETATM   15  N   UNL     1      -7.195  11.672  69.058  1.00  0.00    -0.111 NA 
HETATM   16  C   UNL     1      -8.544  10.126  66.110  1.00  0.00    -0.139 A  
HETATM   17  C   UNL     1      -7.899  11.464  67.992  1.00  0.00    -0.121 A  
ENDBRANCH   7   8
ENDBRANCH   4   7
ENDBRANCH   2   4
BRANCH   3  18
HETATM   18  C   UNL     1     -10.774  17.921  68.120  1.00  0.00    -0.287 C  
BRANCH  18  19
HETATM   19  C   UNL     1     -10.431  19.036  67.057  1.00  0.00    -0.434 C  
BRANCH  19  20
HETATM   20  O   UNL     1      -9.271  19.895  67.371  1.00  0.00    -0.322 OA 
HETATM   21  O   UNL     1      -7.371  18.802  67.732  1.00  0.00    -0.229 OA 
HETATM   22  O   UNL     1      -7.426  21.045  66.783  1.00  0.00    -0.170 OA 
HETATM   23  P   UNL     1      -7.903  19.536  66.373  1.00  0.00    -0.326 P  
HETATM   24  O   UNL     1      -6.680  19.215  65.481  1.00  0.00    -0.258 OA 
ENDBRANCH  19  20
ENDBRANCH  18  19
ENDBRANCH   3  18
BRANCH   3  25
HETATM   25  S   UNL     1      -9.855  16.197  66.004  1.00  0.00    -0.362 SA 
BRANCH  25  26
HETATM   26  C   UNL     1     -11.079  15.868  64.708  1.00  0.00    -0.384 C  
HETATM   27  O   UNL     1     -11.519  16.775  64.011  1.00  0.00    -1.198 OA 
BRANCH  26  28
HETATM   28  C   UNL     1     -11.654  14.444  64.528  1.00  0.00    -0.393 A  
HETATM   29  C   UNL     1     -11.620  12.312  63.243  1.00  0.00    -0.434 A  
HETATM   30  C   UNL     1     -11.173  13.634  63.463  1.00  0.00     0.446 A  
HETATM   31  C   UNL     1     -12.579  13.825  65.374  1.00  0.00    -0.534 A  
HETATM   32  C   UNL     1     -12.552  11.747  64.104  1.00  0.00    -0.207 A  
HETATM   33  C   UNL     1     -13.025  12.506  65.175  1.00  0.00     0.240 A  
ENDBRANCH  26  28
ENDBRANCH  25  26
ENDBRANCH   3  25
TORSDOF 9
ENDMDL
MODEL      156
REMARK 921   NORMALIZED FREE ENERGY PREDICTED BY IDOCK:   -5.27 KCAL/MOL
REMARK 922        TOTAL FREE ENERGY PREDICTED BY IDOCK:   -9.55 KCAL/MOL
REMARK 923 INTER-LIGAND FREE ENERGY PREDICTED BY IDOCK:   -7.75 KCAL/MOL
REMARK 924 INTRA-LIGAND FREE ENERGY PREDICTED BY IDOCK:   -1.80 KCAL/MOL
REMARK 927      BINDING AFFINITY PREDICTED BY RF-SCORE:    0.00 PKD
ROOT
HETATM    1  C   UNL     1     -12.010   8.383  71.004  1.00  0.00    -0.255 C  
HETATM    2  C   UNL     1     -10.853   9.139  70.329  1.00  0.00    -0.246 C  
HETATM    3  C   UNL     1     -11.104  10.358  69.763  1.00  0.00    -0.295 C  
ENDROOT
BRANCH   2   4
HETATM    4  N   UNL     1      -9.618   8.472  70.433  1.00  0.00    -0.168 N  
HETATM    5  C   UNL     1      -8.521   9.072  71.072  1.00  0.00    -0.203 C  
HETATM    6  O   UNL     1      -7.354   8.725  70.972  1.00  0.00    -0.073 OA 
BRANCH   4   7
HETATM    7  C   UNL     1      -9.267   7.412  69.462  1.00  0.00    -0.146 C  
BRANCH   7   8
HETATM    8  C   UNL     1      -8.849   7.932  68.098  1.00  0.00    -0.125 A  
HETATM    9  H2  UNL     1     -11.143   6.746  68.008  1.00  0.00     0.000 HD 
HETATM   10  C   UNL     1      -7.654   8.398  67.680  1.00  0.00    -0.098 A  
HETATM   11  N   UNL     1      -9.598   8.699  65.905  1.00  0.00    -0.191 NA 
HETATM   12  N   UNL     1      -7.403   9.173  66.562  1.00  0.00    -0.088 NA 
HETATM   13  H1  UNL     1     -11.691   7.315  66.427  1.00  0.00     0.000 HD 
HETATM   14  C   UNL     1      -8.273  10.399  64.673  1.00  0.00    -0.137 C  
HETATM   15  N   UNL     1     -10.984   7.294  67.162  1.00  0.00    -0.301 NA 
HETATM   16  C   UNL     1      -8.403   9.353  65.749  1.00  0.00    -0.122 A  
HETATM   17  C   UNL     1      -9.885   7.962  67.021  1.00  0.00    -0.225 A  
ENDBRANCH   7   8
ENDBRANCH   4   7
ENDBRANCH   2   4
BRANCH   3  18
HETATM   18  C   UNL     1     -12.457  11.125  70.105  1.00  0.00    -0.316 C  
BRANCH  18  19
HETATM   19  C   UNL     1     -12.337  12.420  70.999  1.00  0.00    -0.210 C  
BRANCH  19  20
HETATM   20  O   UNL     1     -12.123  13.690  70.275  1.00  0.00    -0.327 OA 
HETATM   21  O   UNL     1     -13.452  15.356  70.900  1.00  0.00    -0.460 OA 
HETATM   22  O   UNL     1     -11.195  15.730  70.062  1.00  0.00    -0.282 OA 
HETATM   23  P   UNL     1     -11.917  15.029  71.351  1.00  0.00    -0.390 P  
HETATM   24  O   UNL     1     -11.732  16.227  72.314  1.00  0.00    -0.498 OA 
ENDBRANCH  19  20
ENDBRANCH  18  19
ENDBRANCH   3  18
BRANCH   3  25
HETATM   25  S   UNL     1      -9.986  11.254  68.632  1.00  0.00    -0.191 SA 
BRANCH  25  26
HETATM   26  C   UNL     1     -10.846  12.013  67.229  1.00  0.00    -0.246 C  
HETATM   27  O   UNL     1     -11.623  11.362  66.539  1.00  0.00    -0.408 OA 
BRANCH  26  28
HETATM   28  C   UNL     1     -10.537  13.473  66.826  1.00  0.00    -0.272 A  
HETATM   29  C   UNL     1      -8.812  15.234  66.477  1.00  0.00    -0.335 A  
HETATM   30  C   UNL     1      -9.190  13.927  66.857  1.00  0.00    -0.269 A  
HETATM   31  C   UNL     1     -11.466  14.404  66.354  1.00  0.00    -0.365 A  
HETATM   32  C   UNL     1      -9.777  16.128  66.028  1.00  0.00    -0.376 A  
HETATM   33  C   UNL     1     -11.105  15.705  65.961  1.00  0.00    -0.136 A  
ENDBRANCH  26  28
ENDBRANCH  25  26
ENDBRANCH   3  25
TORSDOF 9
ENDMDL
MODEL      157
REMARK 921   NORMALIZED FREE ENERGY PREDICTED BY IDOCK:   -5.26 KCAL/MOL
REMARK 922        TOTAL FREE ENERGY PREDICTED BY IDOCK:   -9.54 KCAL/MOL
REMARK 923 INTER-LIGAND FREE ENERGY PREDICTED BY IDOCK:   -7.92 KCAL/MOL
REMARK 924 INTRA-LIGAND FREE ENERGY PREDICTED BY IDOCK:   -1.62 KCAL/MOL
REMARK 927      BINDING AFFINITY PREDICTED BY RF-SCORE:    0.00 PKD
ROOT
HETATM    1  C   UNL     1     -11.834  11.648  69.760  1.00  0.00    -0.428 C  
HETATM    2  C   UNL     1     -10.838  12.186  68.718  1.00  0.00    -0.228 C  
HETATM    3  C   UNL     1      -9.683  11.490  68.490  1.00  0.00    -0.189 C  
ENDROOT
BRANCH   2   4
HETATM    4  N   UNL     1     -11.290  13.349  68.065  1.00  0.00    -0.270 N  
HETATM    5  C   UNL     1     -11.271  14.596  68.711  1.00  0.00    -0.267 C  
HETATM    6  O   UNL     1     -11.888  15.592  68.364  1.00  0.00    -0.351 OA 
BRANCH   4   7
HETATM    7  C   UNL     1     -12.255  13.241  66.949  1.00  0.00    -0.257 C  
BRANCH   7   8
HETATM    8  C   UNL     1     -11.704  12.550  65.715  1.00  0.00    -0.478 A  
HETATM    9  H2  UNL     1     -12.599  14.912  65.170  1.00  0.00     0.000 HD 
HETATM   10  C   UNL     1     -11.358  11.259  65.529  1.00  0.00     0.096 A  
HETATM   11  N   UNL     1     -10.716  12.839  63.501  1.00  0.00    -0.302 NA 
HETATM   12  N   UNL     1     -10.550  10.745  64.531  1.00  0.00    -0.285 NA 
HETATM   13  H1  UNL     1     -11.871  15.127  63.574  1.00  0.00     0.000 HD 
HETATM   14  C   UNL     1      -9.111  11.154  62.635  1.00  0.00    -0.366 C  
HETATM   15  N   UNL     1     -12.022  14.557  64.407  1.00  0.00    -0.463 NA 
HETATM   16  C   UNL     1     -10.201  11.571  63.588  1.00  0.00    -0.405 A  
HETATM   17  C   UNL     1     -11.482  13.385  64.495  1.00  0.00    -0.372 A  
ENDBRANCH   7   8
ENDBRANCH   4   7
ENDBRANCH   2   4
BRANCH   3  18
HETATM   18  C   UNL     1      -9.543   9.995  69.020  1.00  0.00    -0.200 C  
BRANCH  18  19
HETATM   19  C   UNL     1      -8.407   9.716  70.079  1.00  0.00    -0.182 C  
BRANCH  19  20
HETATM   20  O   UNL     1      -8.711   8.696  71.103  1.00  0.00    -0.160 OA 
HETATM   21  O   UNL     1     -10.730   8.860  72.013  1.00  0.00    -0.339 OA 
HETATM   22  O   UNL     1      -9.584   6.726  71.756  1.00  0.00    -0.158 OA 
HETATM   23  P   UNL     1     -10.214   7.895  70.801  1.00  0.00    -0.196 P  
HETATM   24  O   UNL     1     -11.559   7.178  70.530  1.00  0.00    -0.301 OA 
ENDBRANCH  19  20
ENDBRANCH  18  19
ENDBRANCH   3  18
BRANCH   3  25
HETATM   25  S   UNL     1      -8.233  12.111  67.572  1.00  0.00    -0.178 SA 
BRANCH  25  26
HETATM   26  C   UNL     1      -7.424  13.517  68.380  1.00  0.00    -0.124 C  
HETATM   27  O   UNL     1      -6.570  13.344  69.241  1.00  0.00    -0.105 OA 
BRANCH  26  28
HETATM   28  C   UNL     1      -7.873  14.961  68.055  1.00  0.00    -0.131 A  
HETATM   29  C   UNL     1      -8.651  16.581  66.332  1.00  0.00    -0.347 A  
HETATM   30  C   UNL     1      -8.203  15.297  66.714  1.00  0.00    -0.215 A  
HETATM   31  C   UNL     1      -8.059  15.986  68.986  1.00  0.00    -0.226 A  
HETATM   32  C   UNL     1      -8.806  17.571  67.294  1.00  0.00    -0.235 A  
HETATM   33  C   UNL     1      -8.515  17.267  68.625  1.00  0.00    -0.260 A  
ENDBRANCH  26  28
ENDBRANCH  25  26
ENDBRANCH   3  25
TORSDOF 9
ENDMDL
MODEL      158
REMARK 921   NORMALIZED FREE ENERGY PREDICTED BY IDOCK:   -5.26 KCAL/MOL
REMARK 922        TOTAL FREE ENERGY PREDICTED BY IDOCK:   -9.54 KCAL/MOL
REMARK 923 INTER-LIGAND FREE ENERGY PREDICTED BY IDOCK:   -8.61 KCAL/MOL
REMARK 924 INTRA-LIGAND FREE ENERGY PREDICTED BY IDOCK:   -0.93 KCAL/MOL
REMARK 927      BINDING AFFINITY PREDICTED BY RF-SCORE:    0.00 PKD
ROOT
HETATM    1  C   UNL     1      -9.618   8.962  71.621  1.00  0.00    -0.363 C  
HETATM    2  C   UNL     1     -10.761   9.480  70.733  1.00  0.00    -0.321 C  
HETATM    3  C   UNL     1     -10.454  10.254  69.648  1.00  0.00    -0.253 C  
ENDROOT
BRANCH   2   4
HETATM    4  N   UNL     1     -12.031   9.026  71.139  1.00  0.00    -0.293 N  
HETATM    5  C   UNL     1     -12.629   9.504  72.316  1.00  0.00    -0.270 C  
HETATM    6  O   UNL     1     -13.565   8.985  72.906  1.00  0.00    -0.356 OA 
BRANCH   4   7
HETATM    7  C   UNL     1     -12.524   7.709  70.682  1.00  0.00     0.122 C  
BRANCH   7   8
HETATM    8  C   UNL     1     -11.427   6.734  70.293  1.00  0.00    -0.414 A  
HETATM    9  H2  UNL     1     -11.835   6.747  72.844  1.00  0.00     0.000 HD 
HETATM   10  C   UNL     1     -10.771   6.593  69.121  1.00  0.00    -0.264 A  
HETATM   11  N   UNL     1     -10.219   4.699  70.889  1.00  0.00    -0.186 NA 
HETATM   12  N   UNL     1     -10.045   5.495  68.697  1.00  0.00    -0.169 NA 
HETATM   13  H1  UNL     1     -10.973   5.264  73.273  1.00  0.00     0.000 HD 
HETATM   14  C   UNL     1      -9.315   3.229  69.103  1.00  0.00    -0.233 C  
HETATM   15  N   UNL     1     -11.282   5.934  72.569  1.00  0.00    -0.280 NA 
HETATM   16  C   UNL     1      -9.853   4.555  69.576  1.00  0.00    -0.207 A  
HETATM   17  C   UNL     1     -10.973   5.753  71.325  1.00  0.00    -0.230 A  
ENDBRANCH   7   8
ENDBRANCH   4   7
ENDBRANCH   2   4
BRANCH   3  18
HETATM   18  C   UNL     1      -8.953  10.316  69.121  1.00  0.00    -0.187 C  
BRANCH  18  19
HETATM   19  C   UNL     1      -8.445  11.707  68.576  1.00  0.00    -0.135 C  
BRANCH  19  20
HETATM   20  O   UNL     1      -8.541  11.905  67.115  1.00  0.00    -0.158 OA 
HETATM   21  O   UNL     1      -7.192  10.618  65.907  1.00  0.00    -0.137 OA 
HETATM   22  O   UNL     1      -9.354  11.379  65.082  1.00  0.00    -0.213 OA 
HETATM   23  P   UNL     1      -8.772  10.414  66.267  1.00  0.00    -0.164 P  
HETATM   24  O   UNL     1      -8.978   9.080  65.509  1.00  0.00    -0.184 OA 
ENDBRANCH  19  20
ENDBRANCH  18  19
ENDBRANCH   3  18
BRANCH   3  25
HETATM   25  S   UNL     1     -11.644  11.241  68.676  1.00  0.00    -0.326 SA 
BRANCH  25  26
HETATM   26  C   UNL     1     -11.634  13.000  69.109  1.00  0.00    -0.316 C  
HETATM   27  O   UNL     1     -11.164  13.835  68.345  1.00  0.00    -0.246 OA 
BRANCH  26  28
HETATM   28  C   UNL     1     -12.138  13.461  70.497  1.00  0.00    -0.399 A  
HETATM   29  C   UNL     1     -12.246  15.279  72.194  1.00  0.00    -0.457 A  
HETATM   30  C   UNL     1     -11.805  14.765  70.955  1.00  0.00    -0.379 A  
HETATM   31  C   UNL     1     -12.973  12.729  71.346  1.00  0.00    -0.359 A  
HETATM   32  C   UNL     1     -13.063  14.506  73.009  1.00  0.00    -0.611 A  
HETATM   33  C   UNL     1     -13.431  13.231  72.577  1.00  0.00    -0.620 A  
ENDBRANCH  26  28
ENDBRANCH  25  26
ENDBRANCH   3  25
TORSDOF 9
ENDMDL
MODEL      159
REMARK 921   NORMALIZED FREE ENERGY PREDICTED BY IDOCK:   -5.26 KCAL/MOL
REMARK 922        TOTAL FREE ENERGY PREDICTED BY IDOCK:   -9.53 KCAL/MOL
REMARK 923 INTER-LIGAND FREE ENERGY PREDICTED BY IDOCK:   -8.12 KCAL/MOL
REMARK 924 INTRA-LIGAND FREE ENERGY PREDICTED BY IDOCK:   -1.42 KCAL/MOL
REMARK 927      BINDING AFFINITY PREDICTED BY RF-SCORE:    0.00 PKD
ROOT
HETATM    1  C   UNL     1      -9.810   8.215  67.743  1.00  0.00    -0.209 C  
HETATM    2  C   UNL     1      -9.682   9.605  68.390  1.00  0.00    -0.150 C  
HETATM    3  C   UNL     1      -9.254  10.652  67.622  1.00  0.00    -0.146 C  
ENDROOT
BRANCH   2   4
HETATM    4  N   UNL     1     -10.093   9.631  69.736  1.00  0.00    -0.217 N  
HETATM    5  C   UNL     1      -9.264   9.138  70.757  1.00  0.00    -0.262 C  
HETATM    6  O   UNL     1      -9.618   8.848  71.890  1.00  0.00    -0.298 OA 
BRANCH   4   7
HETATM    7  C   UNL     1     -11.534   9.664  70.067  1.00  0.00    -0.145 C  
BRANCH   7   8
HETATM    8  C   UNL     1     -12.072  11.051  70.370  1.00  0.00    -0.463 A  
HETATM    9  H2  UNL     1     -13.082   9.269  71.945  1.00  0.00     0.000 HD 
HETATM   10  C   UNL     1     -11.973  12.192  69.655  1.00  0.00    -0.284 A  
HETATM   11  N   UNL     1     -13.037  12.526  72.059  1.00  0.00    -0.404 NA 
HETATM   12  N   UNL     1     -12.162  13.484  70.112  1.00  0.00    -0.340 NA 
HETATM   13  H1  UNL     1     -13.767  10.338  73.175  1.00  0.00     0.000 HD 
HETATM   14  C   UNL     1     -12.590  14.967  71.969  1.00  0.00    -0.405 C  
HETATM   15  N   UNL     1     -13.254  10.209  72.302  1.00  0.00    -0.360 NA 
HETATM   16  C   UNL     1     -12.623  13.607  71.322  1.00  0.00    -0.351 A  
HETATM   17  C   UNL     1     -12.823  11.239  71.649  1.00  0.00    -0.405 A  
ENDBRANCH   7   8
ENDBRANCH   4   7
ENDBRANCH   2   4
BRANCH   3  18
HETATM   18  C   UNL     1      -9.233  10.513  66.036  1.00  0.00    -0.205 C  
BRANCH  18  19
HETATM   19  C   UNL     1     -10.617  10.648  65.290  1.00  0.00    -0.121 C  
BRANCH  19  20
HETATM   20  O   UNL     1     -10.791  11.858  64.460  1.00  0.00    -0.287 OA 
HETATM   21  O   UNL     1     -12.874  12.239  63.789  1.00  0.00    -0.735 OA 
HETATM   22  O   UNL     1     -11.284  14.039  64.196  1.00  0.00    -0.276 OA 
HETATM   23  P   UNL     1     -12.057  12.879  65.050  1.00  0.00    -0.483 P  
HETATM   24  O   UNL     1     -13.189  13.792  65.579  1.00  0.00    -0.662 OA 
ENDBRANCH  19  20
ENDBRANCH  18  19
ENDBRANCH   3  18
BRANCH   3  25
HETATM   25  S   UNL     1      -8.710  12.278  68.251  1.00  0.00    -0.151 SA 
BRANCH  25  26
HETATM   26  C   UNL     1      -6.947  12.330  68.667  1.00  0.00    -0.097 C  
HETATM   27  O   UNL     1      -6.196  11.417  68.343  1.00  0.00    -0.046 OA 
BRANCH  26  28
HETATM   28  C   UNL     1      -6.385  13.489  69.521  1.00  0.00    -0.108 A  
HETATM   29  C   UNL     1      -5.429  14.220  71.701  1.00  0.00    -0.203 A  
HETATM   30  C   UNL     1      -5.981  13.229  70.859  1.00  0.00     0.007 A  
HETATM   31  C   UNL     1      -6.161  14.795  69.077  1.00  0.00    -0.093 A  
HETATM   32  C   UNL     1      -5.240  15.508  71.217  1.00  0.00    -0.083 A  
HETATM   33  C   UNL     1      -5.602  15.791  69.899  1.00  0.00    -0.139 A  
ENDBRANCH  26  28
ENDBRANCH  25  26
ENDBRANCH   3  25
TORSDOF 9
ENDMDL
MODEL      160
REMARK 921   NORMALIZED FREE ENERGY PREDICTED BY IDOCK:   -5.26 KCAL/MOL
REMARK 922        TOTAL FREE ENERGY PREDICTED BY IDOCK:   -9.53 KCAL/MOL
REMARK 923 INTER-LIGAND FREE ENERGY PREDICTED BY IDOCK:   -7.72 KCAL/MOL
REMARK 924 INTRA-LIGAND FREE ENERGY PREDICTED BY IDOCK:   -1.81 KCAL/MOL
REMARK 927      BINDING AFFINITY PREDICTED BY RF-SCORE:    0.00 PKD
ROOT
HETATM    1  C   UNL     1     -11.266  10.407  68.346  1.00  0.00    -0.318 C  
HETATM    2  C   UNL     1      -9.814  10.185  67.888  1.00  0.00    -0.151 C  
HETATM    3  C   UNL     1      -9.465  10.532  66.613  1.00  0.00    -0.168 C  
ENDROOT
BRANCH   2   4
HETATM    4  N   UNL     1      -8.982   9.680  68.906  1.00  0.00    -0.139 N  
HETATM    5  C   UNL     1      -7.941  10.455  69.442  1.00  0.00    -0.157 C  
HETATM    6  O   UNL     1      -7.000  10.035  70.099  1.00  0.00    -0.116 OA 
BRANCH   4   7
HETATM    7  C   UNL     1      -8.815   8.219  69.065  1.00  0.00    -0.143 C  
BRANCH   7   8
HETATM    8  C   UNL     1      -9.641   7.618  70.188  1.00  0.00    -0.168 A  
HETATM    9  H2  UNL     1     -10.720   7.201  67.877  1.00  0.00     0.000 HD 
HETATM   10  C   UNL     1      -9.550   7.799  71.522  1.00  0.00    -0.155 A  
HETATM   11  N   UNL     1     -11.261   5.903  70.818  1.00  0.00    -0.262 NA 
HETATM   12  N   UNL     1     -10.071   6.989  72.514  1.00  0.00    -0.173 NA 
HETATM   13  H1  UNL     1     -11.882   5.949  68.331  1.00  0.00     0.000 HD 
HETATM   14  C   UNL     1     -11.226   4.955  73.112  1.00  0.00    -0.403 C  
HETATM   15  N   UNL     1     -11.139   6.600  68.587  1.00  0.00    -0.243 NA 
HETATM   16  C   UNL     1     -10.854   6.027  72.121  1.00  0.00    -0.251 A  
HETATM   17  C   UNL     1     -10.730   6.663  69.813  1.00  0.00    -0.257 A  
ENDBRANCH   7   8
ENDBRANCH   4   7
ENDBRANCH   2   4
BRANCH   3  18
HETATM   18  C   UNL     1     -10.432  11.461  65.754  1.00  0.00    -0.314 C  
BRANCH  18  19
HETATM   19  C   UNL     1     -10.269  11.403  64.185  1.00  0.00    -0.324 C  
BRANCH  19  20
HETATM   20  O   UNL     1     -11.224  12.216  63.404  1.00  0.00    -0.427 OA 
HETATM   21  O   UNL     1     -13.353  11.975  63.989  1.00  0.00    -0.703 OA 
HETATM   22  O   UNL     1     -12.476  14.060  63.085  1.00  0.00    -0.733 OA 
HETATM   23  P   UNL     1     -12.284  13.133  64.419  1.00  0.00    -0.381 P  
HETATM   24  O   UNL     1     -13.232  13.953  65.326  1.00  0.00    -0.774 OA 
ENDBRANCH  19  20
ENDBRANCH  18  19
ENDBRANCH   3  18
BRANCH   3  25
HETATM   25  S   UNL     1      -7.922  10.049  65.765  1.00  0.00    -0.132 SA 
BRANCH  25  26
HETATM   26  C   UNL     1      -8.030   8.433  64.952  1.00  0.00    -0.136 C  
HETATM   27  O   UNL     1      -8.312   8.344  63.762  1.00  0.00    -0.145 OA 
BRANCH  26  28
HETATM   28  C   UNL     1      -7.859   7.136  65.776  1.00  0.00    -0.109 A  
HETATM   29  C   UNL     1      -6.443   5.814  67.339  1.00  0.00    -0.044 A  
HETATM   30  C   UNL     1      -6.670   6.952  66.534  1.00  0.00    -0.052 A  
HETATM   31  C   UNL     1      -8.813   6.124  65.912  1.00  0.00    -0.151 A  
HETATM   32  C   UNL     1      -7.417   4.827  67.430  1.00  0.00    -0.082 A  
HETATM   33  C   UNL     1      -8.606   4.990  66.718  1.00  0.00    -0.109 A  
ENDBRANCH  26  28
ENDBRANCH  25  26
ENDBRANCH   3  25
TORSDOF 9
ENDMDL
MODEL      161
REMARK 921   NORMALIZED FREE ENERGY PREDICTED BY IDOCK:   -5.25 KCAL/MOL
REMARK 922        TOTAL FREE ENERGY PREDICTED BY IDOCK:   -9.52 KCAL/MOL
REMARK 923 INTER-LIGAND FREE ENERGY PREDICTED BY IDOCK:   -8.33 KCAL/MOL
REMARK 924 INTRA-LIGAND FREE ENERGY PREDICTED BY IDOCK:   -1.18 KCAL/MOL
REMARK 927      BINDING AFFINITY PREDICTED BY RF-SCORE:    0.00 PKD
ROOT
HETATM    1  C   UNL     1      -7.743  12.004  67.160  1.00  0.00    -0.161 C  
HETATM    2  C   UNL     1      -9.238  12.322  66.992  1.00  0.00    -0.205 C  
HETATM    3  C   UNL     1      -9.790  13.316  67.751  1.00  0.00    -0.224 C  
ENDROOT
BRANCH   2   4
HETATM    4  N   UNL     1      -9.862  11.548  65.994  1.00  0.00    -0.217 N  
HETATM    5  C   UNL     1     -10.401  12.147  64.844  1.00  0.00    -0.289 C  
HETATM    6  O   UNL     1     -11.198  11.631  64.075  1.00  0.00    -0.361 OA 
BRANCH   4   7
HETATM    7  C   UNL     1     -10.434  10.228  66.335  1.00  0.00    -0.163 C  
BRANCH   7   8
HETATM    8  C   UNL     1      -9.543   9.052  65.978  1.00  0.00    -0.342 A  
HETATM    9  H2  UNL     1     -11.154   8.478  67.915  1.00  0.00     0.000 HD 
HETATM   10  C   UNL     1      -8.443   9.007  65.197  1.00  0.00    -0.167 A  
HETATM   11  N   UNL     1      -9.291   6.624  65.986  1.00  0.00    -0.060 NA 
HETATM   12  N   UNL     1      -7.872   7.886  64.621  1.00  0.00    -0.127 NA 
HETATM   13  H1  UNL     1     -10.982   6.718  67.910  1.00  0.00     0.000 HD 
HETATM   14  C   UNL     1      -7.977   5.512  64.197  1.00  0.00    -0.120 C  
HETATM   15  N   UNL     1     -10.738   7.631  67.525  1.00  0.00    -0.240 NA 
HETATM   16  C   UNL     1      -8.362   6.737  64.984  1.00  0.00    -0.048 A  
HETATM   17  C   UNL     1      -9.901   7.714  66.542  1.00  0.00    -0.172 A  
ENDBRANCH   7   8
ENDBRANCH   4   7
ENDBRANCH   2   4
BRANCH   3  18
HETATM   18  C   UNL     1      -8.845  14.345  68.515  1.00  0.00    -0.182 C  
BRANCH  18  19
HETATM   19  C   UNL     1      -7.929  15.271  67.624  1.00  0.00    -0.160 C  
BRANCH  19  20
HETATM   20  O   UNL     1      -8.075  16.725  67.839  1.00  0.00    -0.179 OA 
HETATM   21  O   UNL     1      -8.272  17.929  65.983  1.00  0.00    -0.493 OA 
HETATM   22  O   UNL     1      -9.313  18.590  68.084  1.00  0.00    -0.294 OA 
HETATM   23  P   UNL     1      -9.433  17.379  66.991  1.00  0.00    -0.286 P  
HETATM   24  O   UNL     1     -10.649  17.963  66.232  1.00  0.00    -0.335 OA 
ENDBRANCH  19  20
ENDBRANCH  18  19
ENDBRANCH   3  18
BRANCH   3  25
HETATM   25  S   UNL     1     -11.577  13.623  67.962  1.00  0.00    -0.353 SA 
BRANCH  25  26
HETATM   26  C   UNL     1     -12.141  13.414  69.671  1.00  0.00    -0.289 C  
HETATM   27  O   UNL     1     -12.448  14.382  70.357  1.00  0.00    -0.327 OA 
BRANCH  26  28
HETATM   28  C   UNL     1     -12.153  12.009  70.317  1.00  0.00    -0.395 A  
HETATM   29  C   UNL     1     -11.108   9.753  70.456  1.00  0.00    -0.384 A  
HETATM   30  C   UNL     1     -11.191  11.049  69.899  1.00  0.00    -0.327 A  
HETATM   31  C   UNL     1     -12.993  11.595  71.354  1.00  0.00    -0.426 A  
HETATM   32  C   UNL     1     -11.978   9.384  71.475  1.00  0.00    -0.456 A  
HETATM   33  C   UNL     1     -12.916  10.312  71.927  1.00  0.00    -0.554 A  
ENDBRANCH  26  28
ENDBRANCH  25  26
ENDBRANCH   3  25
TORSDOF 9
ENDMDL
MODEL      162
REMARK 921   NORMALIZED FREE ENERGY PREDICTED BY IDOCK:   -5.25 KCAL/MOL
REMARK 922        TOTAL FREE ENERGY PREDICTED BY IDOCK:   -9.51 KCAL/MOL
REMARK 923 INTER-LIGAND FREE ENERGY PREDICTED BY IDOCK:   -7.62 KCAL/MOL
REMARK 924 INTRA-LIGAND FREE ENERGY PREDICTED BY IDOCK:   -1.90 KCAL/MOL
REMARK 927      BINDING AFFINITY PREDICTED BY RF-SCORE:    0.00 PKD
ROOT
HETATM    1  C   UNL     1      -6.974  11.954  67.510  1.00  0.00    -0.123 C  
HETATM    2  C   UNL     1      -7.800  10.699  67.838  1.00  0.00    -0.105 C  
HETATM    3  C   UNL     1      -9.039  10.561  67.276  1.00  0.00    -0.143 C  
ENDROOT
BRANCH   2   4
HETATM    4  N   UNL     1      -7.121   9.788  68.670  1.00  0.00    -0.070 N  
HETATM    5  C   UNL     1      -6.805  10.117  69.998  1.00  0.00    -0.137 C  
HETATM    6  O   UNL     1      -5.988   9.543  70.703  1.00  0.00    -0.051 OA 
BRANCH   4   7
HETATM    7  C   UNL     1      -6.276   8.732  68.072  1.00  0.00    -0.052 C  
BRANCH   7   8
HETATM    8  C   UNL     1      -7.055   7.568  67.488  1.00  0.00    -0.085 A  
HETATM    9  H2  UNL     1      -6.379   7.132  69.944  1.00  0.00     0.000 HD 
HETATM   10  C   UNL     1      -7.388   7.306  66.207  1.00  0.00    -0.079 A  
HETATM   11  N   UNL     1      -8.504   5.660  67.958  1.00  0.00    -0.103 NA 
HETATM   12  N   UNL     1      -8.373   6.446  65.758  1.00  0.00    -0.140 NA 
HETATM   13  H1  UNL     1      -7.441   5.760  70.287  1.00  0.00     0.000 HD 
HETATM   14  C   UNL     1     -10.198   4.955  66.285  1.00  0.00    -0.312 C  
HETATM   15  N   UNL     1      -7.094   6.470  69.641  1.00  0.00    -0.070 NA 
HETATM   16  C   UNL     1      -8.945   5.702  66.660  1.00  0.00    -0.120 A  
HETATM   17  C   UNL     1      -7.562   6.529  68.436  1.00  0.00    -0.104 A  
ENDBRANCH   7   8
ENDBRANCH   4   7
ENDBRANCH   2   4
BRANCH   3  18
HETATM   18  C   UNL     1      -9.459  11.486  66.050  1.00  0.00    -0.249 C  
BRANCH  18  19
HETATM   19  C   UNL     1     -10.773  12.343  66.220  1.00  0.00    -0.256 C  
BRANCH  19  20
HETATM   20  O   UNL     1     -11.117  13.231  65.090  1.00  0.00    -0.288 OA 
HETATM   21  O   UNL     1     -10.963  12.292  63.084  1.00  0.00    -0.377 OA 
HETATM   22  O   UNL     1     -12.564  14.061  63.578  1.00  0.00    -0.842 OA 
HETATM   23  P   UNL     1     -12.278  12.515  64.027  1.00  0.00    -0.498 P  
HETATM   24  O   UNL     1     -13.317  11.874  63.075  1.00  0.00    -0.400 OA 
ENDBRANCH  19  20
ENDBRANCH  18  19
ENDBRANCH   3  18
BRANCH   3  25
HETATM   25  S   UNL     1     -10.307   9.349  67.784  1.00  0.00    -0.251 SA 
BRANCH  25  26
HETATM   26  C   UNL     1     -10.515   9.244  69.581  1.00  0.00    -0.224 C  
HETATM   27  O   UNL     1      -9.946   8.375  70.232  1.00  0.00    -0.183 OA 
BRANCH  26  28
HETATM   28  C   UNL     1     -11.492  10.198  70.306  1.00  0.00    -0.381 A  
HETATM   29  C   UNL     1     -13.217  10.488  72.078  1.00  0.00    -0.483 A  
HETATM   30  C   UNL     1     -12.318   9.684  71.343  1.00  0.00    -0.468 A  
HETATM   31  C   UNL     1     -11.602  11.574  70.088  1.00  0.00    -0.336 A  
HETATM   32  C   UNL     1     -13.300  11.849  71.812  1.00  0.00    -0.334 A  
HETATM   33  C   UNL     1     -12.484  12.391  70.819  1.00  0.00    -0.356 A  
ENDBRANCH  26  28
ENDBRANCH  25  26
ENDBRANCH   3  25
TORSDOF 9
ENDMDL
MODEL      163
REMARK 921   NORMALIZED FREE ENERGY PREDICTED BY IDOCK:   -5.25 KCAL/MOL
REMARK 922        TOTAL FREE ENERGY PREDICTED BY IDOCK:   -9.51 KCAL/MOL
REMARK 923 INTER-LIGAND FREE ENERGY PREDICTED BY IDOCK:   -7.86 KCAL/MOL
REMARK 924 INTRA-LIGAND FREE ENERGY PREDICTED BY IDOCK:   -1.65 KCAL/MOL
REMARK 927      BINDING AFFINITY PREDICTED BY RF-SCORE:    0.00 PKD
ROOT
HETATM    1  C   UNL     1     -10.949   6.879  67.138  1.00  0.00    -0.427 C  
HETATM    2  C   UNL     1      -9.692   7.203  67.963  1.00  0.00    -0.138 C  
HETATM    3  C   UNL     1      -9.646   6.815  69.274  1.00  0.00    -0.144 C  
ENDROOT
BRANCH   2   4
HETATM    4  N   UNL     1      -8.684   7.839  67.214  1.00  0.00    -0.127 N  
HETATM    5  C   UNL     1      -7.664   7.097  66.596  1.00  0.00    -0.097 C  
HETATM    6  O   UNL     1      -6.606   7.544  66.179  1.00  0.00    -0.044 OA 
BRANCH   4   7
HETATM    7  C   UNL     1      -8.351   9.255  67.478  1.00  0.00    -0.119 C  
BRANCH   7   8
HETATM    8  C   UNL     1      -9.186  10.248  66.690  1.00  0.00    -0.179 A  
HETATM    9  H2  UNL     1      -6.879   9.859  65.595  1.00  0.00     0.000 HD 
HETATM   10  C   UNL     1     -10.330  10.880  67.032  1.00  0.00    -0.231 A  
HETATM   11  N   UNL     1      -9.617  11.252  64.507  1.00  0.00    -0.238 NA 
HETATM   12  N   UNL     1     -11.233  11.491  66.182  1.00  0.00    -0.254 NA 
HETATM   13  H1  UNL     1      -7.197  10.572  64.009  1.00  0.00     0.000 HD 
HETATM   14  C   UNL     1     -11.913  11.995  63.920  1.00  0.00    -0.542 C  
HETATM   15  N   UNL     1      -7.513  10.326  64.947  1.00  0.00    -0.138 NA 
HETATM   16  C   UNL     1     -10.874  11.595  64.936  1.00  0.00    -0.301 A  
HETATM   17  C   UNL     1      -8.722  10.608  65.315  1.00  0.00    -0.187 A  
ENDBRANCH   7   8
ENDBRANCH   4   7
ENDBRANCH   2   4
BRANCH   3  18
HETATM   18  C   UNL     1     -10.701   5.755  69.822  1.00  0.00    -0.418 C  
BRANCH  18  19
HETATM   19  C   UNL     1     -10.391   5.100  71.224  1.00  0.00    -0.205 C  
BRANCH  19  20
HETATM   20  O   UNL     1     -10.012   3.672  71.202  1.00  0.00    -0.167 OA 
HETATM   21  O   UNL     1      -8.655   3.042  72.844  1.00  0.00    -0.078 OA 
HETATM   22  O   UNL     1     -10.280   1.529  71.841  1.00  0.00    -0.150 OA 
HETATM   23  P   UNL     1     -10.279   2.903  72.729  1.00  0.00    -0.129 P  
HETATM   24  O   UNL     1     -10.517   2.214  74.095  1.00  0.00    -0.115 OA 
ENDBRANCH  19  20
ENDBRANCH  18  19
ENDBRANCH   3  18
BRANCH   3  25
HETATM   25  S   UNL     1      -8.427   7.384  70.508  1.00  0.00    -0.138 SA 
BRANCH  25  26
HETATM   26  C   UNL     1      -9.145   8.461  71.776  1.00  0.00    -0.218 C  
HETATM   27  O   UNL     1      -8.526   8.727  72.801  1.00  0.00    -0.414 OA 
BRANCH  26  28
HETATM   28  C   UNL     1     -10.592   8.984  71.623  1.00  0.00    -0.434 A  
HETATM   29  C   UNL     1     -12.955   8.882  72.400  1.00  0.00    -0.467 A  
HETATM   30  C   UNL     1     -11.613   8.443  72.451  1.00  0.00    -0.450 A  
HETATM   31  C   UNL     1     -11.001  10.016  70.774  1.00  0.00    -0.375 A  
HETATM   32  C   UNL     1     -13.314   9.902  71.528  1.00  0.00    -0.462 A  
HETATM   33  C   UNL     1     -12.330  10.472  70.720  1.00  0.00    -0.474 A  
ENDBRANCH  26  28
ENDBRANCH  25  26
ENDBRANCH   3  25
TORSDOF 9
ENDMDL
MODEL      164
REMARK 921   NORMALIZED FREE ENERGY PREDICTED BY IDOCK:   -5.24 KCAL/MOL
REMARK 922        TOTAL FREE ENERGY PREDICTED BY IDOCK:   -9.50 KCAL/MOL
REMARK 923 INTER-LIGAND FREE ENERGY PREDICTED BY IDOCK:   -7.85 KCAL/MOL
REMARK 924 INTRA-LIGAND FREE ENERGY PREDICTED BY IDOCK:   -1.64 KCAL/MOL
REMARK 927      BINDING AFFINITY PREDICTED BY RF-SCORE:    0.00 PKD
ROOT
HETATM    1  C   UNL     1      -9.053  15.139  70.059  1.00  0.00     0.306 C  
HETATM    2  C   UNL     1      -9.831  14.948  68.746  1.00  0.00    -0.225 C  
HETATM    3  C   UNL     1      -9.148  14.570  67.624  1.00  0.00    -0.195 C  
ENDROOT
BRANCH   2   4
HETATM    4  N   UNL     1     -11.218  15.146  68.888  1.00  0.00    -0.267 N  
HETATM    5  C   UNL     1     -11.740  15.859  69.980  1.00  0.00    -0.334 C  
HETATM    6  O   UNL     1     -12.903  15.845  70.355  1.00  0.00    -0.385 OA 
BRANCH   4   7
HETATM    7  C   UNL     1     -12.166  14.211  68.246  1.00  0.00    -0.161 C  
BRANCH   7   8
HETATM    8  C   UNL     1     -12.024  12.770  68.701  1.00  0.00    -0.272 A  
HETATM    9  H2  UNL     1     -12.164  12.950  66.128  1.00  0.00     0.000 HD 
HETATM   10  C   UNL     1     -12.141  12.237  69.936  1.00  0.00    -0.249 A  
HETATM   11  N   UNL     1     -11.273  10.523  68.112  1.00  0.00    -0.298 NA 
HETATM   12  N   UNL     1     -11.671  11.010  70.365  1.00  0.00    -0.335 NA 
HETATM   13  H1  UNL     1     -11.605  11.328  65.701  1.00  0.00     0.000 HD 
HETATM   14  C   UNL     1     -10.420   9.002  69.880  1.00  0.00    -0.226 C  
HETATM   15  N   UNL     1     -11.831  12.028  66.409  1.00  0.00    -0.593 NA 
HETATM   16  C   UNL     1     -11.190  10.223  69.447  1.00  0.00    -0.239 A  
HETATM   17  C   UNL     1     -11.694  11.745  67.664  1.00  0.00    -0.250 A  
ENDBRANCH   7   8
ENDBRANCH   4   7
ENDBRANCH   2   4
BRANCH   3  18
HETATM   18  C   UNL     1      -7.667  13.999  67.755  1.00  0.00    -0.178 C  
BRANCH  18  19
HETATM   19  C   UNL     1      -7.291  12.772  66.837  1.00  0.00     0.250 C  
BRANCH  19  20
HETATM   20  O   UNL     1      -8.180  11.596  66.931  1.00  0.00    -0.160 OA 
HETATM   21  O   UNL     1      -9.128  10.987  65.016  1.00  0.00    -0.202 OA 
HETATM   22  O   UNL     1      -8.587   9.387  66.772  1.00  0.00    -0.125 OA 
HETATM   23  P   UNL     1      -7.796  10.391  65.751  1.00  0.00    -0.136 P  
HETATM   24  O   UNL     1      -7.453   9.312  64.695  1.00  0.00    -0.097 OA 
ENDBRANCH  19  20
ENDBRANCH  18  19
ENDBRANCH   3  18
BRANCH   3  25
HETATM   25  S   UNL     1      -9.796  14.620  65.918  1.00  0.00    -0.320 SA 
BRANCH  25  26
HETATM   26  C   UNL     1     -10.304  16.279  65.395  1.00  0.00    -0.294 C  
HETATM   27  O   UNL     1     -10.913  16.450  64.345  1.00  0.00    -0.798 OA 
BRANCH  26  28
HETATM   28  C   UNL     1      -9.889  17.515  66.226  1.00  0.00    -0.295 A  
HETATM   29  C   UNL     1      -8.050  19.009  66.992  1.00  0.00    -0.279 A  
HETATM   30  C   UNL     1      -8.516  17.879  66.284  1.00  0.00    -0.218 A  
HETATM   31  C   UNL     1     -10.761  18.381  66.891  1.00  0.00    -0.303 A  
HETATM   32  C   UNL     1      -8.957  19.831  67.651  1.00  0.00    -0.402 A  
HETATM   33  C   UNL     1     -10.315  19.516  67.591  1.00  0.00    -0.574 A  
ENDBRANCH  26  28
ENDBRANCH  25  26
ENDBRANCH   3  25
TORSDOF 9
ENDMDL
MODEL      165
REMARK 921   NORMALIZED FREE ENERGY PREDICTED BY IDOCK:   -5.22 KCAL/MOL
REMARK 922        TOTAL FREE ENERGY PREDICTED BY IDOCK:   -9.48 KCAL/MOL
REMARK 923 INTER-LIGAND FREE ENERGY PREDICTED BY IDOCK:   -8.19 KCAL/MOL
REMARK 924 INTRA-LIGAND FREE ENERGY PREDICTED BY IDOCK:   -1.29 KCAL/MOL
REMARK 927      BINDING AFFINITY PREDICTED BY RF-SCORE:    0.00 PKD
ROOT
HETATM    1  C   UNL     1      -6.905  10.116  70.034  1.00  0.00    -0.137 C  
HETATM    2  C   UNL     1      -7.971   9.486  69.123  1.00  0.00    -0.094 C  
HETATM    3  C   UNL     1      -8.620  10.281  68.220  1.00  0.00    -0.122 C  
ENDROOT
BRANCH   2   4
HETATM    4  N   UNL     1      -8.108   8.096  69.307  1.00  0.00    -0.115 N  
HETATM    5  C   UNL     1      -8.104   7.216  68.213  1.00  0.00    -0.124 C  
HETATM    6  O   UNL     1      -8.496   6.058  68.223  1.00  0.00    -0.112 OA 
BRANCH   4   7
HETATM    7  C   UNL     1      -8.771   7.575  70.522  1.00  0.00    -0.146 C  
BRANCH   7   8
HETATM    8  C   UNL     1     -10.193   8.068  70.715  1.00  0.00    -0.209 A  
HETATM    9  H2  UNL     1     -10.134   5.654  69.798  1.00  0.00     0.000 HD 
HETATM   10  C   UNL     1     -10.651   9.316  70.954  1.00  0.00    -0.296 A  
HETATM   11  N   UNL     1     -12.519   7.443  71.116  1.00  0.00    -0.330 NA 
HETATM   12  N   UNL     1     -11.888   9.669  71.462  1.00  0.00    -0.390 NA 
HETATM   13  H1  UNL     1     -11.814   5.196  70.104  1.00  0.00     0.000 HD 
HETATM   14  C   UNL     1     -14.008   8.972  72.384  1.00  0.00    -0.517 C  
HETATM   15  N   UNL     1     -11.064   5.886  70.148  1.00  0.00    -0.350 NA 
HETATM   16  C   UNL     1     -12.756   8.708  71.590  1.00  0.00    -0.341 A  
HETATM   17  C   UNL     1     -11.293   7.057  70.649  1.00  0.00    -0.307 A  
ENDBRANCH   7   8
ENDBRANCH   4   7
ENDBRANCH   2   4
BRANCH   3  18
HETATM   18  C   UNL     1      -8.042  11.724  67.878  1.00  0.00    -0.144 C  
BRANCH  18  19
HETATM   19  C   UNL     1      -9.010  12.951  68.096  1.00  0.00    -0.202 C  
BRANCH  19  20
HETATM   20  O   UNL     1      -8.484  14.271  67.691  1.00  0.00    -0.157 OA 
HETATM   21  O   UNL     1      -9.304  15.056  65.782  1.00  0.00    -0.293 OA 
HETATM   22  O   UNL     1      -8.597  16.518  67.598  1.00  0.00    -0.179 OA 
HETATM   23  P   UNL     1      -9.749  15.391  67.318  1.00  0.00    -0.215 P  
HETATM   24  O   UNL     1     -10.881  16.393  66.984  1.00  0.00    -0.267 OA 
ENDBRANCH  19  20
ENDBRANCH  18  19
ENDBRANCH   3  18
BRANCH   3  25
HETATM   25  S   UNL     1     -10.130   9.828  67.299  1.00  0.00    -0.221 SA 
BRANCH  25  26
HETATM   26  C   UNL     1     -10.121  10.407  65.582  1.00  0.00    -0.269 C  
HETATM   27  O   UNL     1      -9.394   9.885  64.745  1.00  0.00    -0.244 OA 
BRANCH  26  28
HETATM   28  C   UNL     1     -10.967  11.635  65.173  1.00  0.00    -0.326 A  
HETATM   29  C   UNL     1     -11.769  13.114  63.338  1.00  0.00    -0.409 A  
HETATM   30  C   UNL     1     -11.001  12.026  63.806  1.00  0.00    -0.492 A  
HETATM   31  C   UNL     1     -11.784  12.383  66.024  1.00  0.00    -0.469 A  
HETATM   32  C   UNL     1     -12.554  13.837  64.228  1.00  0.00    -0.190 A  
HETATM   33  C   UNL     1     -12.564  13.463  65.573  1.00  0.00    -0.520 A  
ENDBRANCH  26  28
ENDBRANCH  25  26
ENDBRANCH   3  25
TORSDOF 9
ENDMDL
MODEL      166
REMARK 921   NORMALIZED FREE ENERGY PREDICTED BY IDOCK:   -5.18 KCAL/MOL
REMARK 922        TOTAL FREE ENERGY PREDICTED BY IDOCK:   -9.42 KCAL/MOL
REMARK 923 INTER-LIGAND FREE ENERGY PREDICTED BY IDOCK:   -9.36 KCAL/MOL
REMARK 924 INTRA-LIGAND FREE ENERGY PREDICTED BY IDOCK:   -0.06 KCAL/MOL
REMARK 927      BINDING AFFINITY PREDICTED BY RF-SCORE:    0.00 PKD
ROOT
HETATM    1  C   UNL     1      -8.615  17.992  67.096  1.00  0.00    -0.244 C  
HETATM    2  C   UNL     1      -8.558  16.818  68.088  1.00  0.00    -0.218 C  
HETATM    3  C   UNL     1      -9.521  15.850  68.020  1.00  0.00    -0.206 C  
ENDROOT
BRANCH   2   4
HETATM    4  N   UNL     1      -7.438  16.865  68.941  1.00  0.00    -0.234 N  
HETATM    5  C   UNL     1      -6.341  17.692  68.651  1.00  0.00    -0.192 C  
HETATM    6  O   UNL     1      -5.226  17.602  69.143  1.00  0.00    -0.168 OA 
BRANCH   4   7
HETATM    7  C   UNL     1      -7.138  15.720  69.827  1.00  0.00    -0.077 C  
BRANCH   7   8
HETATM    8  C   UNL     1      -6.399  14.583  69.146  1.00  0.00    -0.100 A  
HETATM    9  H2  UNL     1      -6.274  14.398  71.720  1.00  0.00     0.000 HD 
HETATM   10  C   UNL     1      -6.042  14.436  67.852  1.00  0.00    -0.150 A  
HETATM   11  N   UNL     1      -5.604  12.282  69.333  1.00  0.00    -0.073 NA 
HETATM   12  N   UNL     1      -5.691  13.262  67.210  1.00  0.00    -0.334 NA 
HETATM   13  H1  UNL     1      -5.713  12.727  71.855  1.00  0.00     0.000 HD 
HETATM   14  C   UNL     1      -5.444  10.862  67.302  1.00  0.00    -0.044 C  
HETATM   15  N   UNL     1      -5.992  13.522  71.279  1.00  0.00    -0.259 NA 
HETATM   16  C   UNL     1      -5.552  12.211  67.964  1.00  0.00    -0.060 A  
HETATM   17  C   UNL     1      -5.990  13.418  69.989  1.00  0.00    -0.137 A  
ENDBRANCH   7   8
ENDBRANCH   4   7
ENDBRANCH   2   4
BRANCH   3  18
HETATM   18  C   UNL     1     -10.457  15.755  66.735  1.00  0.00    -0.305 C  
BRANCH  18  19
HETATM   19  C   UNL     1     -10.445  14.390  65.943  1.00  0.00    -0.308 C  
BRANCH  19  20
HETATM   20  O   UNL     1     -11.058  14.415  64.599  1.00  0.00    -0.381 OA 
HETATM   21  O   UNL     1     -10.908  12.509  63.469  1.00  0.00    -0.440 OA 
HETATM   22  O   UNL     1     -12.770  14.054  63.182  1.00  0.00    -0.676 OA 
HETATM   23  P   UNL     1     -12.149  13.096  64.353  1.00  0.00    -0.424 P  
HETATM   24  O   UNL     1     -13.127  11.916  64.134  1.00  0.00    -0.597 OA 
ENDBRANCH  19  20
ENDBRANCH  18  19
ENDBRANCH   3  18
BRANCH   3  25
HETATM   25  S   UNL     1      -9.840  14.578  69.290  1.00  0.00     0.077 SA 
BRANCH  25  26
HETATM   26  C   UNL     1     -11.605  14.267  69.563  1.00  0.00    -0.301 C  
HETATM   27  O   UNL     1     -12.284  13.702  68.714  1.00  0.00    -0.339 OA 
BRANCH  26  28
HETATM   28  C   UNL     1     -12.298  14.799  70.839  1.00  0.00    -0.388 A  
HETATM   29  C   UNL     1     -12.061  15.961  73.028  1.00  0.00    -0.615 A  
HETATM   30  C   UNL     1     -11.509  15.420  71.846  1.00  0.00    -0.513 A  
HETATM   31  C   UNL     1     -13.674  14.795  71.082  1.00  0.00    -0.413 A  
HETATM   32  C   UNL     1     -13.435  15.919  73.229  1.00  0.00    -0.599 A  
HETATM   33  C   UNL     1     -14.241  15.340  72.248  1.00  0.00    -0.642 A  
ENDBRANCH  26  28
ENDBRANCH  25  26
ENDBRANCH   3  25
TORSDOF 9
ENDMDL
MODEL      167
REMARK 921   NORMALIZED FREE ENERGY PREDICTED BY IDOCK:   -5.18 KCAL/MOL
REMARK 922        TOTAL FREE ENERGY PREDICTED BY IDOCK:   -9.41 KCAL/MOL
REMARK 923 INTER-LIGAND FREE ENERGY PREDICTED BY IDOCK:   -8.08 KCAL/MOL
REMARK 924 INTRA-LIGAND FREE ENERGY PREDICTED BY IDOCK:   -1.33 KCAL/MOL
REMARK 927      BINDING AFFINITY PREDICTED BY RF-SCORE:    0.00 PKD
ROOT
HETATM    1  C   UNL     1      -7.847   9.045  68.888  1.00  0.00    -0.095 C  
HETATM    2  C   UNL     1      -9.372   9.239  68.841  1.00  0.00    -0.150 C  
HETATM    3  C   UNL     1      -9.874  10.510  68.798  1.00  0.00    -0.186 C  
ENDROOT
BRANCH   2   4
HETATM    4  N   UNL     1     -10.086   8.026  68.791  1.00  0.00    -0.190 N  
HETATM    5  C   UNL     1     -10.351   7.391  67.567  1.00  0.00    -0.251 C  
HETATM    6  O   UNL     1     -11.185   6.517  67.379  1.00  0.00    -0.359 OA 
BRANCH   4   7
HETATM    7  C   UNL     1     -11.007   7.667  69.891  1.00  0.00    -0.200 C  
BRANCH   7   8
HETATM    8  C   UNL     1     -10.320   7.413  71.220  1.00  0.00    -0.203 A  
HETATM    9  H2  UNL     1     -10.657   5.227  69.886  1.00  0.00     0.000 HD 
HETATM   10  C   UNL     1     -10.165   8.231  72.284  1.00  0.00    -0.305 A  
HETATM   11  N   UNL     1      -8.828   5.952  72.485  1.00  0.00    -0.133 NA 
HETATM   12  N   UNL     1      -9.254   8.097  73.315  1.00  0.00    -0.265 NA 
HETATM   13  H1  UNL     1      -9.564   4.174  70.792  1.00  0.00     0.000 HD 
HETATM   14  C   UNL     1      -7.380   6.905  74.263  1.00  0.00    -0.102 C  
HETATM   15  N   UNL     1      -9.992   5.088  70.648  1.00  0.00    -0.213 NA 
HETATM   16  C   UNL     1      -8.568   6.992  73.340  1.00  0.00    -0.131 A  
HETATM   17  C   UNL     1      -9.692   6.073  71.432  1.00  0.00    -0.164 A  
ENDBRANCH   7   8
ENDBRANCH   4   7
ENDBRANCH   2   4
BRANCH   3  18
HETATM   18  C   UNL     1      -8.910  11.729  68.447  1.00  0.00    -0.161 C  
BRANCH  18  19
HETATM   19  C   UNL     1      -8.792  12.130  66.926  1.00  0.00    -0.202 C  
BRANCH  19  20
HETATM   20  O   UNL     1      -8.375  11.054  66.002  1.00  0.00    -0.168 OA 
HETATM   21  O   UNL     1     -10.026   9.759  65.273  1.00  0.00    -0.318 OA 
HETATM   22  O   UNL     1      -8.040  10.219  63.939  1.00  0.00    -0.155 OA 
HETATM   23  P   UNL     1      -9.316  11.040  64.550  1.00  0.00    -0.132 P  
HETATM   24  O   UNL     1     -10.156  11.027  63.251  1.00  0.00    -0.333 OA 
ENDBRANCH  19  20
ENDBRANCH  18  19
ENDBRANCH   3  18
BRANCH   3  25
HETATM   25  S   UNL     1     -11.617  10.975  69.081  1.00  0.00    -0.345 SA 
BRANCH  25  26
HETATM   26  C   UNL     1     -11.875  12.767  69.156  1.00  0.00    -0.301 C  
HETATM   27  O   UNL     1     -11.659  13.476  68.180  1.00  0.00    -0.291 OA 
BRANCH  26  28
HETATM   28  C   UNL     1     -12.285  13.436  70.488  1.00  0.00    -0.425 A  
HETATM   29  C   UNL     1     -13.632  13.302  72.578  1.00  0.00    -0.637 A  
HETATM   30  C   UNL     1     -13.224  12.780  71.331  1.00  0.00    -0.240 A  
HETATM   31  C   UNL     1     -11.760  14.626  70.999  1.00  0.00    -0.331 A  
HETATM   32  C   UNL     1     -13.090  14.497  73.035  1.00  0.00    -0.611 A  
HETATM   33  C   UNL     1     -12.147  15.154  72.244  1.00  0.00    -0.478 A  
ENDBRANCH  26  28
ENDBRANCH  25  26
ENDBRANCH   3  25
TORSDOF 9
ENDMDL
MODEL      168
REMARK 921   NORMALIZED FREE ENERGY PREDICTED BY IDOCK:   -5.18 KCAL/MOL
REMARK 922        TOTAL FREE ENERGY PREDICTED BY IDOCK:   -9.41 KCAL/MOL
REMARK 923 INTER-LIGAND FREE ENERGY PREDICTED BY IDOCK:   -7.89 KCAL/MOL
REMARK 924 INTRA-LIGAND FREE ENERGY PREDICTED BY IDOCK:   -1.52 KCAL/MOL
REMARK 927      BINDING AFFINITY PREDICTED BY RF-SCORE:    0.00 PKD
ROOT
HETATM    1  C   UNL     1     -10.830   6.212  69.625  1.00  0.00    -0.424 C  
HETATM    2  C   UNL     1     -10.741   7.748  69.628  1.00  0.00    -0.223 C  
HETATM    3  C   UNL     1     -10.410   8.392  68.468  1.00  0.00    -0.200 C  
ENDROOT
BRANCH   2   4
HETATM    4  N   UNL     1     -11.078   8.321  70.870  1.00  0.00    -0.256 N  
HETATM    5  C   UNL     1     -12.347   8.882  71.087  1.00  0.00    -0.235 C  
HETATM    6  O   UNL     1     -12.648   9.644  71.994  1.00  0.00    -0.379 OA 
BRANCH   4   7
HETATM    7  C   UNL     1     -10.014   8.826  71.763  1.00  0.00    -0.326 C  
BRANCH   7   8
HETATM    8  C   UNL     1      -8.990   7.780  72.164  1.00  0.00    -0.182 A  
HETATM    9  H2  UNL     1     -10.972   7.862  73.819  1.00  0.00     0.000 HD 
HETATM   10  C   UNL     1      -7.735   7.578  71.708  1.00  0.00    -0.085 A  
HETATM   11  N   UNL     1      -8.592   5.685  73.353  1.00  0.00    -0.116 NA 
HETATM   12  N   UNL     1      -6.974   6.430  71.836  1.00  0.00    -0.078 NA 
HETATM   13  H1  UNL     1     -10.692   6.337  74.669  1.00  0.00     0.000 HD 
HETATM   14  C   UNL     1      -6.824   4.132  72.561  1.00  0.00    -0.050 C  
HETATM   15  N   UNL     1     -10.423   7.013  73.953  1.00  0.00    -0.365 NA 
HETATM   16  C   UNL     1      -7.461   5.496  72.600  1.00  0.00    -0.097 A  
HETATM   17  C   UNL     1      -9.384   6.790  73.214  1.00  0.00    -0.136 A  
ENDBRANCH   7   8
ENDBRANCH   4   7
ENDBRANCH   2   4
BRANCH   3  18
HETATM   18  C   UNL     1     -10.469   7.606  67.084  1.00  0.00    -0.412 C  
BRANCH  18  19
HETATM   19  C   UNL     1      -9.091   7.157  66.459  1.00  0.00    -0.154 C  
BRANCH  19  20
HETATM   20  O   UNL     1      -8.599   5.825  66.866  1.00  0.00    -0.111 OA 
HETATM   21  O   UNL     1     -10.043   4.164  66.564  1.00  0.00    -0.203 OA 
HETATM   22  O   UNL     1      -7.633   3.839  66.427  1.00  0.00    -0.082 OA 
HETATM   23  P   UNL     1      -8.802   4.645  65.617  1.00  0.00    -0.142 P  
HETATM   24  O   UNL     1      -8.984   3.589  64.499  1.00  0.00    -0.114 OA 
ENDBRANCH  19  20
ENDBRANCH  18  19
ENDBRANCH   3  18
BRANCH   3  25
HETATM   25  S   UNL     1      -9.918  10.144  68.329  1.00  0.00    -0.153 SA 
BRANCH  25  26
HETATM   26  C   UNL     1     -11.254  11.216  67.736  1.00  0.00    -0.294 C  
HETATM   27  O   UNL     1     -12.189  11.521  68.466  1.00  0.00    -0.524 OA 
BRANCH  26  28
HETATM   28  C   UNL     1     -11.276  11.685  66.262  1.00  0.00    -0.332 A  
HETATM   29  C   UNL     1     -12.159  13.299  64.586  1.00  0.00    -0.458 A  
HETATM   30  C   UNL     1     -12.100  12.785  65.900  1.00  0.00    -0.485 A  
HETATM   31  C   UNL     1     -10.490  11.166  65.229  1.00  0.00    -0.326 A  
HETATM   32  C   UNL     1     -11.369  12.738  63.590  1.00  0.00    -0.514 A  
HETATM   33  C   UNL     1     -10.529  11.674  63.918  1.00  0.00    -0.433 A  
ENDBRANCH  26  28
ENDBRANCH  25  26
ENDBRANCH   3  25
TORSDOF 9
ENDMDL
MODEL      169
REMARK 921   NORMALIZED FREE ENERGY PREDICTED BY IDOCK:   -5.17 KCAL/MOL
REMARK 922        TOTAL FREE ENERGY PREDICTED BY IDOCK:   -9.40 KCAL/MOL
REMARK 923 INTER-LIGAND FREE ENERGY PREDICTED BY IDOCK:   -8.06 KCAL/MOL
REMARK 924 INTRA-LIGAND FREE ENERGY PREDICTED BY IDOCK:   -1.34 KCAL/MOL
REMARK 927      BINDING AFFINITY PREDICTED BY RF-SCORE:    0.00 PKD
ROOT
HETATM    1  C   UNL     1     -12.032  13.291  69.074  1.00  0.00    -0.336 C  
HETATM    2  C   UNL     1     -11.310  12.944  67.761  1.00  0.00    -0.299 C  
HETATM    3  C   UNL     1     -10.296  12.027  67.789  1.00  0.00    -0.197 C  
ENDROOT
BRANCH   2   4
HETATM    4  N   UNL     1     -11.847  13.606  66.640  1.00  0.00    -0.385 N  
HETATM    5  C   UNL     1     -12.449  12.888  65.594  1.00  0.00    -0.338 C  
HETATM    6  O   UNL     1     -12.681  13.314  64.473  1.00  0.00    -0.639 OA 
BRANCH   4   7
HETATM    7  C   UNL     1     -11.351  14.948  66.268  1.00  0.00    -0.306 C  
BRANCH   7   8
HETATM    8  C   UNL     1     -10.034  15.327  66.920  1.00  0.00    -0.243 A  
HETATM    9  H2  UNL     1     -12.020  16.613  67.958  1.00  0.00     0.000 HD 
HETATM   10  C   UNL     1      -8.768  15.061  66.533  1.00  0.00    -0.208 A  
HETATM   11  N   UNL     1      -8.938  16.182  68.928  1.00  0.00    -0.235 NA 
HETATM   12  N   UNL     1      -7.627  15.113  67.312  1.00  0.00    -0.203 NA 
HETATM   13  H1  UNL     1     -11.230  17.218  69.419  1.00  0.00     0.000 HD 
HETATM   14  C   UNL     1      -6.636  15.440  69.490  1.00  0.00    -0.166 C  
HETATM   15  N   UNL     1     -11.192  16.687  68.549  1.00  0.00    -0.309 NA 
HETATM   16  C   UNL     1      -7.766  15.609  68.507  1.00  0.00    -0.131 A  
HETATM   17  C   UNL     1     -10.091  16.106  68.195  1.00  0.00    -0.237 A  
ENDBRANCH   7   8
ENDBRANCH   4   7
ENDBRANCH   2   4
BRANCH   3  18
HETATM   18  C   UNL     1     -10.111  11.092  69.064  1.00  0.00    -0.197 C  
BRANCH  18  19
HETATM   19  C   UNL     1      -8.692  10.433  69.266  1.00  0.00    -0.150 C  
BRANCH  19  20
HETATM   20  O   UNL     1      -8.686   9.058  69.807  1.00  0.00    -0.133 OA 
HETATM   21  O   UNL     1      -8.456   8.924  72.012  1.00  0.00    -0.367 OA 
HETATM   22  O   UNL     1      -9.708   7.275  70.728  1.00  0.00    -0.172 OA 
HETATM   23  P   UNL     1      -9.813   8.863  71.105  1.00  0.00    -0.310 P  
HETATM   24  O   UNL     1     -10.821   8.688  72.267  1.00  0.00    -0.354 OA 
ENDBRANCH  19  20
ENDBRANCH  18  19
ENDBRANCH   3  18
BRANCH   3  25
HETATM   25  S   UNL     1      -9.099  11.727  66.444  1.00  0.00    -0.199 SA 
BRANCH  25  26
HETATM   26  C   UNL     1      -9.554  10.331  65.381  1.00  0.00    -0.251 C  
HETATM   27  O   UNL     1      -9.870  10.507  64.210  1.00  0.00    -0.300 OA 
BRANCH  26  28
HETATM   28  C   UNL     1      -9.641   8.904  65.970  1.00  0.00    -0.320 A  
HETATM   29  C   UNL     1      -8.566   6.674  66.235  1.00  0.00    -0.139 A  
HETATM   30  C   UNL     1      -8.586   7.986  65.713  1.00  0.00    -0.174 A  
HETATM   31  C   UNL     1     -10.648   8.429  66.813  1.00  0.00    -0.227 A  
HETATM   32  C   UNL     1      -9.600   6.244  67.057  1.00  0.00    -0.162 A  
HETATM   33  C   UNL     1     -10.638   7.129  67.351  1.00  0.00    -0.372 A  
ENDBRANCH  26  28
ENDBRANCH  25  26
ENDBRANCH   3  25
TORSDOF 9
ENDMDL
MODEL      170
REMARK 921   NORMALIZED FREE ENERGY PREDICTED BY IDOCK:   -5.17 KCAL/MOL
REMARK 922        TOTAL FREE ENERGY PREDICTED BY IDOCK:   -9.40 KCAL/MOL
REMARK 923 INTER-LIGAND FREE ENERGY PREDICTED BY IDOCK:   -7.87 KCAL/MOL
REMARK 924 INTRA-LIGAND FREE ENERGY PREDICTED BY IDOCK:   -1.52 KCAL/MOL
REMARK 927      BINDING AFFINITY PREDICTED BY RF-SCORE:    0.00 PKD
ROOT
HETATM    1  C   UNL     1      -9.921  10.678  64.244  1.00  0.00    -0.413 C  
HETATM    2  C   UNL     1      -9.318  10.555  65.653  1.00  0.00    -0.200 C  
HETATM    3  C   UNL     1      -9.957  11.160  66.700  1.00  0.00    -0.207 C  
ENDROOT
BRANCH   2   4
HETATM    4  N   UNL     1      -8.161   9.753  65.694  1.00  0.00    -0.116 N  
HETATM    5  C   UNL     1      -6.917  10.294  66.059  1.00  0.00    -0.120 C  
HETATM    6  O   UNL     1      -5.826   9.783  65.855  1.00  0.00    -0.055 OA 
BRANCH   4   7
HETATM    7  C   UNL     1      -8.088   8.521  64.880  1.00  0.00    -0.145 C  
BRANCH   7   8
HETATM    8  C   UNL     1      -8.645   7.287  65.568  1.00  0.00    -0.090 A  
HETATM    9  H2  UNL     1      -7.507   6.699  63.324  1.00  0.00     0.000 HD 
HETATM   10  C   UNL     1      -9.487   7.189  66.619  1.00  0.00    -0.170 A  
HETATM   11  N   UNL     1      -8.473   4.867  65.841  1.00  0.00    -0.117 NA 
HETATM   12  N   UNL     1      -9.693   6.084  67.424  1.00  0.00    -0.111 NA 
HETATM   13  H1  UNL     1      -7.368   4.949  63.530  1.00  0.00     0.000 HD 
HETATM   14  C   UNL     1      -9.079   3.823  68.011  1.00  0.00    -0.187 C  
HETATM   15  N   UNL     1      -7.659   5.861  63.885  1.00  0.00    -0.078 NA 
HETATM   16  C   UNL     1      -9.122   4.978  67.044  1.00  0.00    -0.117 A  
HETATM   17  C   UNL     1      -8.220   5.952  65.047  1.00  0.00    -0.138 A  
ENDBRANCH   7   8
ENDBRANCH   4   7
ENDBRANCH   2   4
BRANCH   3  18
HETATM   18  C   UNL     1     -11.457  11.666  66.523  1.00  0.00    -0.260 C  
BRANCH  18  19
HETATM   19  C   UNL     1     -11.721  13.205  66.749  1.00  0.00    -0.385 C  
BRANCH  19  20
HETATM   20  O   UNL     1     -10.699  14.125  66.208  1.00  0.00    -0.287 OA 
HETATM   21  O   UNL     1     -10.550  14.155  63.992  1.00  0.00     0.065 OA 
HETATM   22  O   UNL     1     -10.051  16.108  65.360  1.00  0.00    -0.485 OA 
HETATM   23  P   UNL     1     -11.343  15.174  64.992  1.00  0.00    -0.300 P  
HETATM   24  O   UNL     1     -11.919  16.113  63.905  1.00  0.00    -0.947 OA 
ENDBRANCH  19  20
ENDBRANCH  18  19
ENDBRANCH   3  18
BRANCH   3  25
HETATM   25  S   UNL     1      -9.253  11.430  68.362  1.00  0.00    -0.177 SA 
BRANCH  25  26
HETATM   26  C   UNL     1      -9.311   9.953  69.411  1.00  0.00    -0.214 C  
HETATM   27  O   UNL     1      -8.439   9.094  69.339  1.00  0.00    -0.120 OA 
BRANCH  26  28
HETATM   28  C   UNL     1     -10.517   9.714  70.348  1.00  0.00    -0.352 A  
HETATM   29  C   UNL     1     -12.715  10.526  71.190  1.00  0.00    -0.518 A  
HETATM   30  C   UNL     1     -11.563  10.677  70.387  1.00  0.00    -0.441 A  
HETATM   31  C   UNL     1     -10.727   8.579  71.135  1.00  0.00    -0.290 A  
HETATM   32  C   UNL     1     -12.870   9.385  71.966  1.00  0.00    -0.496 A  
HETATM   33  C   UNL     1     -11.874   8.407  71.930  1.00  0.00    -0.398 A  
ENDBRANCH  26  28
ENDBRANCH  25  26
ENDBRANCH   3  25
TORSDOF 9
ENDMDL
MODEL      171
REMARK 921   NORMALIZED FREE ENERGY PREDICTED BY IDOCK:   -5.17 KCAL/MOL
REMARK 922        TOTAL FREE ENERGY PREDICTED BY IDOCK:   -9.39 KCAL/MOL
REMARK 923 INTER-LIGAND FREE ENERGY PREDICTED BY IDOCK:   -9.13 KCAL/MOL
REMARK 924 INTRA-LIGAND FREE ENERGY PREDICTED BY IDOCK:   -0.26 KCAL/MOL
REMARK 927      BINDING AFFINITY PREDICTED BY RF-SCORE:    0.00 PKD
ROOT
HETATM    1  C   UNL     1     -10.639  19.357  66.617  1.00  0.00    -0.566 C  
HETATM    2  C   UNL     1      -9.407  18.436  66.596  1.00  0.00    -0.305 C  
HETATM    3  C   UNL     1      -9.595  17.087  66.472  1.00  0.00    -0.278 C  
ENDROOT
BRANCH   2   4
HETATM    4  N   UNL     1      -8.187  19.138  66.656  1.00  0.00    -0.281 N  
HETATM    5  C   UNL     1      -7.176  18.915  65.708  1.00  0.00    -0.211 C  
HETATM    6  O   UNL     1      -6.003  19.238  65.822  1.00  0.00    -0.168 OA 
BRANCH   4   7
HETATM    7  C   UNL     1      -7.721  19.697  67.943  1.00  0.00    -0.296 C  
BRANCH   7   8
HETATM    8  C   UNL     1      -6.795  18.780  68.721  1.00  0.00    -0.309 A  
HETATM    9  H2  UNL     1      -6.463  21.256  69.379  1.00  0.00     0.000 HD 
HETATM   10  C   UNL     1      -6.501  17.477  68.523  1.00  0.00    -0.186 A  
HETATM   11  N   UNL     1      -5.500  18.468  70.767  1.00  0.00    -0.241 NA 
HETATM   12  N   UNL     1      -5.942  16.598  69.432  1.00  0.00    -0.171 NA 
HETATM   13  H1  UNL     1      -5.539  21.029  70.869  1.00  0.00     0.000 HD 
HETATM   14  C   UNL     1      -5.164  16.184  71.680  1.00  0.00     0.140 C  
HETATM   15  N   UNL     1      -6.024  20.637  70.062  1.00  0.00    -0.445 NA 
HETATM   16  C   UNL     1      -5.523  17.114  70.551  1.00  0.00    -0.201 A  
HETATM   17  C   UNL     1      -6.083  19.354  69.904  1.00  0.00    -0.274 A  
ENDBRANCH   7   8
ENDBRANCH   4   7
ENDBRANCH   2   4
BRANCH   3  18
HETATM   18  C   UNL     1     -11.010  16.526  66.006  1.00  0.00     0.057 C  
BRANCH  18  19
HETATM   19  C   UNL     1     -11.051  15.741  64.637  1.00  0.00    -0.361 C  
BRANCH  19  20
HETATM   20  O   UNL     1     -10.651  14.320  64.693  1.00  0.00    -0.421 OA 
HETATM   21  O   UNL     1     -12.137  12.969  65.640  1.00  0.00    -0.406 OA 
HETATM   22  O   UNL     1     -10.633  12.222  63.876  1.00  0.00    -0.354 OA 
HETATM   23  P   UNL     1     -11.873  13.273  64.057  1.00  0.00    -0.444 P  
HETATM   24  O   UNL     1     -12.966  12.336  63.489  1.00  0.00    -0.776 OA 
ENDBRANCH  19  20
ENDBRANCH  18  19
ENDBRANCH   3  18
BRANCH   3  25
HETATM   25  S   UNL     1      -8.326  15.807  66.766  1.00  0.00    -0.287 SA 
BRANCH  25  26
HETATM   26  C   UNL     1      -8.962  14.363  67.656  1.00  0.00    -0.192 C  
HETATM   27  O   UNL     1      -8.563  13.234  67.392  1.00  0.00    -0.183 OA 
BRANCH  26  28
HETATM   28  C   UNL     1     -10.090  14.529  68.701  1.00  0.00    -0.244 A  
HETATM   29  C   UNL     1     -11.087  15.919  70.510  1.00  0.00    -0.381 A  
HETATM   30  C   UNL     1     -10.081  15.670  69.550  1.00  0.00    -0.277 A  
HETATM   31  C   UNL     1     -11.191  13.683  68.855  1.00  0.00    -0.309 A  
HETATM   32  C   UNL     1     -12.154  15.038  70.635  1.00  0.00    -0.375 A  
HETATM   33  C   UNL     1     -12.206  13.922  69.798  1.00  0.00    -0.388 A  
ENDBRANCH  26  28
ENDBRANCH  25  26
ENDBRANCH   3  25
TORSDOF 9
ENDMDL
MODEL      172
REMARK 921   NORMALIZED FREE ENERGY PREDICTED BY IDOCK:   -5.17 KCAL/MOL
REMARK 922        TOTAL FREE ENERGY PREDICTED BY IDOCK:   -9.39 KCAL/MOL
REMARK 923 INTER-LIGAND FREE ENERGY PREDICTED BY IDOCK:   -8.08 KCAL/MOL
REMARK 924 INTRA-LIGAND FREE ENERGY PREDICTED BY IDOCK:   -1.31 KCAL/MOL
REMARK 927      BINDING AFFINITY PREDICTED BY RF-SCORE:    0.00 PKD
ROOT
HETATM    1  C   UNL     1     -12.263  11.221  69.812  1.00  0.00    -0.343 C  
HETATM    2  C   UNL     1     -10.917  11.088  69.079  1.00  0.00    -0.233 C  
HETATM    3  C   UNL     1     -10.553  12.060  68.188  1.00  0.00    -0.210 C  
ENDROOT
BRANCH   2   4
HETATM    4  N   UNL     1     -10.177   9.958  69.477  1.00  0.00    -0.209 N  
HETATM    5  C   UNL     1      -8.792  10.040  69.697  1.00  0.00    -0.199 C  
HETATM    6  O   UNL     1      -8.019   9.096  69.758  1.00  0.00    -0.083 OA 
BRANCH   4   7
HETATM    7  C   UNL     1     -10.679   8.601  69.171  1.00  0.00    -0.118 C  
BRANCH   7   8
HETATM    8  C   UNL     1     -10.977   7.757  70.396  1.00  0.00    -0.255 A  
HETATM    9  H2  UNL     1     -10.311   6.300  68.370  1.00  0.00     0.000 HD 
HETATM   10  C   UNL     1     -11.560   8.103  71.564  1.00  0.00    -0.275 A  
HETATM   11  N   UNL     1     -10.565   5.647  71.553  1.00  0.00    -0.238 NA 
HETATM   12  N   UNL     1     -11.501   7.417  72.763  1.00  0.00    -0.296 NA 
HETATM   13  H1  UNL     1      -9.997   4.776  69.210  1.00  0.00     0.000 HD 
HETATM   14  C   UNL     1     -10.604   5.571  74.035  1.00  0.00    -0.283 C  
HETATM   15  N   UNL     1     -10.273   5.759  69.234  1.00  0.00    -0.203 NA 
HETATM   16  C   UNL     1     -10.944   6.242  72.729  1.00  0.00    -0.260 A  
HETATM   17  C   UNL     1     -10.574   6.318  70.361  1.00  0.00    -0.252 A  
ENDBRANCH   7   8
ENDBRANCH   4   7
ENDBRANCH   2   4
BRANCH   3  18
HETATM   18  C   UNL     1     -11.323  13.453  68.180  1.00  0.00    -0.321 C  
BRANCH  18  19
HETATM   19  C   UNL     1     -11.476  14.175  66.785  1.00  0.00    -0.369 C  
BRANCH  19  20
HETATM   20  O   UNL     1     -12.542  13.659  65.901  1.00  0.00    -0.460 OA 
HETATM   21  O   UNL     1     -12.541  14.503  63.847  1.00  0.00    -0.827 OA 
HETATM   22  O   UNL     1     -13.316  12.244  64.330  1.00  0.00    -0.777 OA 
HETATM   23  P   UNL     1     -11.919  13.093  64.389  1.00  0.00    -0.440 P  
HETATM   24  O   UNL     1     -11.362  12.587  63.037  1.00  0.00    -0.280 OA 
ENDBRANCH  19  20
ENDBRANCH  18  19
ENDBRANCH   3  18
BRANCH   3  25
HETATM   25  S   UNL     1      -9.192  11.934  66.977  1.00  0.00    -0.197 SA 
BRANCH  25  26
HETATM   26  C   UNL     1      -9.314  10.471  65.915  1.00  0.00    -0.181 C  
HETATM   27  O   UNL     1     -10.396   9.934  65.704  1.00  0.00    -0.220 OA 
BRANCH  26  28
HETATM   28  C   UNL     1      -8.035   9.825  65.334  1.00  0.00    -0.125 A  
HETATM   29  C   UNL     1      -5.988   8.474  65.758  1.00  0.00    -0.048 A  
HETATM   30  C   UNL     1      -7.161   9.121  66.206  1.00  0.00    -0.087 A  
HETATM   31  C   UNL     1      -7.673   9.802  63.985  1.00  0.00    -0.134 A  
HETATM   32  C   UNL     1      -5.663   8.493  64.407  1.00  0.00    -0.064 A  
HETATM   33  C   UNL     1      -6.515   9.154  63.520  1.00  0.00    -0.090 A  
ENDBRANCH  26  28
ENDBRANCH  25  26
ENDBRANCH   3  25
TORSDOF 9
ENDMDL
MODEL      173
REMARK 921   NORMALIZED FREE ENERGY PREDICTED BY IDOCK:   -5.16 KCAL/MOL
REMARK 922        TOTAL FREE ENERGY PREDICTED BY IDOCK:   -9.39 KCAL/MOL
REMARK 923 INTER-LIGAND FREE ENERGY PREDICTED BY IDOCK:   -7.55 KCAL/MOL
REMARK 924 INTRA-LIGAND FREE ENERGY PREDICTED BY IDOCK:   -1.84 KCAL/MOL
REMARK 927      BINDING AFFINITY PREDICTED BY RF-SCORE:    0.00 PKD
ROOT
HETATM    1  C   UNL     1      -9.964  11.677  68.641  1.00  0.00    -0.192 C  
HETATM    2  C   UNL     1      -8.754  10.772  68.355  1.00  0.00    -0.142 C  
HETATM    3  C   UNL     1      -8.366  10.582  67.058  1.00  0.00    -0.128 C  
ENDROOT
BRANCH   2   4
HETATM    4  N   UNL     1      -8.142  10.276  69.522  1.00  0.00    -0.167 N  
HETATM    5  C   UNL     1      -6.988  10.880  70.048  1.00  0.00    -0.029 C  
HETATM    6  O   UNL     1      -6.225  10.380  70.861  1.00  0.00    -0.277 OA 
BRANCH   4   7
HETATM    7  C   UNL     1      -8.340   8.865  69.917  1.00  0.00    -0.128 C  
BRANCH   7   8
HETATM    8  C   UNL     1      -9.660   8.593  70.616  1.00  0.00    -0.222 A  
HETATM    9  H2  UNL     1      -7.687   8.646  72.283  1.00  0.00     0.000 HD 
HETATM   10  C   UNL     1     -10.864   8.272  70.096  1.00  0.00    -0.237 A  
HETATM   11  N   UNL     1     -10.919   8.749  72.702  1.00  0.00    -0.035 NA 
HETATM   12  N   UNL     1     -12.096   8.374  70.715  1.00  0.00    -0.137 NA 
HETATM   13  H1  UNL     1      -8.599   8.775  73.792  1.00  0.00     0.000 HD 
HETATM   14  C   UNL     1     -13.380   9.069  72.638  1.00  0.00    -0.391 C  
HETATM   15  N   UNL     1      -8.580   8.706  72.775  1.00  0.00    -0.409 NA 
HETATM   16  C   UNL     1     -12.083   8.676  71.981  1.00  0.00    -0.375 A  
HETATM   17  C   UNL     1      -9.688   8.694  72.107  1.00  0.00    -0.313 A  
ENDBRANCH   7   8
ENDBRANCH   4   7
ENDBRANCH   2   4
BRANCH   3  18
HETATM   18  C   UNL     1      -8.920  11.545  65.917  1.00  0.00    -0.152 C  
BRANCH  18  19
HETATM   19  C   UNL     1     -10.104  10.994  65.032  1.00  0.00    -0.296 C  
BRANCH  19  20
HETATM   20  O   UNL     1     -11.442  11.554  65.317  1.00  0.00    -0.170 OA 
HETATM   21  O   UNL     1     -11.575  13.767  65.181  1.00  0.00    -0.315 OA 
HETATM   22  O   UNL     1     -13.463  12.312  64.676  1.00  0.00    -0.620 OA 
HETATM   23  P   UNL     1     -11.976  12.634  64.075  1.00  0.00    -0.536 P  
HETATM   24  O   UNL     1     -12.454  13.599  62.964  1.00  0.00    -0.719 OA 
ENDBRANCH  19  20
ENDBRANCH  18  19
ENDBRANCH   3  18
BRANCH   3  25
HETATM   25  S   UNL     1      -7.200   9.303  66.475  1.00  0.00    -0.086 SA 
BRANCH  25  26
HETATM   26  C   UNL     1      -7.930   8.168  65.266  1.00  0.00    -0.126 C  
HETATM   27  O   UNL     1      -7.801   8.360  64.063  1.00  0.00    -0.131 OA 
BRANCH  26  28
HETATM   28  C   UNL     1      -8.809   6.988  65.742  1.00  0.00    -0.088 A  
HETATM   29  C   UNL     1     -10.862   6.251  66.943  1.00  0.00    -0.428 A  
HETATM   30  C   UNL     1      -9.985   7.262  66.494  1.00  0.00    -0.182 A  
HETATM   31  C   UNL     1      -8.599   5.640  65.442  1.00  0.00    -0.150 A  
HETATM   32  C   UNL     1     -10.599   4.922  66.630  1.00  0.00    -0.200 A  
HETATM   33  C   UNL     1      -9.468   4.621  65.871  1.00  0.00    -0.174 A  
ENDBRANCH  26  28
ENDBRANCH  25  26
ENDBRANCH   3  25
TORSDOF 9
ENDMDL
MODEL      174
REMARK 921   NORMALIZED FREE ENERGY PREDICTED BY IDOCK:   -5.16 KCAL/MOL
REMARK 922        TOTAL FREE ENERGY PREDICTED BY IDOCK:   -9.38 KCAL/MOL
REMARK 923 INTER-LIGAND FREE ENERGY PREDICTED BY IDOCK:   -8.02 KCAL/MOL
REMARK 924 INTRA-LIGAND FREE ENERGY PREDICTED BY IDOCK:   -1.36 KCAL/MOL
REMARK 927      BINDING AFFINITY PREDICTED BY RF-SCORE:    0.00 PKD
ROOT
HETATM    1  C   UNL     1      -8.168   9.189  69.931  1.00  0.00    -0.137 C  
HETATM    2  C   UNL     1      -9.683   9.453  69.919  1.00  0.00    -0.212 C  
HETATM    3  C   UNL     1     -10.187  10.360  69.028  1.00  0.00    -0.217 C  
ENDROOT
BRANCH   2   4
HETATM    4  N   UNL     1     -10.394   8.652  70.832  1.00  0.00    -0.201 N  
HETATM    5  C   UNL     1      -9.984   8.540  72.171  1.00  0.00    -0.317 C  
HETATM    6  O   UNL     1     -10.336   7.675  72.958  1.00  0.00    -0.273 OA 
BRANCH   4   7
HETATM    7  C   UNL     1     -11.222   7.530  70.340  1.00  0.00    -0.253 C  
BRANCH   7   8
HETATM    8  C   UNL     1     -10.689   6.868  69.083  1.00  0.00    -0.262 A  
HETATM    9  H2  UNL     1      -9.316   6.205  71.168  1.00  0.00     0.000 HD 
HETATM   10  C   UNL     1     -10.973   7.118  67.787  1.00  0.00    -0.117 A  
HETATM   11  N   UNL     1      -9.462   4.972  68.154  1.00  0.00    -0.126 NA 
HETATM   12  N   UNL     1     -10.746   6.286  66.706  1.00  0.00    -0.302 NA 
HETATM   13  H1  UNL     1      -8.440   4.822  70.500  1.00  0.00     0.000 HD 
HETATM   14  C   UNL     1     -10.013   4.138  65.881  1.00  0.00    -0.198 C  
HETATM   15  N   UNL     1      -9.112   5.582  70.386  1.00  0.00    -0.137 NA 
HETATM   16  C   UNL     1     -10.057   5.208  66.941  1.00  0.00    -0.226 A  
HETATM   17  C   UNL     1      -9.705   5.755  69.249  1.00  0.00    -0.144 A  
ENDBRANCH   7   8
ENDBRANCH   4   7
ENDBRANCH   2   4
BRANCH   3  18
HETATM   18  C   UNL     1      -9.288  10.854  67.809  1.00  0.00    -0.162 C  
BRANCH  18  19
HETATM   19  C   UNL     1      -9.755  10.433  66.362  1.00  0.00    -0.201 C  
BRANCH  19  20
HETATM   20  O   UNL     1      -9.462  11.396  65.281  1.00  0.00    -0.225 OA 
HETATM   21  O   UNL     1      -9.767  10.614  63.225  1.00  0.00    -0.304 OA 
HETATM   22  O   UNL     1     -10.081  12.963  63.787  1.00  0.00    -0.368 OA 
HETATM   23  P   UNL     1     -10.764  11.521  64.148  1.00  0.00    -0.393 P  
HETATM   24  O   UNL     1     -11.928  11.634  63.134  1.00  0.00    -0.300 OA 
ENDBRANCH  19  20
ENDBRANCH  18  19
ENDBRANCH   3  18
BRANCH   3  25
HETATM   25  S   UNL     1     -11.868  11.070  69.071  1.00  0.00    -0.288 SA 
BRANCH  25  26
HETATM   26  C   UNL     1     -12.017  12.612  68.132  1.00  0.00    -0.222 C  
HETATM   27  O   UNL     1     -12.348  12.603  66.952  1.00  0.00    -0.430 OA 
BRANCH  26  28
HETATM   28  C   UNL     1     -11.634  13.959  68.787  1.00  0.00    -0.370 A  
HETATM   29  C   UNL     1     -10.591  16.204  68.518  1.00  0.00    -0.284 A  
HETATM   30  C   UNL     1     -10.952  14.936  68.011  1.00  0.00    -0.282 A  
HETATM   31  C   UNL     1     -11.962  14.357  70.086  1.00  0.00    -0.386 A  
HETATM   32  C   UNL     1     -10.927  16.546  69.822  1.00  0.00    -0.292 A  
HETATM   33  C   UNL     1     -11.620  15.620  70.603  1.00  0.00    -0.394 A  
ENDBRANCH  26  28
ENDBRANCH  25  26
ENDBRANCH   3  25
TORSDOF 9
ENDMDL
MODEL      175
REMARK 921   NORMALIZED FREE ENERGY PREDICTED BY IDOCK:   -5.15 KCAL/MOL
REMARK 922        TOTAL FREE ENERGY PREDICTED BY IDOCK:   -9.36 KCAL/MOL
REMARK 923 INTER-LIGAND FREE ENERGY PREDICTED BY IDOCK:   -8.29 KCAL/MOL
REMARK 924 INTRA-LIGAND FREE ENERGY PREDICTED BY IDOCK:   -1.07 KCAL/MOL
REMARK 927      BINDING AFFINITY PREDICTED BY RF-SCORE:    0.00 PKD
ROOT
HETATM    1  C   UNL     1     -11.821  11.056  68.791  1.00  0.00    -0.352 C  
HETATM    2  C   UNL     1     -10.998  11.952  67.850  1.00  0.00    -0.222 C  
HETATM    3  C   UNL     1      -9.713  11.593  67.554  1.00  0.00    -0.177 C  
ENDROOT
BRANCH   2   4
HETATM    4  N   UNL     1     -11.726  13.049  67.350  1.00  0.00    -0.361 N  
HETATM    5  C   UNL     1     -12.324  13.003  66.080  1.00  0.00    -0.265 C  
HETATM    6  O   UNL     1     -12.720  13.966  65.439  1.00  0.00    -0.570 OA 
BRANCH   4   7
HETATM    7  C   UNL     1     -11.454  14.410  67.861  1.00  0.00    -0.321 C  
BRANCH   7   8
HETATM    8  C   UNL     1     -11.692  14.575  69.351  1.00  0.00    -0.361 A  
HETATM    9  H2  UNL     1     -10.153  16.428  68.417  1.00  0.00     0.000 HD 
HETATM   10  C   UNL     1     -12.237  13.717  70.239  1.00  0.00    -0.359 A  
HETATM   11  N   UNL     1     -11.772  16.130  71.231  1.00  0.00    -0.446 NA 
HETATM   12  N   UNL     1     -12.750  14.021  71.487  1.00  0.00    -0.349 NA 
HETATM   13  H1  UNL     1     -10.224  17.561  69.772  1.00  0.00     0.000 HD 
HETATM   14  C   UNL     1     -13.323  15.703  73.122  1.00  0.00    -0.660 C  
HETATM   15  N   UNL     1     -10.499  16.677  69.344  1.00  0.00    -0.324 NA 
HETATM   16  C   UNL     1     -12.559  15.236  71.910  1.00  0.00    -0.353 A  
HETATM   17  C   UNL     1     -11.288  15.871  69.978  1.00  0.00    -0.358 A  
ENDBRANCH   7   8
ENDBRANCH   4   7
ENDBRANCH   2   4
BRANCH   3  18
HETATM   18  C   UNL     1      -9.209  10.118  67.882  1.00  0.00    -0.144 C  
BRANCH  18  19
HETATM   19  C   UNL     1      -7.866   9.988  68.700  1.00  0.00    -0.091 C  
BRANCH  19  20
HETATM   20  O   UNL     1      -7.837   8.934  69.736  1.00  0.00    -0.083 OA 
HETATM   21  O   UNL     1      -9.136   9.319  71.496  1.00  0.00    -0.315 OA 
HETATM   22  O   UNL     1      -8.645   7.069  70.703  1.00  0.00    -0.144 OA 
HETATM   23  P   UNL     1      -9.425   8.405  70.173  1.00  0.00    -0.168 P  
HETATM   24  O   UNL     1     -10.846   7.931  70.565  1.00  0.00    -0.233 OA 
ENDBRANCH  19  20
ENDBRANCH  18  19
ENDBRANCH   3  18
BRANCH   3  25
HETATM   25  S   UNL     1      -8.468  12.663  66.756  1.00  0.00     0.029 SA 
BRANCH  25  26
HETATM   26  C   UNL     1      -7.697  13.838  67.899  1.00  0.00    -0.161 C  
HETATM   27  O   UNL     1      -7.242  13.466  68.974  1.00  0.00    -0.094 OA 
BRANCH  26  28
HETATM   28  C   UNL     1      -7.689  15.349  67.570  1.00  0.00    -0.205 A  
HETATM   29  C   UNL     1      -6.836  17.618  68.140  1.00  0.00    -0.207 A  
HETATM   30  C   UNL     1      -6.926  16.230  68.384  1.00  0.00    -0.135 A  
HETATM   31  C   UNL     1      -8.320  15.949  66.477  1.00  0.00    -0.330 A  
HETATM   32  C   UNL     1      -7.495  18.169  67.047  1.00  0.00    -0.227 A  
HETATM   33  C   UNL     1      -8.232  17.328  66.213  1.00  0.00    -0.302 A  
ENDBRANCH  26  28
ENDBRANCH  25  26
ENDBRANCH   3  25
TORSDOF 9
ENDMDL
MODEL      176
REMARK 921   NORMALIZED FREE ENERGY PREDICTED BY IDOCK:   -5.14 KCAL/MOL
REMARK 922        TOTAL FREE ENERGY PREDICTED BY IDOCK:   -9.35 KCAL/MOL
REMARK 923 INTER-LIGAND FREE ENERGY PREDICTED BY IDOCK:   -8.09 KCAL/MOL
REMARK 924 INTRA-LIGAND FREE ENERGY PREDICTED BY IDOCK:   -1.26 KCAL/MOL
REMARK 927      BINDING AFFINITY PREDICTED BY RF-SCORE:    0.00 PKD
ROOT
HETATM    1  C   UNL     1      -9.487   8.935  71.734  1.00  0.00    -0.334 C  
HETATM    2  C   UNL     1     -10.526   9.156  70.622  1.00  0.00    -0.245 C  
HETATM    3  C   UNL     1     -10.115   9.692  69.433  1.00  0.00    -0.203 C  
ENDROOT
BRANCH   2   4
HETATM    4  N   UNL     1     -11.815   8.709  70.969  1.00  0.00    -0.284 N  
HETATM    5  C   UNL     1     -12.651   9.477  71.797  1.00  0.00    -0.405 C  
HETATM    6  O   UNL     1     -13.643   9.073  72.386  1.00  0.00    -0.441 OA 
BRANCH   4   7
HETATM    7  C   UNL     1     -12.127   7.263  70.940  1.00  0.00    -0.288 C  
BRANCH   7   8
HETATM    8  C   UNL     1     -11.213   6.447  70.044  1.00  0.00    -0.475 A  
HETATM    9  H2  UNL     1     -10.559   6.224  72.534  1.00  0.00     0.000 HD 
HETATM   10  C   UNL     1     -11.076   6.467  68.701  1.00  0.00    -0.311 A  
HETATM   11  N   UNL     1      -9.725   4.518  69.884  1.00  0.00    -0.203 NA 
HETATM   12  N   UNL     1     -10.506   5.491  67.905  1.00  0.00    -0.200 NA 
HETATM   13  H1  UNL     1      -9.495   4.818  72.420  1.00  0.00     0.000 HD 
HETATM   14  C   UNL     1      -9.515   3.295  67.734  1.00  0.00    -0.217 C  
HETATM   15  N   UNL     1     -10.108   5.501  71.974  1.00  0.00    -0.181 NA 
HETATM   16  C   UNL     1      -9.910   4.515  68.526  1.00  0.00    -0.089 A  
HETATM   17  C   UNL     1     -10.314   5.447  70.697  1.00  0.00    -0.262 A  
ENDBRANCH   7   8
ENDBRANCH   4   7
ENDBRANCH   2   4
BRANCH   3  18
HETATM   18  C   UNL     1      -8.562   9.749  69.086  1.00  0.00    -0.153 C  
BRANCH  18  19
HETATM   19  C   UNL     1      -8.004  11.116  68.530  1.00  0.00    -0.143 C  
BRANCH  19  20
HETATM   20  O   UNL     1      -8.038  11.281  67.062  1.00  0.00    -0.136 OA 
HETATM   21  O   UNL     1      -6.220  10.571  66.001  1.00  0.00    -0.101 OA 
HETATM   22  O   UNL     1      -8.432  10.519  64.980  1.00  0.00    -0.173 OA 
HETATM   23  P   UNL     1      -7.649   9.814  66.231  1.00  0.00    -0.104 P  
HETATM   24  O   UNL     1      -7.301   8.501  65.488  1.00  0.00    -0.081 OA 
ENDBRANCH  19  20
ENDBRANCH  18  19
ENDBRANCH   3  18
BRANCH   3  25
HETATM   25  S   UNL     1     -11.211  10.348  68.129  1.00  0.00    -0.213 SA 
BRANCH  25  26
HETATM   26  C   UNL     1     -11.480  12.136  68.254  1.00  0.00    -0.305 C  
HETATM   27  O   UNL     1     -11.921  12.637  69.282  1.00  0.00    -0.292 OA 
BRANCH  26  28
HETATM   28  C   UNL     1     -11.243  13.044  67.025  1.00  0.00    -0.325 A  
HETATM   29  C   UNL     1     -12.107  13.909  64.856  1.00  0.00    -0.434 A  
HETATM   30  C   UNL     1     -12.226  13.087  65.998  1.00  0.00    -0.463 A  
HETATM   31  C   UNL     1     -10.160  13.909  66.846  1.00  0.00    -0.260 A  
HETATM   32  C   UNL     1     -11.002  14.741  64.718  1.00  0.00    -0.393 A  
HETATM   33  C   UNL     1     -10.032  14.743  65.721  1.00  0.00    -0.375 A  
ENDBRANCH  26  28
ENDBRANCH  25  26
ENDBRANCH   3  25
TORSDOF 9
ENDMDL
MODEL      177
REMARK 921   NORMALIZED FREE ENERGY PREDICTED BY IDOCK:   -5.14 KCAL/MOL
REMARK 922        TOTAL FREE ENERGY PREDICTED BY IDOCK:   -9.35 KCAL/MOL
REMARK 923 INTER-LIGAND FREE ENERGY PREDICTED BY IDOCK:   -7.73 KCAL/MOL
REMARK 924 INTRA-LIGAND FREE ENERGY PREDICTED BY IDOCK:   -1.62 KCAL/MOL
REMARK 927      BINDING AFFINITY PREDICTED BY RF-SCORE:    0.00 PKD
ROOT
HETATM    1  C   UNL     1      -7.534   7.462  69.939  1.00  0.00    -0.085 C  
HETATM    2  C   UNL     1      -8.918   7.657  69.298  1.00  0.00    -0.135 C  
HETATM    3  C   UNL     1      -8.989   8.027  67.983  1.00  0.00    -0.130 C  
ENDROOT
BRANCH   2   4
HETATM    4  N   UNL     1      -9.982   7.362  70.172  1.00  0.00    -0.184 N  
HETATM    5  C   UNL     1     -11.070   6.581  69.751  1.00  0.00    -0.370 C  
HETATM    6  O   UNL     1     -12.155   6.505  70.309  1.00  0.00    -0.348 OA 
BRANCH   4   7
HETATM    7  C   UNL     1     -10.261   8.252  71.320  1.00  0.00    -0.202 C  
BRANCH   7   8
HETATM    8  C   UNL     1     -11.105   9.465  70.975  1.00  0.00    -0.414 A  
HETATM    9  H2  UNL     1     -12.377   7.819  72.508  1.00  0.00     0.000 HD 
HETATM   10  C   UNL     1     -10.904  10.424  70.046  1.00  0.00    -0.289 A  
HETATM   11  N   UNL     1     -12.946  10.915  71.662  1.00  0.00    -0.464 NA 
HETATM   12  N   UNL     1     -11.491  11.675  69.995  1.00  0.00    -0.233 NA 
HETATM   13  H1  UNL     1     -13.700   8.875  73.017  1.00  0.00     0.000 HD 
HETATM   14  C   UNL     1     -12.929  13.316  71.028  1.00  0.00    -0.233 C  
HETATM   15  N   UNL     1     -12.846   8.725  72.479  1.00  0.00    -0.375 NA 
HETATM   16  C   UNL     1     -12.445  11.901  70.850  1.00  0.00    -0.300 A  
HETATM   17  C   UNL     1     -12.358   9.685  71.762  1.00  0.00    -0.392 A  
ENDBRANCH   7   8
ENDBRANCH   4   7
ENDBRANCH   2   4
BRANCH   3  18
HETATM   18  C   UNL     1      -7.698   7.911  67.058  1.00  0.00    -0.100 C  
BRANCH  18  19
HETATM   19  C   UNL     1      -7.709   6.781  65.958  1.00  0.00    -0.093 C  
BRANCH  19  20
HETATM   20  O   UNL     1      -7.959   5.407  66.442  1.00  0.00    -0.103 OA 
HETATM   21  O   UNL     1     -10.102   4.887  66.704  1.00  0.00    -0.201 OA 
HETATM   22  O   UNL     1      -8.420   3.229  66.106  1.00  0.00    -0.104 OA 
HETATM   23  P   UNL     1      -9.102   4.565  65.453  1.00  0.00    -0.158 P  
HETATM   24  O   UNL     1     -10.125   3.811  64.569  1.00  0.00    -0.194 OA 
ENDBRANCH  19  20
ENDBRANCH  18  19
ENDBRANCH   3  18
BRANCH   3  25
HETATM   25  S   UNL     1     -10.484   8.637  67.132  1.00  0.00    -0.244 SA 
BRANCH  25  26
HETATM   26  C   UNL     1     -10.145   9.984  65.968  1.00  0.00    -0.248 C  
HETATM   27  O   UNL     1      -9.733   9.750  64.837  1.00  0.00    -0.296 OA 
BRANCH  26  28
HETATM   28  C   UNL     1     -10.283  11.455  66.422  1.00  0.00    -0.270 A  
HETATM   29  C   UNL     1     -11.761  13.441  66.686  1.00  0.00    -0.428 A  
HETATM   30  C   UNL     1     -11.536  12.110  66.271  1.00  0.00    -0.433 A  
HETATM   31  C   UNL     1      -9.289  12.212  67.049  1.00  0.00    -0.201 A  
HETATM   32  C   UNL     1     -10.735  14.157  67.292  1.00  0.00    -0.279 A  
HETATM   33  C   UNL     1      -9.500  13.535  67.478  1.00  0.00    -0.222 A  
ENDBRANCH  26  28
ENDBRANCH  25  26
ENDBRANCH   3  25
TORSDOF 9
ENDMDL
MODEL      178
REMARK 921   NORMALIZED FREE ENERGY PREDICTED BY IDOCK:   -5.14 KCAL/MOL
REMARK 922        TOTAL FREE ENERGY PREDICTED BY IDOCK:   -9.35 KCAL/MOL
REMARK 923 INTER-LIGAND FREE ENERGY PREDICTED BY IDOCK:   -7.69 KCAL/MOL
REMARK 924 INTRA-LIGAND FREE ENERGY PREDICTED BY IDOCK:   -1.66 KCAL/MOL
REMARK 927      BINDING AFFINITY PREDICTED BY RF-SCORE:    0.00 PKD
ROOT
HETATM    1  C   UNL     1      -9.300   8.881  71.820  1.00  0.00    -0.304 C  
HETATM    2  C   UNL     1     -10.221   8.941  70.591  1.00  0.00    -0.217 C  
HETATM    3  C   UNL     1      -9.670   9.197  69.366  1.00  0.00    -0.170 C  
ENDROOT
BRANCH   2   4
HETATM    4  N   UNL     1     -11.568   8.659  70.891  1.00  0.00    -0.278 N  
HETATM    5  C   UNL     1     -12.259   9.389  71.872  1.00  0.00    -0.368 C  
HETATM    6  O   UNL     1     -13.306   9.055  72.409  1.00  0.00    -0.423 OA 
BRANCH   4   7
HETATM    7  C   UNL     1     -12.122   7.317  70.608  1.00  0.00    -0.186 C  
BRANCH   7   8
HETATM    8  C   UNL     1     -11.430   6.190  71.353  1.00  0.00    -0.317 A  
HETATM    9  H2  UNL     1     -11.127   5.975  68.796  1.00  0.00     0.000 HD 
HETATM   10  C   UNL     1     -11.532   5.817  72.646  1.00  0.00    -0.287 A  
HETATM   11  N   UNL     1      -9.638   4.533  71.311  1.00  0.00    -0.161 NA 
HETATM   12  N   UNL     1     -10.649   5.029  73.361  1.00  0.00    -0.219 NA 
HETATM   13  H1  UNL     1      -9.818   4.787  68.767  1.00  0.00     0.000 HD 
HETATM   14  C   UNL     1      -8.552   3.834  73.432  1.00  0.00    -0.087 C  
HETATM   15  N   UNL     1     -10.473   5.369  69.291  1.00  0.00    -0.258 NA 
HETATM   16  C   UNL     1      -9.692   4.470  72.680  1.00  0.00    -0.144 A  
HETATM   17  C   UNL     1     -10.472   5.337  70.585  1.00  0.00    -0.236 A  
ENDBRANCH   7   8
ENDBRANCH   4   7
ENDBRANCH   2   4
BRANCH   3  18
HETATM   18  C   UNL     1      -8.095   9.080  69.168  1.00  0.00    -0.109 C  
BRANCH  18  19
HETATM   19  C   UNL     1      -7.592   8.275  67.907  1.00  0.00    -0.102 C  
BRANCH  19  20
HETATM   20  O   UNL     1      -8.033   6.868  67.817  1.00  0.00    -0.111 OA 
HETATM   21  O   UNL     1      -9.398   6.424  66.122  1.00  0.00    -0.153 OA 
HETATM   22  O   UNL     1      -7.852   4.769  67.022  1.00  0.00    -0.097 OA 
HETATM   23  P   UNL     1      -7.783   6.204  66.239  1.00  0.00    -0.103 P  
HETATM   24  O   UNL     1      -7.560   5.610  64.828  1.00  0.00    -0.075 OA 
ENDBRANCH  19  20
ENDBRANCH  18  19
ENDBRANCH   3  18
BRANCH   3  25
HETATM   25  S   UNL     1     -10.596   9.646  67.858  1.00  0.00    -0.246 SA 
BRANCH  25  26
HETATM   26  C   UNL     1     -11.428  11.251  67.981  1.00  0.00    -0.298 C  
HETATM   27  O   UNL     1     -11.931  11.621  69.036  1.00  0.00    -0.324 OA 
BRANCH  26  28
HETATM   28  C   UNL     1     -11.596  12.137  66.725  1.00  0.00    -0.412 A  
HETATM   29  C   UNL     1     -11.163  12.433  64.292  1.00  0.00    -0.408 A  
HETATM   30  C   UNL     1     -11.033  11.703  65.494  1.00  0.00    -0.327 A  
HETATM   31  C   UNL     1     -12.329  13.325  66.657  1.00  0.00    -0.274 A  
HETATM   32  C   UNL     1     -11.889  13.617  64.279  1.00  0.00    -0.464 A  
HETATM   33  C   UNL     1     -12.478  14.058  65.465  1.00  0.00    -0.533 A  
ENDBRANCH  26  28
ENDBRANCH  25  26
ENDBRANCH   3  25
TORSDOF 9
ENDMDL
MODEL      179
REMARK 921   NORMALIZED FREE ENERGY PREDICTED BY IDOCK:   -5.14 KCAL/MOL
REMARK 922        TOTAL FREE ENERGY PREDICTED BY IDOCK:   -9.35 KCAL/MOL
REMARK 923 INTER-LIGAND FREE ENERGY PREDICTED BY IDOCK:   -8.62 KCAL/MOL
REMARK 924 INTRA-LIGAND FREE ENERGY PREDICTED BY IDOCK:   -0.72 KCAL/MOL
REMARK 927      BINDING AFFINITY PREDICTED BY RF-SCORE:    0.00 PKD
ROOT
HETATM    1  C   UNL     1     -12.015  12.262  69.016  1.00  0.00    -0.300 C  
HETATM    2  C   UNL     1     -11.004  12.629  67.916  1.00  0.00    -0.230 C  
HETATM    3  C   UNL     1     -10.433  13.872  67.935  1.00  0.00    -0.242 C  
ENDROOT
BRANCH   2   4
HETATM    4  N   UNL     1     -10.746  11.572  67.023  1.00  0.00    -0.245 N  
HETATM    5  C   UNL     1     -10.596  11.806  65.647  1.00  0.00    -0.268 C  
HETATM    6  O   UNL     1     -10.658  10.962  64.765  1.00  0.00    -0.315 OA 
BRANCH   4   7
HETATM    7  C   UNL     1     -11.140  10.192  67.380  1.00  0.00    -0.147 C  
BRANCH   7   8
HETATM    8  C   UNL     1      -9.987   9.311  67.825  1.00  0.00    -0.235 A  
HETATM    9  H2  UNL     1     -11.962   7.915  66.916  1.00  0.00     0.000 HD 
HETATM   10  C   UNL     1      -8.889   9.622  68.546  1.00  0.00    -0.124 A  
HETATM   11  N   UNL     1      -8.856   7.164  67.556  1.00  0.00    -0.120 NA 
HETATM   12  N   UNL     1      -7.714   8.898  68.633  1.00  0.00    -0.096 NA 
HETATM   13  H1  UNL     1     -11.138   6.365  66.706  1.00  0.00     0.000 HD 
HETATM   14  C   UNL     1      -6.401   7.010  67.896  1.00  0.00    -0.043 C  
HETATM   15  N   UNL     1     -11.118   7.347  66.983  1.00  0.00    -0.132 NA 
HETATM   16  C   UNL     1      -7.716   7.723  68.075  1.00  0.00    -0.126 A  
HETATM   17  C   UNL     1     -10.018   7.872  67.419  1.00  0.00    -0.198 A  
ENDBRANCH   7   8
ENDBRANCH   4   7
ENDBRANCH   2   4
BRANCH   3  18
HETATM   18  C   UNL     1     -10.538  14.770  69.245  1.00  0.00    -0.248 C  
BRANCH  18  19
HETATM   19  C   UNL     1     -11.794  15.719  69.361  1.00  0.00    -0.349 C  
BRANCH  19  20
HETATM   20  O   UNL     1     -12.851  15.283  70.297  1.00  0.00    -0.341 OA 
HETATM   21  O   UNL     1     -12.117  14.220  72.104  1.00  0.00    -0.171 OA 
HETATM   22  O   UNL     1     -14.143  15.573  72.118  1.00  0.00    -0.514 OA 
HETATM   23  P   UNL     1     -12.534  15.788  71.921  1.00  0.00    -0.457 P  
HETATM   24  O   UNL     1     -12.251  16.241  73.374  1.00  0.00    -0.491 OA 
ENDBRANCH  19  20
ENDBRANCH  18  19
ENDBRANCH   3  18
BRANCH   3  25
HETATM   25  S   UNL     1      -9.492  14.628  66.566  1.00  0.00    -0.302 SA 
BRANCH  25  26
HETATM   26  C   UNL     1     -10.284  16.109  65.886  1.00  0.00    -0.360 C  
HETATM   27  O   UNL     1     -11.137  16.022  65.010  1.00  0.00    -0.390 OA 
BRANCH  26  28
HETATM   28  C   UNL     1      -9.824  17.513  66.340  1.00  0.00    -0.316 A  
HETATM   29  C   UNL     1      -7.976  19.177  66.469  1.00  0.00    -0.296 A  
HETATM   30  C   UNL     1      -8.475  17.904  66.115  1.00  0.00    -0.147 A  
HETATM   31  C   UNL     1     -10.640  18.497  66.905  1.00  0.00    -0.406 A  
HETATM   32  C   UNL     1      -8.825  20.115  67.042  1.00  0.00    -0.439 A  
HETATM   33  C   UNL     1     -10.162  19.773  67.252  1.00  0.00    -0.570 A  
ENDBRANCH  26  28
ENDBRANCH  25  26
ENDBRANCH   3  25
TORSDOF 9
ENDMDL
MODEL      180
REMARK 921   NORMALIZED FREE ENERGY PREDICTED BY IDOCK:   -5.12 KCAL/MOL
REMARK 922        TOTAL FREE ENERGY PREDICTED BY IDOCK:   -9.32 KCAL/MOL
REMARK 923 INTER-LIGAND FREE ENERGY PREDICTED BY IDOCK:   -8.44 KCAL/MOL
REMARK 924 INTRA-LIGAND FREE ENERGY PREDICTED BY IDOCK:   -0.88 KCAL/MOL
REMARK 927      BINDING AFFINITY PREDICTED BY RF-SCORE:    0.00 PKD
ROOT
HETATM    1  C   UNL     1     -11.279  12.284  65.295  1.00  0.00    -0.372 C  
HETATM    2  C   UNL     1     -11.276  12.297  66.832  1.00  0.00    -0.312 C  
HETATM    3  C   UNL     1     -11.163  11.110  67.502  1.00  0.00    -0.301 C  
ENDROOT
BRANCH   2   4
HETATM    4  N   UNL     1     -11.340  13.594  67.377  1.00  0.00    -0.302 N  
HETATM    5  C   UNL     1     -11.849  13.814  68.667  1.00  0.00    -0.374 C  
HETATM    6  O   UNL     1     -12.214  14.889  69.119  1.00  0.00    -0.250 OA 
BRANCH   4   7
HETATM    7  C   UNL     1     -11.389  14.769  66.480  1.00  0.00    -0.344 C  
BRANCH   7   8
HETATM    8  C   UNL     1     -10.091  15.552  66.409  1.00  0.00    -0.301 A  
HETATM    9  H2  UNL     1     -11.745  16.273  64.560  1.00  0.00     0.000 HD 
HETATM   10  C   UNL     1      -8.914  15.334  67.033  1.00  0.00    -0.233 A  
HETATM   11  N   UNL     1      -9.011  17.627  65.708  1.00  0.00    -0.429 NA 
HETATM   12  N   UNL     1      -7.885  16.240  67.219  1.00  0.00    -0.158 NA 
HETATM   13  H1  UNL     1     -10.970  17.783  64.063  1.00  0.00     0.000 HD 
HETATM   14  C   UNL     1      -7.067  18.499  66.982  1.00  0.00    -0.211 C  
HETATM   15  N   UNL     1     -10.991  16.954  64.658  1.00  0.00    -0.963 NA 
HETATM   16  C   UNL     1      -8.003  17.381  66.605  1.00  0.00    -0.258 A  
HETATM   17  C   UNL     1     -10.060  16.767  65.538  1.00  0.00    -0.095 A  
ENDBRANCH   7   8
ENDBRANCH   4   7
ENDBRANCH   2   4
BRANCH   3  18
HETATM   18  C   UNL     1     -10.690   9.805  66.722  1.00  0.00    -0.143 C  
BRANCH  18  19
HETATM   19  C   UNL     1      -9.139   9.636  66.486  1.00  0.00    -0.154 C  
BRANCH  19  20
HETATM   20  O   UNL     1      -8.671   8.262  66.209  1.00  0.00    -0.134 OA 
HETATM   21  O   UNL     1      -8.313   7.017  68.013  1.00  0.00    -0.118 OA 
HETATM   22  O   UNL     1      -9.028   6.062  65.889  1.00  0.00    -0.156 OA 
HETATM   23  P   UNL     1      -9.619   7.072  67.033  1.00  0.00    -0.175 P  
HETATM   24  O   UNL     1     -10.466   6.006  67.769  1.00  0.00    -0.186 OA 
ENDBRANCH  19  20
ENDBRANCH  18  19
ENDBRANCH   3  18
BRANCH   3  25
HETATM   25  S   UNL     1     -11.478  10.861  69.283  1.00  0.00    -0.329 SA 
BRANCH  25  26
HETATM   26  C   UNL     1     -10.308   9.717  70.062  1.00  0.00    -0.257 C  
HETATM   27  O   UNL     1      -9.099   9.885  69.960  1.00  0.00    -0.225 OA 
BRANCH  26  28
HETATM   28  C   UNL     1     -10.826   8.455  70.790  1.00  0.00    -0.255 A  
HETATM   29  C   UNL     1     -12.744   7.295  71.874  1.00  0.00    -0.312 A  
HETATM   30  C   UNL     1     -12.178   8.416  71.228  1.00  0.00    -0.305 A  
HETATM   31  C   UNL     1     -10.098   7.282  71.008  1.00  0.00    -0.195 A  
HETATM   32  C   UNL     1     -11.974   6.157  72.080  1.00  0.00    -0.314 A  
HETATM   33  C   UNL     1     -10.650   6.152  71.638  1.00  0.00    -0.276 A  
ENDBRANCH  26  28
ENDBRANCH  25  26
ENDBRANCH   3  25
TORSDOF 9
ENDMDL
MODEL      181
REMARK 921   NORMALIZED FREE ENERGY PREDICTED BY IDOCK:   -5.11 KCAL/MOL
REMARK 922        TOTAL FREE ENERGY PREDICTED BY IDOCK:   -9.31 KCAL/MOL
REMARK 923 INTER-LIGAND FREE ENERGY PREDICTED BY IDOCK:   -7.62 KCAL/MOL
REMARK 924 INTRA-LIGAND FREE ENERGY PREDICTED BY IDOCK:   -1.69 KCAL/MOL
REMARK 927      BINDING AFFINITY PREDICTED BY RF-SCORE:    0.00 PKD
ROOT
HETATM    1  C   UNL     1     -10.692  10.025  70.188  1.00  0.00    -0.361 C  
HETATM    2  C   UNL     1      -9.620  10.233  69.105  1.00  0.00    -0.218 C  
HETATM    3  C   UNL     1     -10.007  10.670  67.869  1.00  0.00    -0.166 C  
ENDROOT
BRANCH   2   4
HETATM    4  N   UNL     1      -8.311   9.988  69.565  1.00  0.00    -0.159 N  
HETATM    5  C   UNL     1      -7.366  11.023  69.646  1.00  0.00    -0.014 C  
HETATM    6  O   UNL     1      -6.156  10.883  69.748  1.00  0.00    -0.062 OA 
BRANCH   4   7
HETATM    7  C   UNL     1      -7.738   8.629  69.467  1.00  0.00    -0.090 C  
BRANCH   7   8
HETATM    8  C   UNL     1      -8.442   7.593  70.324  1.00  0.00    -0.134 A  
HETATM    9  H2  UNL     1      -6.932   9.139  71.740  1.00  0.00     0.000 HD 
HETATM   10  C   UNL     1      -9.125   6.487  69.959  1.00  0.00    -0.150 A  
HETATM   11  N   UNL     1      -9.290   7.037  72.545  1.00  0.00    -0.138 NA 
HETATM   12  N   UNL     1     -10.031   5.773  70.722  1.00  0.00    -0.185 NA 
HETATM   13  H1  UNL     1      -7.557   8.748  73.346  1.00  0.00     0.000 HD 
HETATM   14  C   UNL     1     -11.283   5.575  72.777  1.00  0.00    -0.358 C  
HETATM   15  N   UNL     1      -7.575   8.617  72.335  1.00  0.00    -0.334 NA 
HETATM   16  C   UNL     1     -10.132   6.119  71.972  1.00  0.00    -0.181 A  
HETATM   17  C   UNL     1      -8.415   7.786  71.807  1.00  0.00    -0.112 A  
ENDBRANCH   7   8
ENDBRANCH   4   7
ENDBRANCH   2   4
BRANCH   3  18
HETATM   18  C   UNL     1     -11.464  11.282  67.667  1.00  0.00    -0.341 C  
BRANCH  18  19
HETATM   19  C   UNL     1     -11.663  12.796  68.064  1.00  0.00    -0.356 C  
BRANCH  19  20
HETATM   20  O   UNL     1     -12.111  13.696  66.981  1.00  0.00    -0.398 OA 
HETATM   21  O   UNL     1     -10.732  13.827  65.245  1.00  0.00    -0.307 OA 
HETATM   22  O   UNL     1     -13.143  14.094  65.020  1.00  0.00    -0.728 OA 
HETATM   23  P   UNL     1     -12.079  12.923  65.434  1.00  0.00    -0.470 P  
HETATM   24  O   UNL     1     -12.050  12.231  64.049  1.00  0.00    -0.412 OA 
ENDBRANCH  19  20
ENDBRANCH  18  19
ENDBRANCH   3  18
BRANCH   3  25
HETATM   25  S   UNL     1      -8.973  10.655  66.365  1.00  0.00    -0.167 SA 
BRANCH  25  26
HETATM   26  C   UNL     1      -8.264   9.028  66.001  1.00  0.00    -0.113 C  
HETATM   27  O   UNL     1      -7.153   8.924  65.492  1.00  0.00    -0.079 OA 
BRANCH  26  28
HETATM   28  C   UNL     1      -9.096   7.747  66.243  1.00  0.00    -0.221 A  
HETATM   29  C   UNL     1      -9.157   5.259  66.278  1.00  0.00    -0.139 A  
HETATM   30  C   UNL     1      -8.483   6.479  66.051  1.00  0.00    -0.145 A  
HETATM   31  C   UNL     1     -10.411   7.706  66.714  1.00  0.00    -0.343 A  
HETATM   32  C   UNL     1     -10.470   5.271  66.732  1.00  0.00    -0.330 A  
HETATM   33  C   UNL     1     -11.092   6.500  66.956  1.00  0.00    -0.411 A  
ENDBRANCH  26  28
ENDBRANCH  25  26
ENDBRANCH   3  25
TORSDOF 9
ENDMDL
MODEL      182
REMARK 921   NORMALIZED FREE ENERGY PREDICTED BY IDOCK:   -5.08 KCAL/MOL
REMARK 922        TOTAL FREE ENERGY PREDICTED BY IDOCK:   -9.27 KCAL/MOL
REMARK 923 INTER-LIGAND FREE ENERGY PREDICTED BY IDOCK:   -7.37 KCAL/MOL
REMARK 924 INTRA-LIGAND FREE ENERGY PREDICTED BY IDOCK:   -1.90 KCAL/MOL
REMARK 927      BINDING AFFINITY PREDICTED BY RF-SCORE:    0.00 PKD
ROOT
HETATM    1  C   UNL     1      -7.512   8.098  69.502  1.00  0.00    -0.087 C  
HETATM    2  C   UNL     1      -8.612   9.166  69.383  1.00  0.00    -0.138 C  
HETATM    3  C   UNL     1      -8.470  10.158  68.453  1.00  0.00    -0.118 C  
ENDROOT
BRANCH   2   4
HETATM    4  N   UNL     1      -9.699   8.944  70.251  1.00  0.00    -0.175 N  
HETATM    5  C   UNL     1      -9.522   8.928  71.644  1.00  0.00    -0.281 C  
HETATM    6  O   UNL     1     -10.308   8.470  72.460  1.00  0.00    -0.315 OA 
BRANCH   4   7
HETATM    7  C   UNL     1     -10.892   8.217  69.767  1.00  0.00    -0.190 C  
BRANCH   7   8
HETATM    8  C   UNL     1     -10.637   6.760  69.425  1.00  0.00    -0.265 A  
HETATM    9  H2  UNL     1     -11.297   8.130  67.337  1.00  0.00     0.000 HD 
HETATM   10  C   UNL     1     -10.494   5.693  70.240  1.00  0.00    -0.293 A  
HETATM   11  N   UNL     1      -9.984   5.168  67.694  1.00  0.00    -0.161 NA 
HETATM   12  N   UNL     1      -9.926   4.471  69.926  1.00  0.00    -0.227 NA 
HETATM   13  H1  UNL     1     -10.809   6.983  66.083  1.00  0.00     0.000 HD 
HETATM   14  C   UNL     1      -8.766   3.095  68.317  1.00  0.00    -0.139 C  
HETATM   15  N   UNL     1     -10.899   7.229  67.069  1.00  0.00    -0.354 NA 
HETATM   16  C   UNL     1      -9.628   4.278  68.675  1.00  0.00    -0.142 A  
HETATM   17  C   UNL     1     -10.506   6.399  67.981  1.00  0.00    -0.220 A  
ENDBRANCH   7   8
ENDBRANCH   4   7
ENDBRANCH   2   4
BRANCH   3  18
HETATM   18  C   UNL     1      -7.385  10.008  67.297  1.00  0.00    -0.090 C  
BRANCH  18  19
HETATM   19  C   UNL     1      -7.856   9.307  65.963  1.00  0.00    -0.102 C  
BRANCH  19  20
HETATM   20  O   UNL     1      -6.942   8.288  65.409  1.00  0.00    -0.062 OA 
HETATM   21  O   UNL     1      -7.141   6.267  66.310  1.00  0.00    -0.065 OA 
HETATM   22  O   UNL     1      -6.458   6.603  63.996  1.00  0.00    -0.036 OA 
HETATM   23  P   UNL     1      -7.780   6.853  64.926  1.00  0.00    -0.122 P  
HETATM   24  O   UNL     1      -8.529   5.570  64.493  1.00  0.00    -0.139 OA 
ENDBRANCH  19  20
ENDBRANCH  18  19
ENDBRANCH   3  18
BRANCH   3  25
HETATM   25  S   UNL     1      -9.459  11.690  68.374  1.00  0.00    -0.175 SA 
BRANCH  25  26
HETATM   26  C   UNL     1     -11.088  11.451  67.617  1.00  0.00    -0.268 C  
HETATM   27  O   UNL     1     -11.952  10.786  68.176  1.00  0.00    -0.527 OA 
BRANCH  26  28
HETATM   28  C   UNL     1     -11.376  12.009  66.204  1.00  0.00    -0.407 A  
HETATM   29  C   UNL     1     -11.075  11.756  63.745  1.00  0.00    -0.513 A  
HETATM   30  C   UNL     1     -10.839  11.336  65.073  1.00  0.00    -0.285 A  
HETATM   31  C   UNL     1     -12.194  13.103  65.909  1.00  0.00    -0.497 A  
HETATM   32  C   UNL     1     -11.884  12.860  63.506  1.00  0.00    -0.605 A  
HETATM   33  C   UNL     1     -12.449  13.528  64.593  1.00  0.00    -0.372 A  
ENDBRANCH  26  28
ENDBRANCH  25  26
ENDBRANCH   3  25
TORSDOF 9
ENDMDL
MODEL      183
REMARK 921   NORMALIZED FREE ENERGY PREDICTED BY IDOCK:   -5.07 KCAL/MOL
REMARK 922        TOTAL FREE ENERGY PREDICTED BY IDOCK:   -9.25 KCAL/MOL
REMARK 923 INTER-LIGAND FREE ENERGY PREDICTED BY IDOCK:   -7.82 KCAL/MOL
REMARK 924 INTRA-LIGAND FREE ENERGY PREDICTED BY IDOCK:   -1.43 KCAL/MOL
REMARK 927      BINDING AFFINITY PREDICTED BY RF-SCORE:    0.00 PKD
ROOT
HETATM    1  C   UNL     1      -8.083   8.593  65.030  1.00  0.00    -0.143 C  
HETATM    2  C   UNL     1      -8.459   9.323  66.330  1.00  0.00    -0.127 C  
HETATM    3  C   UNL     1      -9.333  10.373  66.267  1.00  0.00    -0.166 C  
ENDROOT
BRANCH   2   4
HETATM    4  N   UNL     1      -7.870   8.755  67.476  1.00  0.00    -0.101 N  
HETATM    5  C   UNL     1      -6.665   9.257  67.996  1.00  0.00    -0.060 C  
HETATM    6  O   UNL     1      -5.931   8.682  68.785  1.00  0.00    -0.043 OA 
BRANCH   4   7
HETATM    7  C   UNL     1      -8.170   7.355  67.844  1.00  0.00    -0.120 C  
BRANCH   7   8
HETATM    8  C   UNL     1      -9.243   7.207  68.908  1.00  0.00    -0.137 A  
HETATM    9  H2  UNL     1     -10.211   6.927  66.529  1.00  0.00     0.000 HD 
HETATM   10  C   UNL     1      -9.199   7.496  70.226  1.00  0.00    -0.157 A  
HETATM   11  N   UNL     1     -11.410   6.239  69.481  1.00  0.00    -0.430 NA 
HETATM   12  N   UNL     1     -10.051   7.034  71.212  1.00  0.00    -0.191 NA 
HETATM   13  H1  UNL     1     -11.773   6.212  66.944  1.00  0.00     0.000 HD 
HETATM   14  C   UNL     1     -11.896   5.605  71.832  1.00  0.00     0.098 C  
HETATM   15  N   UNL     1     -10.871   6.592  67.231  1.00  0.00    -0.349 NA 
HETATM   16  C   UNL     1     -11.090   6.362  70.809  1.00  0.00    -0.307 A  
HETATM   17  C   UNL     1     -10.565   6.650  68.487  1.00  0.00    -0.233 A  
ENDBRANCH   7   8
ENDBRANCH   4   7
ENDBRANCH   2   4
BRANCH   3  18
HETATM   18  C   UNL     1     -10.202  10.600  64.953  1.00  0.00    -0.395 C  
BRANCH  18  19
HETATM   19  C   UNL     1      -9.858  11.869  64.080  1.00  0.00    -0.233 C  
BRANCH  19  20
HETATM   20  O   UNL     1     -10.996  12.506  63.385  1.00  0.00    -0.452 OA 
HETATM   21  O   UNL     1     -13.000  11.896  64.123  1.00  0.00    -0.500 OA 
HETATM   22  O   UNL     1     -12.569  14.105  63.190  1.00  0.00    -0.686 OA 
HETATM   23  P   UNL     1     -12.118  13.221  64.490  1.00  0.00    -0.421 P  
HETATM   24  O   UNL     1     -13.122  13.862  65.479  1.00  0.00    -0.699 OA 
ENDBRANCH  19  20
ENDBRANCH  18  19
ENDBRANCH   3  18
BRANCH   3  25
HETATM   25  S   UNL     1      -9.645  11.576  67.604  1.00  0.00    -0.174 SA 
BRANCH  25  26
HETATM   26  C   UNL     1      -8.536  13.008  67.551  1.00  0.00    -0.192 C  
HETATM   27  O   UNL     1      -7.332  12.866  67.376  1.00  0.00    -0.149 OA 
BRANCH  26  28
HETATM   28  C   UNL     1      -9.088  14.427  67.822  1.00  0.00    -0.192 A  
HETATM   29  C   UNL     1      -8.586  16.820  68.292  1.00  0.00    -0.226 A  
HETATM   30  C   UNL     1      -8.173  15.488  68.065  1.00  0.00    -0.146 A  
HETATM   31  C   UNL     1     -10.433  14.800  67.783  1.00  0.00    -0.254 A  
HETATM   32  C   UNL     1      -9.938  17.137  68.257  1.00  0.00    -0.300 A  
HETATM   33  C   UNL     1     -10.860  16.124  67.995  1.00  0.00    -0.333 A  
ENDBRANCH  26  28
ENDBRANCH  25  26
ENDBRANCH   3  25
TORSDOF 9
ENDMDL
MODEL      184
REMARK 921   NORMALIZED FREE ENERGY PREDICTED BY IDOCK:   -5.07 KCAL/MOL
REMARK 922        TOTAL FREE ENERGY PREDICTED BY IDOCK:   -9.24 KCAL/MOL
REMARK 923 INTER-LIGAND FREE ENERGY PREDICTED BY IDOCK:   -7.80 KCAL/MOL
REMARK 924 INTRA-LIGAND FREE ENERGY PREDICTED BY IDOCK:   -1.45 KCAL/MOL
REMARK 927      BINDING AFFINITY PREDICTED BY RF-SCORE:    0.00 PKD
ROOT
HETATM    1  C   UNL     1     -10.162  12.600  65.464  1.00  0.00    -0.298 C  
HETATM    2  C   UNL     1      -9.527  12.301  66.833  1.00  0.00    -0.217 C  
HETATM    3  C   UNL     1      -9.799  11.105  67.438  1.00  0.00    -0.173 C  
ENDROOT
BRANCH   2   4
HETATM    4  N   UNL     1      -8.667  13.322  67.282  1.00  0.00    -0.206 N  
HETATM    5  C   UNL     1      -7.283  13.111  67.381  1.00  0.00    -0.110 C  
HETATM    6  O   UNL     1      -6.496  13.801  68.013  1.00  0.00    -0.107 OA 
BRANCH   4   7
HETATM    7  C   UNL     1      -9.194  14.407  68.137  1.00  0.00    -0.199 C  
BRANCH   7   8
HETATM    8  C   UNL     1      -9.626  15.647  67.374  1.00  0.00    -0.217 A  
HETATM    9  H2  UNL     1     -11.370  14.963  69.152  1.00  0.00     0.000 HD 
HETATM   10  C   UNL     1      -9.122  16.185  66.243  1.00  0.00    -0.338 A  
HETATM   11  N   UNL     1     -10.960  17.690  67.416  1.00  0.00    -0.160 NA 
HETATM   12  N   UNL     1      -9.304  17.474  65.778  1.00  0.00    -0.497 NA 
HETATM   13  H1  UNL     1     -12.327  16.449  69.194  1.00  0.00     0.000 HD 
HETATM   14  C   UNL     1     -10.206  19.684  66.142  1.00  0.00    -0.604 C  
HETATM   15  N   UNL     1     -11.544  15.911  68.819  1.00  0.00    -0.390 NA 
HETATM   16  C   UNL     1     -10.166  18.204  66.422  1.00  0.00    -0.399 A  
HETATM   17  C   UNL     1     -10.772  16.434  67.922  1.00  0.00    -0.332 A  
ENDBRANCH   7   8
ENDBRANCH   4   7
ENDBRANCH   2   4
BRANCH   3  18
HETATM   18  C   UNL     1     -10.454   9.924  66.596  1.00  0.00    -0.239 C  
BRANCH  18  19
HETATM   19  C   UNL     1      -9.468   8.966  65.822  1.00  0.00    -0.202 C  
BRANCH  19  20
HETATM   20  O   UNL     1      -8.120   9.506  65.551  1.00  0.00    -0.111 OA 
HETATM   21  O   UNL     1      -6.661   9.250  67.206  1.00  0.00    -0.063 OA 
HETATM   22  O   UNL     1      -5.986   9.288  64.866  1.00  0.00    -0.062 OA 
HETATM   23  P   UNL     1      -6.876   8.345  65.863  1.00  0.00    -0.065 P  
HETATM   24  O   UNL     1      -5.762   7.306  66.142  1.00  0.00    -0.030 OA 
ENDBRANCH  19  20
ENDBRANCH  18  19
ENDBRANCH   3  18
BRANCH   3  25
HETATM   25  S   UNL     1      -9.442  10.691  69.180  1.00  0.00    -0.126 SA 
BRANCH  25  26
HETATM   26  C   UNL     1     -10.932  10.362  70.157  1.00  0.00    -0.300 C  
HETATM   27  O   UNL     1     -11.730  11.258  70.410  1.00  0.00    -0.328 OA 
BRANCH  26  28
HETATM   28  C   UNL     1     -11.168   8.960  70.765  1.00  0.00    -0.321 A  
HETATM   29  C   UNL     1     -11.196   6.496  70.410  1.00  0.00    -0.414 A  
HETATM   30  C   UNL     1     -11.030   7.815  69.933  1.00  0.00    -0.194 A  
HETATM   31  C   UNL     1     -11.443   8.689  72.107  1.00  0.00    -0.443 A  
HETATM   32  C   UNL     1     -11.485   6.280  71.752  1.00  0.00    -0.355 A  
HETATM   33  C   UNL     1     -11.601   7.381  72.601  1.00  0.00    -0.295 A  
ENDBRANCH  26  28
ENDBRANCH  25  26
ENDBRANCH   3  25
TORSDOF 9
ENDMDL
MODEL      185
REMARK 921   NORMALIZED FREE ENERGY PREDICTED BY IDOCK:   -5.06 KCAL/MOL
REMARK 922        TOTAL FREE ENERGY PREDICTED BY IDOCK:   -9.24 KCAL/MOL
REMARK 923 INTER-LIGAND FREE ENERGY PREDICTED BY IDOCK:   -8.50 KCAL/MOL
REMARK 924 INTRA-LIGAND FREE ENERGY PREDICTED BY IDOCK:   -0.74 KCAL/MOL
REMARK 927      BINDING AFFINITY PREDICTED BY RF-SCORE:    0.00 PKD
ROOT
HETATM    1  C   UNL     1     -11.300  15.722  64.206  1.00  0.00    -0.189 C  
HETATM    2  C   UNL     1     -11.057  14.713  65.341  1.00  0.00    -0.348 C  
HETATM    3  C   UNL     1     -10.432  15.139  66.480  1.00  0.00    -0.291 C  
ENDROOT
BRANCH   2   4
HETATM    4  N   UNL     1     -11.581  13.434  65.069  1.00  0.00    -0.309 N  
HETATM    5  C   UNL     1     -12.142  13.133  63.817  1.00  0.00    -0.495 C  
HETATM    6  O   UNL     1     -12.869  12.182  63.568  1.00  0.00    -0.768 OA 
BRANCH   4   7
HETATM    7  C   UNL     1     -12.042  12.574  66.180  1.00  0.00    -0.286 C  
BRANCH   7   8
HETATM    8  C   UNL     1     -11.139  11.387  66.463  1.00  0.00    -0.312 A  
HETATM    9  H2  UNL     1     -12.576  12.007  68.519  1.00  0.00     0.000 HD 
HETATM   10  C   UNL     1     -10.100  10.901  65.751  1.00  0.00    -0.252 A  
HETATM   11  N   UNL     1     -10.801   9.371  67.797  1.00  0.00    -0.222 NA 
HETATM   12  N   UNL     1      -9.535   9.643  65.849  1.00  0.00    -0.215 NA 
HETATM   13  H1  UNL     1     -12.343  10.540  69.477  1.00  0.00     0.000 HD 
HETATM   14  C   UNL     1      -9.588   7.435  66.824  1.00  0.00    -0.249 C  
HETATM   15  N   UNL     1     -12.162  11.082  68.632  1.00  0.00    -0.524 NA 
HETATM   16  C   UNL     1      -9.955   8.896  66.828  1.00  0.00    -0.267 A  
HETATM   17  C   UNL     1     -11.405  10.594  67.702  1.00  0.00    -0.207 A  
ENDBRANCH   7   8
ENDBRANCH   4   7
ENDBRANCH   2   4
BRANCH   3  18
HETATM   18  C   UNL     1     -10.285  16.699  66.765  1.00  0.00    -0.301 C  
BRANCH  18  19
HETATM   19  C   UNL     1     -10.450  17.169  68.262  1.00  0.00    -0.373 C  
BRANCH  19  20
HETATM   20  O   UNL     1     -10.004  18.546  68.561  1.00  0.00    -0.351 OA 
HETATM   21  O   UNL     1      -8.389  19.311  67.243  1.00  0.00    -0.274 OA 
HETATM   22  O   UNL     1     -10.064  20.773  68.239  1.00  0.00    -0.049 OA 
HETATM   23  P   UNL     1     -10.002  19.552  67.153  1.00  0.00    -0.445 P  
HETATM   24  O   UNL     1     -10.000  20.452  65.894  1.00  0.00    -0.336 OA 
ENDBRANCH  19  20
ENDBRANCH  18  19
ENDBRANCH   3  18
BRANCH   3  25
HETATM   25  S   UNL     1      -9.746  14.059  67.783  1.00  0.00    -0.234 SA 
BRANCH  25  26
HETATM   26  C   UNL     1      -7.936  13.972  67.760  1.00  0.00    -0.171 C  
HETATM   27  O   UNL     1      -7.356  13.085  67.144  1.00  0.00    -0.096 OA 
BRANCH  26  28
HETATM   28  C   UNL     1      -7.101  14.967  68.598  1.00  0.00    -0.111 A  
HETATM   29  C   UNL     1      -5.529  15.308  70.498  1.00  0.00    -0.136 A  
HETATM   30  C   UNL     1      -6.343  14.478  69.697  1.00  0.00    -0.141 A  
HETATM   31  C   UNL     1      -6.953  16.331  68.336  1.00  0.00    -0.135 A  
HETATM   32  C   UNL     1      -5.427  16.663  70.205  1.00  0.00    -0.205 A  
HETATM   33  C   UNL     1      -6.137  17.170  69.116  1.00  0.00    -0.204 A  
ENDBRANCH  26  28
ENDBRANCH  25  26
ENDBRANCH   3  25
TORSDOF 9
ENDMDL
MODEL      186
REMARK 921   NORMALIZED FREE ENERGY PREDICTED BY IDOCK:   -5.05 KCAL/MOL
REMARK 922        TOTAL FREE ENERGY PREDICTED BY IDOCK:   -9.22 KCAL/MOL
REMARK 923 INTER-LIGAND FREE ENERGY PREDICTED BY IDOCK:   -7.65 KCAL/MOL
REMARK 924 INTRA-LIGAND FREE ENERGY PREDICTED BY IDOCK:   -1.57 KCAL/MOL
REMARK 927      BINDING AFFINITY PREDICTED BY RF-SCORE:    0.00 PKD
ROOT
HETATM    1  C   UNL     1     -10.871   6.947  67.336  1.00  0.00    -0.396 C  
HETATM    2  C   UNL     1      -9.757   7.775  67.997  1.00  0.00    -0.154 C  
HETATM    3  C   UNL     1      -9.751   9.131  67.823  1.00  0.00    -0.154 C  
ENDROOT
BRANCH   2   4
HETATM    4  N   UNL     1      -8.875   7.000  68.775  1.00  0.00    -0.130 N  
HETATM    5  C   UNL     1      -7.714   6.442  68.216  1.00  0.00    -0.104 C  
HETATM    6  O   UNL     1      -7.048   5.539  68.701  1.00  0.00    -0.062 OA 
BRANCH   4   7
HETATM    7  C   UNL     1      -9.370   6.317  69.990  1.00  0.00    -0.155 C  
BRANCH   7   8
HETATM    8  C   UNL     1     -10.389   7.117  70.782  1.00  0.00    -0.219 A  
HETATM    9  H2  UNL     1      -7.987   7.993  71.155  1.00  0.00     0.000 HD 
HETATM   10  C   UNL     1     -11.689   6.852  71.035  1.00  0.00    -0.345 A  
HETATM   11  N   UNL     1     -10.915   9.259  71.829  1.00  0.00    -0.364 NA 
HETATM   12  N   UNL     1     -12.659   7.747  71.449  1.00  0.00    -0.327 NA 
HETATM   13  H1  UNL     1      -8.369   9.550  71.898  1.00  0.00     0.000 HD 
HETATM   14  C   UNL     1     -13.273  10.026  71.956  1.00  0.00    -0.545 C  
HETATM   15  N   UNL     1      -8.676   8.669  71.486  1.00  0.00    -0.187 NA 
HETATM   16  C   UNL     1     -12.247   8.939  71.766  1.00  0.00    -0.359 A  
HETATM   17  C   UNL     1      -9.939   8.409  71.385  1.00  0.00    -0.213 A  
ENDBRANCH   7   8
ENDBRANCH   4   7
ENDBRANCH   2   4
BRANCH   3  18
HETATM   18  C   UNL     1     -11.050   9.860  67.259  1.00  0.00    -0.063 C  
BRANCH  18  19
HETATM   19  C   UNL     1     -10.893  11.373  66.839  1.00  0.00    -0.285 C  
BRANCH  19  20
HETATM   20  O   UNL     1     -12.069  11.992  66.192  1.00  0.00    -0.582 OA 
HETATM   21  O   UNL     1     -12.471  14.091  66.798  1.00  0.00    -0.391 OA 
HETATM   22  O   UNL     1     -13.033  13.239  64.585  1.00  0.00    -0.692 OA 
HETATM   23  P   UNL     1     -11.692  13.522  65.479  1.00  0.00    -0.383 P  
HETATM   24  O   UNL     1     -11.355  14.891  64.840  1.00  0.00    -0.381 OA 
ENDBRANCH  19  20
ENDBRANCH  18  19
ENDBRANCH   3  18
BRANCH   3  25
HETATM   25  S   UNL     1      -8.362  10.247  68.218  1.00  0.00    -0.120 SA 
BRANCH  25  26
HETATM   26  C   UNL     1      -7.279  10.570  66.801  1.00  0.00    -0.114 C  
HETATM   27  O   UNL     1      -6.369  11.387  66.876  1.00  0.00    -0.109 OA 
BRANCH  26  28
HETATM   28  C   UNL     1      -7.552   9.881  65.444  1.00  0.00    -0.131 A  
HETATM   29  C   UNL     1      -7.267   7.857  64.022  1.00  0.00    -0.084 A  
HETATM   30  C   UNL     1      -7.041   8.573  65.218  1.00  0.00    -0.082 A  
HETATM   31  C   UNL     1      -8.332  10.400  64.408  1.00  0.00    -0.142 A  
HETATM   32  C   UNL     1      -8.038   8.424  63.015  1.00  0.00    -0.163 A  
HETATM   33  C   UNL     1      -8.576   9.696  63.215  1.00  0.00    -0.210 A  
ENDBRANCH  26  28
ENDBRANCH  25  26
ENDBRANCH   3  25
TORSDOF 9
ENDMDL
MODEL      187
REMARK 921   NORMALIZED FREE ENERGY PREDICTED BY IDOCK:   -5.04 KCAL/MOL
REMARK 922        TOTAL FREE ENERGY PREDICTED BY IDOCK:   -9.20 KCAL/MOL
REMARK 923 INTER-LIGAND FREE ENERGY PREDICTED BY IDOCK:   -7.69 KCAL/MOL
REMARK 924 INTRA-LIGAND FREE ENERGY PREDICTED BY IDOCK:   -1.51 KCAL/MOL
REMARK 927      BINDING AFFINITY PREDICTED BY RF-SCORE:    0.00 PKD
ROOT
HETATM    1  C   UNL     1     -10.496  16.813  70.023  1.00  0.00     0.046 C  
HETATM    2  C   UNL     1     -10.357  16.151  68.642  1.00  0.00    -0.252 C  
HETATM    3  C   UNL     1     -10.843  14.886  68.465  1.00  0.00    -0.247 C  
ENDROOT
BRANCH   2   4
HETATM    4  N   UNL     1      -9.766  16.994  67.680  1.00  0.00    -0.253 N  
HETATM    5  C   UNL     1     -10.555  17.756  66.803  1.00  0.00    -0.233 C  
HETATM    6  O   UNL     1     -10.172  18.281  65.768  1.00  0.00    -0.576 OA 
BRANCH   4   7
HETATM    7  C   UNL     1      -8.393  16.721  67.204  1.00  0.00    -0.183 C  
BRANCH   7   8
HETATM    8  C   UNL     1      -7.302  17.242  68.122  1.00  0.00    -0.199 A  
HETATM    9  H2  UNL     1      -8.057  19.034  66.421  1.00  0.00     0.000 HD 
HETATM   10  C   UNL     1      -6.498  16.573  68.976  1.00  0.00    -0.182 A  
HETATM   11  N   UNL     1      -6.288  19.208  69.153  1.00  0.00    -0.266 NA 
HETATM   12  N   UNL     1      -5.774  17.101  70.030  1.00  0.00    -0.228 NA 
HETATM   13  H1  UNL     1      -7.336  20.460  67.177  1.00  0.00     0.000 HD 
HETATM   14  C   UNL     1      -5.220  19.020  71.387  1.00  0.00    -0.321 C  
HETATM   15  N   UNL     1      -7.512  19.455  67.174  1.00  0.00    -0.223 NA 
HETATM   16  C   UNL     1      -5.751  18.399  70.121  1.00  0.00    -0.226 A  
HETATM   17  C   UNL     1      -7.044  18.714  68.126  1.00  0.00    -0.249 A  
ENDBRANCH   7   8
ENDBRANCH   4   7
ENDBRANCH   2   4
BRANCH   3  18
HETATM   18  C   UNL     1     -11.835  14.262  69.543  1.00  0.00    -0.378 C  
BRANCH  18  19
HETATM   19  C   UNL     1     -12.157  12.723  69.411  1.00  0.00    -0.192 C  
BRANCH  19  20
HETATM   20  O   UNL     1     -11.660  11.861  70.502  1.00  0.00    -0.150 OA 
HETATM   21  O   UNL     1     -13.099  11.533  72.162  1.00  0.00    -0.466 OA 
HETATM   22  O   UNL     1     -11.441   9.866  71.523  1.00  0.00    -0.365 OA 
HETATM   23  P   UNL     1     -12.762  10.581  70.878  1.00  0.00    -0.393 P  
HETATM   24  O   UNL     1     -13.749   9.437  71.214  1.00  0.00    -0.346 OA 
ENDBRANCH  19  20
ENDBRANCH  18  19
ENDBRANCH   3  18
BRANCH   3  25
HETATM   25  S   UNL     1     -10.486  13.800  67.041  1.00  0.00    -0.275 SA 
BRANCH  25  26
HETATM   26  C   UNL     1      -9.063  12.711  67.312  1.00  0.00    -0.191 C  
HETATM   27  O   UNL     1      -7.919  13.112  67.132  1.00  0.00    -0.157 OA 
BRANCH  26  28
HETATM   28  C   UNL     1      -9.282  11.227  67.686  1.00  0.00    -0.156 A  
HETATM   29  C   UNL     1      -8.516   9.259  69.005  1.00  0.00    -0.132 A  
HETATM   30  C   UNL     1      -8.376  10.600  68.585  1.00  0.00    -0.137 A  
HETATM   31  C   UNL     1     -10.354  10.431  67.274  1.00  0.00    -0.278 A  
HETATM   32  C   UNL     1      -9.592   8.505  68.554  1.00  0.00    -0.158 A  
HETATM   33  C   UNL     1     -10.515   9.098  67.692  1.00  0.00    -0.323 A  
ENDBRANCH  26  28
ENDBRANCH  25  26
ENDBRANCH   3  25
TORSDOF 9
ENDMDL
MODEL      188
REMARK 921   NORMALIZED FREE ENERGY PREDICTED BY IDOCK:   -5.04 KCAL/MOL
REMARK 922        TOTAL FREE ENERGY PREDICTED BY IDOCK:   -9.20 KCAL/MOL
REMARK 923 INTER-LIGAND FREE ENERGY PREDICTED BY IDOCK:   -7.38 KCAL/MOL
REMARK 924 INTRA-LIGAND FREE ENERGY PREDICTED BY IDOCK:   -1.82 KCAL/MOL
REMARK 927      BINDING AFFINITY PREDICTED BY RF-SCORE:    0.00 PKD
ROOT
HETATM    1  C   UNL     1     -11.149  10.483  67.465  1.00  0.00    -0.358 C  
HETATM    2  C   UNL     1     -10.461  11.363  66.407  1.00  0.00    -0.254 C  
HETATM    3  C   UNL     1     -10.890  12.651  66.241  1.00  0.00    -0.273 C  
ENDROOT
BRANCH   2   4
HETATM    4  N   UNL     1      -9.394  10.716  65.754  1.00  0.00    -0.177 N  
HETATM    5  C   UNL     1      -9.561  10.149  64.480  1.00  0.00    -0.311 C  
HETATM    6  O   UNL     1      -8.817   9.334  63.955  1.00  0.00    -0.205 OA 
BRANCH   4   7
HETATM    7  C   UNL     1      -8.279  10.152  66.545  1.00  0.00    -0.124 C  
BRANCH   7   8
HETATM    8  C   UNL     1      -7.641  11.134  67.511  1.00  0.00    -0.108 A  
HETATM    9  H2  UNL     1      -6.098  10.630  65.501  1.00  0.00     0.000 HD 
HETATM   10  C   UNL     1      -8.009  11.477  68.763  1.00  0.00    -0.107 A  
HETATM   11  N   UNL     1      -6.037  12.953  67.787  1.00  0.00    -0.128 NA 
HETATM   12  N   UNL     1      -7.625  12.604  69.468  1.00  0.00     0.548 NA 
HETATM   13  H1  UNL     1      -4.946  11.957  65.692  1.00  0.00     0.000 HD 
HETATM   14  C   UNL     1      -6.440  14.707  69.497  1.00  0.00    -0.138 C  
HETATM   15  N   UNL     1      -5.777  11.456  66.007  1.00  0.00    -0.185 NA 
HETATM   16  C   UNL     1      -6.701  13.339  68.922  1.00  0.00    -0.110 A  
HETATM   17  C   UNL     1      -6.423  11.868  67.049  1.00  0.00    -0.136 A  
ENDBRANCH   7   8
ENDBRANCH   4   7
ENDBRANCH   2   4
BRANCH   3  18
HETATM   18  C   UNL     1     -11.821  13.323  67.344  1.00  0.00    -0.413 C  
BRANCH  18  19
HETATM   19  C   UNL     1     -11.100  13.948  68.601  1.00  0.00    -0.265 C  
BRANCH  19  20
HETATM   20  O   UNL     1     -11.609  13.520  69.920  1.00  0.00    -0.261 OA 
HETATM   21  O   UNL     1     -11.428  15.040  71.530  1.00  0.00    -0.355 OA 
HETATM   22  O   UNL     1     -13.220  13.390  71.488  1.00  0.00    -0.357 OA 
HETATM   23  P   UNL     1     -12.715  14.665  70.597  1.00  0.00    -0.319 P  
HETATM   24  O   UNL     1     -13.705  15.690  71.202  1.00  0.00    -0.591 OA 
ENDBRANCH  19  20
ENDBRANCH  18  19
ENDBRANCH   3  18
BRANCH   3  25
HETATM   25  S   UNL     1     -10.462  13.740  64.840  1.00  0.00    -0.411 SA 
BRANCH  25  26
HETATM   26  C   UNL     1     -10.943  15.467  65.105  1.00  0.00    -0.409 C  
HETATM   27  O   UNL     1     -11.944  15.932  64.571  1.00  0.00    -0.205 OA 
BRANCH  26  28
HETATM   28  C   UNL     1     -10.038  16.405  65.936  1.00  0.00    -0.370 A  
HETATM   29  C   UNL     1      -9.792  18.586  67.112  1.00  0.00    -0.335 A  
HETATM   30  C   UNL     1     -10.537  17.678  66.327  1.00  0.00    -0.215 A  
HETATM   31  C   UNL     1      -8.764  16.094  66.419  1.00  0.00    -0.360 A  
HETATM   32  C   UNL     1      -8.523  18.235  67.555  1.00  0.00    -0.252 A  
HETATM   33  C   UNL     1      -8.014  16.982  67.212  1.00  0.00    -0.197 A  
ENDBRANCH  26  28
ENDBRANCH  25  26
ENDBRANCH   3  25
TORSDOF 9
ENDMDL
MODEL      189
REMARK 921   NORMALIZED FREE ENERGY PREDICTED BY IDOCK:   -5.03 KCAL/MOL
REMARK 922        TOTAL FREE ENERGY PREDICTED BY IDOCK:   -9.19 KCAL/MOL
REMARK 923 INTER-LIGAND FREE ENERGY PREDICTED BY IDOCK:   -7.18 KCAL/MOL
REMARK 924 INTRA-LIGAND FREE ENERGY PREDICTED BY IDOCK:   -2.01 KCAL/MOL
REMARK 927      BINDING AFFINITY PREDICTED BY RF-SCORE:    0.00 PKD
ROOT
HETATM    1  C   UNL     1     -10.859   7.040  67.305  1.00  0.00    -0.403 C  
HETATM    2  C   UNL     1     -10.048   7.868  68.317  1.00  0.00    -0.194 C  
HETATM    3  C   UNL     1     -10.234   7.643  69.652  1.00  0.00    -0.204 C  
ENDROOT
BRANCH   2   4
HETATM    4  N   UNL     1      -9.139   8.755  67.707  1.00  0.00    -0.135 N  
HETATM    5  C   UNL     1      -7.785   8.415  67.560  1.00  0.00    -0.099 C  
HETATM    6  O   UNL     1      -6.873   9.193  67.320  1.00  0.00    -0.075 OA 
BRANCH   4   7
HETATM    7  C   UNL     1      -9.422  10.206  67.692  1.00  0.00    -0.148 C  
BRANCH   7   8
HETATM    8  C   UNL     1     -10.256  10.665  66.510  1.00  0.00    -0.288 A  
HETATM    9  H2  UNL     1     -11.408  11.201  68.759  1.00  0.00     0.000 HD 
HETATM   10  C   UNL     1     -10.124  10.383  65.196  1.00  0.00    -0.308 A  
HETATM   11  N   UNL     1     -11.958  12.224  65.713  1.00  0.00    -0.567 NA 
HETATM   12  N   UNL     1     -10.669  11.078  64.133  1.00  0.00    -0.353 NA 
HETATM   13  H1  UNL     1     -12.630  12.342  68.184  1.00  0.00     0.000 HD 
HETATM   14  C   UNL     1     -11.927  12.985  63.350  1.00  0.00    -0.592 C  
HETATM   15  N   UNL     1     -11.846  11.717  67.995  1.00  0.00    -0.546 NA 
HETATM   16  C   UNL     1     -11.515  12.020  64.432  1.00  0.00    -0.343 A  
HETATM   17  C   UNL     1     -11.406  11.580  66.786  1.00  0.00    -0.238 A  
ENDBRANCH   7   8
ENDBRANCH   4   7
ENDBRANCH   2   4
BRANCH   3  18
HETATM   18  C   UNL     1     -10.992   6.328  70.134  1.00  0.00    -0.411 C  
BRANCH  18  19
HETATM   19  C   UNL     1     -12.148   6.518  71.191  1.00  0.00    -0.258 C  
BRANCH  19  20
HETATM   20  O   UNL     1     -11.755   6.396  72.610  1.00  0.00    -0.216 OA 
HETATM   21  O   UNL     1     -11.769   4.323  73.408  1.00  0.00    -0.214 OA 
HETATM   22  O   UNL     1     -10.238   6.029  74.233  1.00  0.00    -0.263 OA 
HETATM   23  P   UNL     1     -10.517   5.209  72.846  1.00  0.00    -0.246 P  
HETATM   24  O   UNL     1      -9.410   4.148  73.056  1.00  0.00    -0.110 OA 
ENDBRANCH  19  20
ENDBRANCH  18  19
ENDBRANCH   3  18
BRANCH   3  25
HETATM   25  S   UNL     1      -9.648   8.722  71.003  1.00  0.00    -0.253 SA 
BRANCH  25  26
HETATM   26  C   UNL     1      -7.866   8.584  71.306  1.00  0.00    -0.118 C  
HETATM   27  O   UNL     1      -7.116   9.529  71.092  1.00  0.00    -0.287 OA 
BRANCH  26  28
HETATM   28  C   UNL     1      -7.257   7.235  71.752  1.00  0.00    -0.072 A  
HETATM   29  C   UNL     1      -6.415   4.989  71.084  1.00  0.00    -0.023 A  
HETATM   30  C   UNL     1      -6.997   6.238  70.772  1.00  0.00    -0.068 A  
HETATM   31  C   UNL     1      -6.859   6.909  73.051  1.00  0.00    -0.070 A  
HETATM   32  C   UNL     1      -6.050   4.707  72.395  1.00  0.00    -0.017 A  
HETATM   33  C   UNL     1      -6.267   5.675  73.376  1.00  0.00    -0.057 A  
ENDBRANCH  26  28
ENDBRANCH  25  26
ENDBRANCH   3  25
TORSDOF 9
ENDMDL
MODEL      190
REMARK 921   NORMALIZED FREE ENERGY PREDICTED BY IDOCK:   -5.02 KCAL/MOL
REMARK 922        TOTAL FREE ENERGY PREDICTED BY IDOCK:   -9.17 KCAL/MOL
REMARK 923 INTER-LIGAND FREE ENERGY PREDICTED BY IDOCK:   -8.26 KCAL/MOL
REMARK 924 INTRA-LIGAND FREE ENERGY PREDICTED BY IDOCK:   -0.92 KCAL/MOL
REMARK 927      BINDING AFFINITY PREDICTED BY RF-SCORE:    0.00 PKD
ROOT
HETATM    1  C   UNL     1     -11.715  11.894  64.849  1.00  0.00    -0.262 C  
HETATM    2  C   UNL     1     -11.002  11.508  66.156  1.00  0.00    -0.266 C  
HETATM    3  C   UNL     1     -10.087  10.493  66.133  1.00  0.00    -0.246 C  
ENDROOT
BRANCH   2   4
HETATM    4  N   UNL     1     -11.362  12.324  67.247  1.00  0.00    -0.306 N  
HETATM    5  C   UNL     1     -11.579  11.775  68.521  1.00  0.00    -0.321 C  
HETATM    6  O   UNL     1     -12.160  12.321  69.447  1.00  0.00    -0.260 OA 
BRANCH   4   7
HETATM    7  C   UNL     1     -12.024  13.624  67.009  1.00  0.00    -0.406 C  
BRANCH   7   8
HETATM    8  C   UNL     1     -11.188  14.829  67.403  1.00  0.00    -0.346 A  
HETATM    9  H2  UNL     1     -11.107  14.400  64.857  1.00  0.00     0.000 HD 
HETATM   10  C   UNL     1     -10.794  15.245  68.625  1.00  0.00    -0.253 A  
HETATM   11  N   UNL     1     -10.231  16.955  66.681  1.00  0.00    -0.304 NA 
HETATM   12  N   UNL     1     -10.344  16.506  68.974  1.00  0.00    -0.276 NA 
HETATM   13  H1  UNL     1     -10.428  15.946  64.333  1.00  0.00     0.000 HD 
HETATM   14  C   UNL     1      -9.923  18.792  68.323  1.00  0.00    -0.432 C  
HETATM   15  N   UNL     1     -10.752  15.330  65.079  1.00  0.00    -0.430 NA 
HETATM   16  C   UNL     1     -10.144  17.339  67.994  1.00  0.00    -0.324 A  
HETATM   17  C   UNL     1     -10.713  15.731  66.309  1.00  0.00    -0.282 A  
ENDBRANCH   7   8
ENDBRANCH   4   7
ENDBRANCH   2   4
BRANCH   3  18
HETATM   18  C   UNL     1      -9.519   9.973  64.739  1.00  0.00    -0.366 C  
BRANCH  18  19
HETATM   19  C   UNL     1      -8.030  10.358  64.387  1.00  0.00    -0.085 C  
BRANCH  19  20
HETATM   20  O   UNL     1      -7.104   9.229  64.161  1.00  0.00    -0.094 OA 
HETATM   21  O   UNL     1      -6.780   7.920  65.925  1.00  0.00    -0.048 OA 
HETATM   22  O   UNL     1      -6.671   7.081  63.640  1.00  0.00    -0.042 OA 
HETATM   23  P   UNL     1      -7.786   7.717  64.654  1.00  0.00    -0.129 P  
HETATM   24  O   UNL     1      -8.395   6.364  65.096  1.00  0.00    -0.142 OA 
ENDBRANCH  19  20
ENDBRANCH  18  19
ENDBRANCH   3  18
BRANCH   3  25
HETATM   25  S   UNL     1      -9.391   9.656  67.599  1.00  0.00    -0.126 SA 
BRANCH  25  26
HETATM   26  C   UNL     1     -10.294   8.154  68.059  1.00  0.00    -0.211 C  
HETATM   27  O   UNL     1     -10.684   7.366  67.205  1.00  0.00    -0.303 OA 
BRANCH  26  28
HETATM   28  C   UNL     1     -10.666   7.894  69.538  1.00  0.00    -0.195 A  
HETATM   29  C   UNL     1     -10.752   8.772  71.866  1.00  0.00    -0.429 A  
HETATM   30  C   UNL     1     -10.417   8.910  70.501  1.00  0.00    -0.257 A  
HETATM   31  C   UNL     1     -11.306   6.754  70.030  1.00  0.00    -0.396 A  
HETATM   32  C   UNL     1     -11.375   7.611  72.309  1.00  0.00    -0.355 A  
HETATM   33  C   UNL     1     -11.657   6.605  71.384  1.00  0.00    -0.362 A  
ENDBRANCH  26  28
ENDBRANCH  25  26
ENDBRANCH   3  25
TORSDOF 9
ENDMDL
MODEL      191
REMARK 921   NORMALIZED FREE ENERGY PREDICTED BY IDOCK:   -5.02 KCAL/MOL
REMARK 922        TOTAL FREE ENERGY PREDICTED BY IDOCK:   -9.17 KCAL/MOL
REMARK 923 INTER-LIGAND FREE ENERGY PREDICTED BY IDOCK:   -7.80 KCAL/MOL
REMARK 924 INTRA-LIGAND FREE ENERGY PREDICTED BY IDOCK:   -1.37 KCAL/MOL
REMARK 927      BINDING AFFINITY PREDICTED BY RF-SCORE:    0.00 PKD
ROOT
HETATM    1  C   UNL     1      -9.852  15.253  70.008  1.00  0.00    -0.072 C  
HETATM    2  C   UNL     1      -9.252  15.780  68.693  1.00  0.00    -0.207 C  
HETATM    3  C   UNL     1      -7.950  15.486  68.398  1.00  0.00    -0.127 C  
ENDROOT
BRANCH   2   4
HETATM    4  N   UNL     1     -10.180  16.484  67.902  1.00  0.00    -0.264 N  
HETATM    5  C   UNL     1     -10.131  17.884  67.801  1.00  0.00    -0.348 C  
HETATM    6  O   UNL     1     -11.031  18.605  67.394  1.00  0.00    -0.399 OA 
BRANCH   4   7
HETATM    7  C   UNL     1     -11.498  15.885  67.601  1.00  0.00    -0.070 C  
BRANCH   7   8
HETATM    8  C   UNL     1     -11.463  14.807  66.533  1.00  0.00    -0.328 A  
HETATM    9  H2  UNL     1     -11.804  13.805  68.889  1.00  0.00     0.000 HD 
HETATM   10  C   UNL     1     -11.089  14.886  65.238  1.00  0.00    -0.378 A  
HETATM   11  N   UNL     1     -12.162  12.555  65.900  1.00  0.00    -0.624 NA 
HETATM   12  N   UNL     1     -11.393  13.995  64.224  1.00  0.00    -0.316 NA 
HETATM   13  H1  UNL     1     -12.326  12.180  68.430  1.00  0.00     0.000 HD 
HETATM   14  C   UNL     1     -12.580  12.016  63.513  1.00  0.00    -0.625 C  
HETATM   15  N   UNL     1     -12.021  13.117  68.168  1.00  0.00    -0.336 NA 
HETATM   16  C   UNL     1     -11.981  12.891  64.583  1.00  0.00    -0.392 A  
HETATM   17  C   UNL     1     -11.909  13.433  66.918  1.00  0.00    -0.403 A  
ENDBRANCH   7   8
ENDBRANCH   4   7
ENDBRANCH   2   4
BRANCH   3  18
HETATM   18  C   UNL     1      -7.194  14.343  69.210  1.00  0.00    -0.107 C  
BRANCH  18  19
HETATM   19  C   UNL     1      -5.878  13.761  68.564  1.00  0.00    -0.090 C  
BRANCH  19  20
HETATM   20  O   UNL     1      -5.985  12.405  67.986  1.00  0.00    -0.057 OA 
HETATM   21  O   UNL     1      -7.609  11.152  68.839  1.00  0.00    -0.120 OA 
HETATM   22  O   UNL     1      -6.855  10.920  66.534  1.00  0.00    -0.116 OA 
HETATM   23  P   UNL     1      -7.595  12.041  67.469  1.00  0.00    -0.169 P  
HETATM   24  O   UNL     1      -9.035  11.715  67.005  1.00  0.00    -0.170 OA 
ENDBRANCH  19  20
ENDBRANCH  18  19
ENDBRANCH   3  18
BRANCH   3  25
HETATM   25  S   UNL     1      -6.952  16.278  67.091  1.00  0.00    -0.210 SA 
BRANCH  25  26
HETATM   26  C   UNL     1      -6.226  17.857  67.604  1.00  0.00    -0.164 C  
HETATM   27  O   UNL     1      -5.983  18.086  68.783  1.00  0.00    -0.186 OA 
BRANCH  26  28
HETATM   28  C   UNL     1      -5.990  18.977  66.564  1.00  0.00    -0.181 A  
HETATM   29  C   UNL     1      -5.749  19.598  64.165  1.00  0.00    -0.313 A  
HETATM   30  C   UNL     1      -5.931  18.637  65.185  1.00  0.00    -0.294 A  
HETATM   31  C   UNL     1      -5.896  20.343  66.843  1.00  0.00    -0.206 A  
HETATM   32  C   UNL     1      -5.646  20.943  64.496  1.00  0.00    -0.268 A  
HETATM   33  C   UNL     1      -5.726  21.313  65.839  1.00  0.00    -0.258 A  
ENDBRANCH  26  28
ENDBRANCH  25  26
ENDBRANCH   3  25
TORSDOF 9
ENDMDL
MODEL      192
REMARK 921   NORMALIZED FREE ENERGY PREDICTED BY IDOCK:   -5.02 KCAL/MOL
REMARK 922        TOTAL FREE ENERGY PREDICTED BY IDOCK:   -9.17 KCAL/MOL
REMARK 923 INTER-LIGAND FREE ENERGY PREDICTED BY IDOCK:   -7.48 KCAL/MOL
REMARK 924 INTRA-LIGAND FREE ENERGY PREDICTED BY IDOCK:   -1.69 KCAL/MOL
REMARK 927      BINDING AFFINITY PREDICTED BY RF-SCORE:    0.00 PKD
ROOT
HETATM    1  C   UNL     1     -13.461   9.178  71.141  1.00  0.00    -0.191 C  
HETATM    2  C   UNL     1     -11.960   8.876  71.294  1.00  0.00    -0.307 C  
HETATM    3  C   UNL     1     -11.055   9.719  70.712  1.00  0.00    -0.345 C  
ENDROOT
BRANCH   2   4
HETATM    4  N   UNL     1     -11.700   7.748  72.097  1.00  0.00    -0.303 N  
HETATM    5  C   UNL     1     -10.778   7.809  73.154  1.00  0.00    -0.351 C  
HETATM    6  O   UNL     1     -10.268   6.851  73.716  1.00  0.00    -0.296 OA 
BRANCH   4   7
HETATM    7  C   UNL     1     -11.947   6.391  71.564  1.00  0.00    -0.273 C  
BRANCH   7   8
HETATM    8  C   UNL     1     -11.239   6.098  70.254  1.00  0.00    -0.439 A  
HETATM    9  H2  UNL     1     -10.110   4.892  72.240  1.00  0.00     0.000 HD 
HETATM   10  C   UNL     1     -11.369   6.693  69.049  1.00  0.00    -0.160 A  
HETATM   11  N   UNL     1      -9.838   4.531  69.012  1.00  0.00    -0.162 NA 
HETATM   12  N   UNL     1     -10.980   6.189  67.821  1.00  0.00    -0.331 NA 
HETATM   13  H1  UNL     1      -9.109   3.747  71.341  1.00  0.00     0.000 HD 
HETATM   14  C   UNL     1     -10.073   4.349  66.547  1.00  0.00    -0.217 C  
HETATM   15  N   UNL     1      -9.788   4.507  71.352  1.00  0.00    -0.185 NA 
HETATM   16  C   UNL     1     -10.287   5.088  67.842  1.00  0.00    -0.035 A  
HETATM   17  C   UNL     1     -10.242   4.984  70.238  1.00  0.00    -0.258 A  
ENDBRANCH   7   8
ENDBRANCH   4   7
ENDBRANCH   2   4
BRANCH   3  18
HETATM   18  C   UNL     1     -11.525  11.153  70.202  1.00  0.00    -0.361 C  
BRANCH  18  19
HETATM   19  C   UNL     1     -11.890  11.282  68.672  1.00  0.00    -0.300 C  
BRANCH  19  20
HETATM   20  O   UNL     1     -12.054  12.657  68.159  1.00  0.00    -0.278 OA 
HETATM   21  O   UNL     1     -10.165  13.662  67.563  1.00  0.00    -0.237 OA 
HETATM   22  O   UNL     1     -12.296  14.144  66.485  1.00  0.00    -0.460 OA 
HETATM   23  P   UNL     1     -11.263  12.885  66.637  1.00  0.00    -0.336 P  
HETATM   24  O   UNL     1     -10.557  13.088  65.275  1.00  0.00    -0.290 OA 
ENDBRANCH  19  20
ENDBRANCH  18  19
ENDBRANCH   3  18
BRANCH   3  25
HETATM   25  S   UNL     1      -9.278   9.373  70.478  1.00  0.00    -0.233 SA 
BRANCH  25  26
HETATM   26  C   UNL     1      -8.597  10.119  68.974  1.00  0.00    -0.156 C  
HETATM   27  O   UNL     1      -8.271  11.300  68.948  1.00  0.00    -0.141 OA 
BRANCH  26  28
HETATM   28  C   UNL     1      -8.505   9.292  67.671  1.00  0.00    -0.116 A  
HETATM   29  C   UNL     1      -7.693   7.222  66.550  1.00  0.00    -0.093 A  
HETATM   30  C   UNL     1      -7.801   8.056  67.685  1.00  0.00    -0.122 A  
HETATM   31  C   UNL     1      -9.121   9.610  66.457  1.00  0.00    -0.185 A  
HETATM   32  C   UNL     1      -8.312   7.590  65.362  1.00  0.00    -0.129 A  
HETATM   33  C   UNL     1      -9.033   8.784  65.322  1.00  0.00    -0.184 A  
ENDBRANCH  26  28
ENDBRANCH  25  26
ENDBRANCH   3  25
TORSDOF 9
ENDMDL
MODEL      193
REMARK 921   NORMALIZED FREE ENERGY PREDICTED BY IDOCK:   -5.02 KCAL/MOL
REMARK 922        TOTAL FREE ENERGY PREDICTED BY IDOCK:   -9.16 KCAL/MOL
REMARK 923 INTER-LIGAND FREE ENERGY PREDICTED BY IDOCK:   -8.05 KCAL/MOL
REMARK 924 INTRA-LIGAND FREE ENERGY PREDICTED BY IDOCK:   -1.11 KCAL/MOL
REMARK 927      BINDING AFFINITY PREDICTED BY RF-SCORE:    0.00 PKD
ROOT
HETATM    1  C   UNL     1     -10.048   8.090  66.515  1.00  0.00    -0.270 C  
HETATM    2  C   UNL     1      -9.745   9.034  67.691  1.00  0.00    -0.156 C  
HETATM    3  C   UNL     1     -10.242   8.727  68.927  1.00  0.00    -0.207 C  
ENDROOT
BRANCH   2   4
HETATM    4  N   UNL     1      -8.911  10.112  67.338  1.00  0.00    -0.135 N  
HETATM    5  C   UNL     1      -7.525   9.939  67.193  1.00  0.00    -0.091 C  
HETATM    6  O   UNL     1      -6.690  10.831  67.177  1.00  0.00    -0.076 OA 
BRANCH   4   7
HETATM    7  C   UNL     1      -9.339  11.499  67.622  1.00  0.00    -0.171 C  
BRANCH   7   8
HETATM    8  C   UNL     1     -10.117  12.154  66.496  1.00  0.00    -0.229 A  
HETATM    9  H2  UNL     1     -11.674  10.894  68.128  1.00  0.00     0.000 HD 
HETATM   10  C   UNL     1      -9.675  12.701  65.343  1.00  0.00    -0.061 A  
HETATM   11  N   UNL     1     -12.260  13.084  65.786  1.00  0.00    -0.454 NA 
HETATM   12  N   UNL     1     -10.355  13.582  64.522  1.00  0.00    -0.414 NA 
HETATM   13  H1  UNL     1     -13.224  11.580  67.624  1.00  0.00     0.000 HD 
HETATM   14  C   UNL     1     -12.315  14.938  64.134  1.00  0.00    -0.212 C  
HETATM   15  N   UNL     1     -12.210  11.520  67.526  1.00  0.00    -0.225 NA 
HETATM   16  C   UNL     1     -11.605  13.795  64.813  1.00  0.00    -0.362 A  
HETATM   17  C   UNL     1     -11.603  12.241  66.639  1.00  0.00    -0.375 A  
ENDBRANCH   7   8
ENDBRANCH   4   7
ENDBRANCH   2   4
BRANCH   3  18
HETATM   18  C   UNL     1     -10.808   7.266  69.211  1.00  0.00    -0.177 C  
BRANCH  18  19
HETATM   19  C   UNL     1     -10.042   6.400  70.285  1.00  0.00    -0.181 C  
BRANCH  19  20
HETATM   20  O   UNL     1      -8.961   5.535  69.769  1.00  0.00    -0.122 OA 
HETATM   21  O   UNL     1      -9.564   3.439  69.347  1.00  0.00    -0.172 OA 
HETATM   22  O   UNL     1      -7.810   4.571  68.091  1.00  0.00    -0.080 OA 
HETATM   23  P   UNL     1      -9.424   4.704  68.324  1.00  0.00    -0.142 P  
HETATM   24  O   UNL     1      -9.837   3.961  67.030  1.00  0.00    -0.201 OA 
ENDBRANCH  19  20
ENDBRANCH  18  19
ENDBRANCH   3  18
BRANCH   3  25
HETATM   25  S   UNL     1     -10.297   9.856  70.361  1.00  0.00    -0.201 SA 
BRANCH  25  26
HETATM   26  C   UNL     1     -11.980  10.198  70.937  1.00  0.00    -0.365 C  
HETATM   27  O   UNL     1     -12.791   9.291  71.089  1.00  0.00    -0.299 OA 
BRANCH  26  28
HETATM   28  C   UNL     1     -12.444  11.656  71.157  1.00  0.00    -0.412 A  
HETATM   29  C   UNL     1     -12.310  14.034  70.431  1.00  0.00    -0.429 A  
HETATM   30  C   UNL     1     -11.920  12.681  70.322  1.00  0.00    -0.363 A  
HETATM   31  C   UNL     1     -13.410  12.076  72.076  1.00  0.00    -0.447 A  
HETATM   32  C   UNL     1     -13.264  14.403  71.372  1.00  0.00    -0.418 A  
HETATM   33  C   UNL     1     -13.818  13.417  72.189  1.00  0.00    -0.605 A  
ENDBRANCH  26  28
ENDBRANCH  25  26
ENDBRANCH   3  25
TORSDOF 9
ENDMDL
MODEL      194
REMARK 921   NORMALIZED FREE ENERGY PREDICTED BY IDOCK:   -5.01 KCAL/MOL
REMARK 922        TOTAL FREE ENERGY PREDICTED BY IDOCK:   -9.16 KCAL/MOL
REMARK 923 INTER-LIGAND FREE ENERGY PREDICTED BY IDOCK:   -7.75 KCAL/MOL
REMARK 924 INTRA-LIGAND FREE ENERGY PREDICTED BY IDOCK:   -1.41 KCAL/MOL
REMARK 927      BINDING AFFINITY PREDICTED BY RF-SCORE:    0.00 PKD
ROOT
HETATM    1  C   UNL     1      -7.883  10.139  68.480  1.00  0.00    -0.095 C  
HETATM    2  C   UNL     1      -8.803   9.179  67.709  1.00  0.00    -0.124 C  
HETATM    3  C   UNL     1      -9.788   8.519  68.391  1.00  0.00    -0.173 C  
ENDROOT
BRANCH   2   4
HETATM    4  N   UNL     1      -8.534   9.141  66.327  1.00  0.00    -0.121 N  
HETATM    5  C   UNL     1      -7.247   9.406  65.832  1.00  0.00    -0.092 C  
HETATM    6  O   UNL     1      -6.967   9.682  64.675  1.00  0.00    -0.101 OA 
BRANCH   4   7
HETATM    7  C   UNL     1      -9.629   9.353  65.356  1.00  0.00    -0.226 C  
BRANCH   7   8
HETATM    8  C   UNL     1     -10.043  10.804  65.192  1.00  0.00    -0.363 A  
HETATM    9  H2  UNL     1      -9.149   9.808  62.982  1.00  0.00     0.000 HD 
HETATM   10  C   UNL     1     -10.343  11.729  66.128  1.00  0.00    -0.230 A  
HETATM   11  N   UNL     1     -10.818  12.528  63.647  1.00  0.00    -0.443 NA 
HETATM   12  N   UNL     1     -11.039  12.910  65.944  1.00  0.00    -0.278 NA 
HETATM   13  H1  UNL     1      -9.724  11.049  61.862  1.00  0.00     0.000 HD 
HETATM   14  C   UNL     1     -12.295  14.348  64.466  1.00  0.00    -0.440 C  
HETATM   15  N   UNL     1      -9.642  10.685  62.812  1.00  0.00    -0.315 NA 
HETATM   16  C   UNL     1     -11.312  13.233  64.714  1.00  0.00    -0.327 A  
HETATM   17  C   UNL     1     -10.163  11.337  63.800  1.00  0.00    -0.377 A  
ENDBRANCH   7   8
ENDBRANCH   4   7
ENDBRANCH   2   4
BRANCH   3  18
HETATM   18  C   UNL     1     -10.195   9.001  69.853  1.00  0.00    -0.214 C  
BRANCH  18  19
HETATM   19  C   UNL     1     -11.437   9.968  69.966  1.00  0.00    -0.248 C  
BRANCH  19  20
HETATM   20  O   UNL     1     -12.495   9.556  70.912  1.00  0.00    -0.280 OA 
HETATM   21  O   UNL     1     -12.744   7.360  71.135  1.00  0.00    -0.332 OA 
HETATM   22  O   UNL     1     -13.207   8.918  72.950  1.00  0.00    -0.333 OA 
HETATM   23  P   UNL     1     -11.921   8.412  72.076  1.00  0.00    -0.404 P  
HETATM   24  O   UNL     1     -11.408   7.388  73.118  1.00  0.00    -0.298 OA 
ENDBRANCH  19  20
ENDBRANCH  18  19
ENDBRANCH   3  18
BRANCH   3  25
HETATM   25  S   UNL     1     -10.752   7.103  67.759  1.00  0.00    -0.190 SA 
BRANCH  25  26
HETATM   26  C   UNL     1      -9.809   5.556  67.726  1.00  0.00    -0.138 C  
HETATM   27  O   UNL     1      -9.323   5.136  66.683  1.00  0.00    -0.127 OA 
BRANCH  26  28
HETATM   28  C   UNL     1      -9.688   4.694  69.005  1.00  0.00    -0.242 A  
HETATM   29  C   UNL     1     -10.031   4.528  71.465  1.00  0.00    -0.259 A  
HETATM   30  C   UNL     1     -10.080   5.251  70.253  1.00  0.00    -0.329 A  
HETATM   31  C   UNL     1      -9.284   3.357  69.052  1.00  0.00    -0.226 A  
HETATM   32  C   UNL     1      -9.607   3.204  71.461  1.00  0.00    -0.227 A  
HETATM   33  C   UNL     1      -9.240   2.619  70.249  1.00  0.00    -0.202 A  
ENDBRANCH  26  28
ENDBRANCH  25  26
ENDBRANCH   3  25
TORSDOF 9
ENDMDL
MODEL      195
REMARK 921   NORMALIZED FREE ENERGY PREDICTED BY IDOCK:   -5.01 KCAL/MOL
REMARK 922        TOTAL FREE ENERGY PREDICTED BY IDOCK:   -9.16 KCAL/MOL
REMARK 923 INTER-LIGAND FREE ENERGY PREDICTED BY IDOCK:   -7.52 KCAL/MOL
REMARK 924 INTRA-LIGAND FREE ENERGY PREDICTED BY IDOCK:   -1.64 KCAL/MOL
REMARK 927      BINDING AFFINITY PREDICTED BY RF-SCORE:    0.00 PKD
ROOT
HETATM    1  C   UNL     1     -10.586   7.970  67.303  1.00  0.00    -0.360 C  
HETATM    2  C   UNL     1      -9.318   8.836  67.208  1.00  0.00    -0.147 C  
HETATM    3  C   UNL     1      -9.447  10.197  67.216  1.00  0.00    -0.154 C  
ENDROOT
BRANCH   2   4
HETATM    4  N   UNL     1      -8.130   8.081  67.177  1.00  0.00    -0.115 N  
HETATM    5  C   UNL     1      -7.935   7.077  66.214  1.00  0.00    -0.114 C  
HETATM    6  O   UNL     1      -7.098   6.187  66.266  1.00  0.00    -0.065 OA 
BRANCH   4   7
HETATM    7  C   UNL     1      -7.319   7.932  68.404  1.00  0.00    -0.101 C  
BRANCH   7   8
HETATM    8  C   UNL     1      -8.058   7.292  69.565  1.00  0.00    -0.129 A  
HETATM    9  H2  UNL     1      -7.581   9.794  69.997  1.00  0.00     0.000 HD 
HETATM   10  C   UNL     1      -8.291   5.988  69.829  1.00  0.00    -0.126 A  
HETATM   11  N   UNL     1      -9.554   7.651  71.460  1.00  0.00    -0.154 NA 
HETATM   12  N   UNL     1      -9.244   5.466  70.684  1.00  0.00    -0.145 NA 
HETATM   13  H1  UNL     1      -8.677  10.057  71.359  1.00  0.00     0.000 HD 
HETATM   14  C   UNL     1     -11.117   5.852  72.158  1.00  0.00    -0.333 C  
HETATM   15  N   UNL     1      -8.275   9.438  70.655  1.00  0.00    -0.198 NA 
HETATM   16  C   UNL     1      -9.891   6.322  71.420  1.00  0.00    -0.173 A  
HETATM   17  C   UNL     1      -8.646   8.199  70.597  1.00  0.00    -0.130 A  
ENDBRANCH   7   8
ENDBRANCH   4   7
ENDBRANCH   2   4
BRANCH   3  18
HETATM   18  C   UNL     1     -10.824  10.858  67.669  1.00  0.00    -0.317 C  
BRANCH  18  19
HETATM   19  C   UNL     1     -11.358  12.062  66.800  1.00  0.00    -0.339 C  
BRANCH  19  20
HETATM   20  O   UNL     1     -11.288  11.884  65.335  1.00  0.00    -0.323 OA 
HETATM   21  O   UNL     1     -13.188  12.280  64.255  1.00  0.00    -0.785 OA 
HETATM   22  O   UNL     1     -11.006  12.670  63.244  1.00  0.00    -0.386 OA 
HETATM   23  P   UNL     1     -11.900  13.259  64.481  1.00  0.00    -0.437 P  
HETATM   24  O   UNL     1     -12.447  14.488  63.716  1.00  0.00    -0.809 OA 
ENDBRANCH  19  20
ENDBRANCH  18  19
ENDBRANCH   3  18
BRANCH   3  25
HETATM   25  S   UNL     1      -8.139  11.391  66.775  1.00  0.00    -0.154 SA 
BRANCH  25  26
HETATM   26  C   UNL     1      -7.926  12.705  68.005  1.00  0.00    -0.155 C  
HETATM   27  O   UNL     1      -7.315  12.500  69.048  1.00  0.00    -0.065 OA 
BRANCH  26  28
HETATM   28  C   UNL     1      -8.597  14.082  67.794  1.00  0.00    -0.183 A  
HETATM   29  C   UNL     1      -9.389  15.806  66.182  1.00  0.00    -0.381 A  
HETATM   30  C   UNL     1      -8.760  14.575  66.470  1.00  0.00    -0.079 A  
HETATM   31  C   UNL     1      -9.141  14.887  68.798  1.00  0.00    -0.189 A  
HETATM   32  C   UNL     1      -9.900  16.578  67.218  1.00  0.00    -0.254 A  
HETATM   33  C   UNL     1      -9.780  16.111  68.527  1.00  0.00    -0.217 A  
ENDBRANCH  26  28
ENDBRANCH  25  26
ENDBRANCH   3  25
TORSDOF 9
ENDMDL
MODEL      196
REMARK 921   NORMALIZED FREE ENERGY PREDICTED BY IDOCK:   -5.01 KCAL/MOL
REMARK 922        TOTAL FREE ENERGY PREDICTED BY IDOCK:   -9.15 KCAL/MOL
REMARK 923 INTER-LIGAND FREE ENERGY PREDICTED BY IDOCK:   -7.48 KCAL/MOL
REMARK 924 INTRA-LIGAND FREE ENERGY PREDICTED BY IDOCK:   -1.68 KCAL/MOL
REMARK 927      BINDING AFFINITY PREDICTED BY RF-SCORE:    0.00 PKD
ROOT
HETATM    1  C   UNL     1     -10.079  10.328  65.036  1.00  0.00    -0.353 C  
HETATM    2  C   UNL     1      -9.605  10.777  66.428  1.00  0.00    -0.189 C  
HETATM    3  C   UNL     1      -9.943  10.020  67.516  1.00  0.00    -0.190 C  
ENDROOT
BRANCH   2   4
HETATM    4  N   UNL     1      -8.803  11.934  66.396  1.00  0.00    -0.184 N  
HETATM    5  C   UNL     1      -7.542  11.959  67.014  1.00  0.00    -0.134 C  
HETATM    6  O   UNL     1      -6.901  12.961  67.295  1.00  0.00    -0.150 OA 
BRANCH   4   7
HETATM    7  C   UNL     1      -9.428  13.261  66.205  1.00  0.00    -0.184 C  
BRANCH   7   8
HETATM    8  C   UNL     1     -10.213  13.757  67.406  1.00  0.00    -0.252 A  
HETATM    9  H2  UNL     1     -11.769  12.838  65.560  1.00  0.00     0.000 HD 
HETATM   10  C   UNL     1      -9.805  14.497  68.459  1.00  0.00    -0.231 A  
HETATM   11  N   UNL     1     -12.278  13.573  68.695  1.00  0.00    -0.254 NA 
HETATM   12  N   UNL     1     -10.440  14.632  69.681  1.00  0.00    -0.120 NA 
HETATM   13  H1  UNL     1     -13.260  12.690  66.498  1.00  0.00     0.000 HD 
HETATM   14  C   UNL     1     -12.246  13.978  71.144  1.00  0.00    -0.417 C  
HETATM   15  N   UNL     1     -12.273  12.941  66.441  1.00  0.00    -0.482 NA 
HETATM   16  C   UNL     1     -11.626  14.106  69.777  1.00  0.00    -0.290 A  
HETATM   17  C   UNL     1     -11.660  13.390  67.489  1.00  0.00    -0.344 A  
ENDBRANCH   7   8
ENDBRANCH   4   7
ENDBRANCH   2   4
BRANCH   3  18
HETATM   18  C   UNL     1     -10.497   8.542  67.308  1.00  0.00    -0.366 C  
BRANCH  18  19
HETATM   19  C   UNL     1      -9.449   7.366  67.410  1.00  0.00    -0.141 C  
BRANCH  19  20
HETATM   20  O   UNL     1      -9.459   6.391  66.299  1.00  0.00    -0.160 OA 
HETATM   21  O   UNL     1      -7.452   5.687  65.658  1.00  0.00    -0.072 OA 
HETATM   22  O   UNL     1      -9.440   4.289  65.493  1.00  0.00    -0.152 OA 
HETATM   23  P   UNL     1      -8.528   4.979  66.662  1.00  0.00    -0.105 P  
HETATM   24  O   UNL     1      -7.696   3.715  66.987  1.00  0.00    -0.079 OA 
ENDBRANCH  19  20
ENDBRANCH  18  19
ENDBRANCH   3  18
BRANCH   3  25
HETATM   25  S   UNL     1      -9.786  10.537  69.260  1.00  0.00    -0.173 SA 
BRANCH  25  26
HETATM   26  C   UNL     1     -11.119   9.906  70.314  1.00  0.00    -0.308 C  
HETATM   27  O   UNL     1     -12.173  10.520  70.431  1.00  0.00    -0.290 OA 
BRANCH  26  28
HETATM   28  C   UNL     1     -10.903   8.627  71.155  1.00  0.00    -0.320 A  
HETATM   29  C   UNL     1     -11.466   6.228  71.510  1.00  0.00    -0.351 A  
HETATM   30  C   UNL     1     -11.622   7.449  70.816  1.00  0.00    -0.317 A  
HETATM   31  C   UNL     1      -9.993   8.486  72.206  1.00  0.00    -0.385 A  
HETATM   32  C   UNL     1     -10.558   6.143  72.558  1.00  0.00    -0.244 A  
HETATM   33  C   UNL     1      -9.817   7.275  72.899  1.00  0.00    -0.240 A  
ENDBRANCH  26  28
ENDBRANCH  25  26
ENDBRANCH   3  25
TORSDOF 9
ENDMDL
MODEL      197
REMARK 921   NORMALIZED FREE ENERGY PREDICTED BY IDOCK:   -5.00 KCAL/MOL
REMARK 922        TOTAL FREE ENERGY PREDICTED BY IDOCK:   -9.14 KCAL/MOL
REMARK 923 INTER-LIGAND FREE ENERGY PREDICTED BY IDOCK:   -7.44 KCAL/MOL
REMARK 924 INTRA-LIGAND FREE ENERGY PREDICTED BY IDOCK:   -1.70 KCAL/MOL
REMARK 927      BINDING AFFINITY PREDICTED BY RF-SCORE:    0.00 PKD
ROOT
HETATM    1  C   UNL     1      -6.805  10.506  66.172  1.00  0.00    -0.131 C  
HETATM    2  C   UNL     1      -7.853   9.484  66.642  1.00  0.00    -0.101 C  
HETATM    3  C   UNL     1      -9.147   9.893  66.806  1.00  0.00    -0.143 C  
ENDROOT
BRANCH   2   4
HETATM    4  N   UNL     1      -7.330   8.185  66.800  1.00  0.00    -0.082 N  
HETATM    5  C   UNL     1      -7.995   7.067  66.271  1.00  0.00    -0.114 C  
HETATM    6  O   UNL     1      -7.799   5.902  66.584  1.00  0.00    -0.099 OA 
BRANCH   4   7
HETATM    7  C   UNL     1      -6.415   7.890  67.923  1.00  0.00    -0.052 C  
BRANCH   7   8
HETATM    8  C   UNL     1      -7.050   8.021  69.295  1.00  0.00    -0.068 A  
HETATM    9  H2  UNL     1      -7.131   5.587  68.431  1.00  0.00     0.000 HD 
HETATM   10  C   UNL     1      -7.405   9.127  69.983  1.00  0.00    -0.070 A  
HETATM   11  N   UNL     1      -7.623   6.887  71.380  1.00  0.00    -0.086 NA 
HETATM   12  N   UNL     1      -7.650   9.225  71.340  1.00  0.00    -0.341 NA 
HETATM   13  H1  UNL     1      -7.530   4.765  69.945  1.00  0.00     0.000 HD 
HETATM   14  C   UNL     1      -7.670   8.164  73.509  1.00  0.00    -0.218 C  
HETATM   15  N   UNL     1      -7.333   5.624  69.431  1.00  0.00    -0.069 NA 
HETATM   16  C   UNL     1      -7.683   8.107  72.003  1.00  0.00    -0.108 A  
HETATM   17  C   UNL     1      -7.339   6.762  70.048  1.00  0.00    -0.085 A  
ENDBRANCH   7   8
ENDBRANCH   4   7
ENDBRANCH   2   4
BRANCH   3  18
HETATM   18  C   UNL     1      -9.621  11.282  66.188  1.00  0.00    -0.241 C  
BRANCH  18  19
HETATM   19  C   UNL     1     -10.363  11.228  64.796  1.00  0.00    -0.307 C  
BRANCH  19  20
HETATM   20  O   UNL     1     -10.725  12.532  64.204  1.00  0.00    -0.334 OA 
HETATM   21  O   UNL     1     -12.854  12.726  63.602  1.00  0.00    -0.701 OA 
HETATM   22  O   UNL     1     -11.529  14.630  64.345  1.00  0.00    -0.342 OA 
HETATM   23  P   UNL     1     -12.111  13.233  64.965  1.00  0.00    -0.464 P  
HETATM   24  O   UNL     1     -13.351  13.861  65.646  1.00  0.00    -0.620 OA 
ENDBRANCH  19  20
ENDBRANCH  18  19
ENDBRANCH   3  18
BRANCH   3  25
HETATM   25  S   UNL     1     -10.457   8.957  67.668  1.00  0.00    -0.232 SA 
BRANCH  25  26
HETATM   26  C   UNL     1     -10.799   9.578  69.335  1.00  0.00    -0.206 C  
HETATM   27  O   UNL     1     -10.780  10.779  69.577  1.00  0.00    -0.227 OA 
BRANCH  26  28
HETATM   28  C   UNL     1     -11.027   8.586  70.500  1.00  0.00    -0.263 A  
HETATM   29  C   UNL     1     -11.176   6.214  71.239  1.00  0.00    -0.348 A  
HETATM   30  C   UNL     1     -11.007   7.190  70.233  1.00  0.00    -0.288 A  
HETATM   31  C   UNL     1     -11.186   8.931  71.845  1.00  0.00    -0.447 A  
HETATM   32  C   UNL     1     -11.347   6.608  72.560  1.00  0.00    -0.290 A  
HETATM   33  C   UNL     1     -11.344   7.971  72.861  1.00  0.00    -0.364 A  
ENDBRANCH  26  28
ENDBRANCH  25  26
ENDBRANCH   3  25
TORSDOF 9
ENDMDL
MODEL      198
REMARK 921   NORMALIZED FREE ENERGY PREDICTED BY IDOCK:   -5.00 KCAL/MOL
REMARK 922        TOTAL FREE ENERGY PREDICTED BY IDOCK:   -9.14 KCAL/MOL
REMARK 923 INTER-LIGAND FREE ENERGY PREDICTED BY IDOCK:   -8.28 KCAL/MOL
REMARK 924 INTRA-LIGAND FREE ENERGY PREDICTED BY IDOCK:   -0.87 KCAL/MOL
REMARK 927      BINDING AFFINITY PREDICTED BY RF-SCORE:    0.00 PKD
ROOT
HETATM    1  C   UNL     1      -7.525  14.352  67.633  1.00  0.00    -0.191 C  
HETATM    2  C   UNL     1      -9.045  14.523  67.472  1.00  0.00    -0.193 C  
HETATM    3  C   UNL     1      -9.695  15.426  68.266  1.00  0.00    -0.209 C  
ENDROOT
BRANCH   2   4
HETATM    4  N   UNL     1      -9.587  13.729  66.443  1.00  0.00    -0.284 N  
HETATM    5  C   UNL     1     -10.040  14.305  65.245  1.00  0.00    -0.349 C  
HETATM    6  O   UNL     1     -10.774  13.772  64.426  1.00  0.00    -0.407 OA 
BRANCH   4   7
HETATM    7  C   UNL     1     -10.178  12.411  66.762  1.00  0.00    -0.219 C  
BRANCH   7   8
HETATM    8  C   UNL     1      -9.307  11.229  66.376  1.00  0.00    -0.210 A  
HETATM    9  H2  UNL     1      -9.001  11.874  68.859  1.00  0.00     0.000 HD 
HETATM   10  C   UNL     1      -9.009  10.736  65.156  1.00  0.00    -0.198 A  
HETATM   11  N   UNL     1      -8.142   9.231  67.156  1.00  0.00    -0.109 NA 
HETATM   12  N   UNL     1      -8.512   9.480  64.860  1.00  0.00    -0.147 NA 
HETATM   13  H1  UNL     1      -8.171  10.420  69.427  1.00  0.00     0.000 HD 
HETATM   14  C   UNL     1      -7.876   7.284  65.638  1.00  0.00    -0.112 C  
HETATM   15  N   UNL     1      -8.609  10.951  68.673  1.00  0.00    -0.148 NA 
HETATM   16  C   UNL     1      -8.160   8.745  65.874  1.00  0.00    -0.110 A  
HETATM   17  C   UNL     1      -8.666  10.451  67.481  1.00  0.00    -0.125 A  
ENDBRANCH   7   8
ENDBRANCH   4   7
ENDBRANCH   2   4
BRANCH   3  18
HETATM   18  C   UNL     1      -8.858  16.515  69.073  1.00  0.00    -0.223 C  
BRANCH  18  19
HETATM   19  C   UNL     1      -7.641  17.181  68.321  1.00  0.00    -0.224 C  
BRANCH  19  20
HETATM   20  O   UNL     1      -7.971  18.308  67.426  1.00  0.00    -0.227 OA 
HETATM   21  O   UNL     1      -7.530  20.321  68.256  1.00  0.00    -0.246 OA 
HETATM   22  O   UNL     1      -7.428  19.842  65.869  1.00  0.00    -0.313 OA 
HETATM   23  P   UNL     1      -6.644  19.402  67.236  1.00  0.00    -0.186 P  
HETATM   24  O   UNL     1      -5.457  20.380  67.065  1.00  0.00    -0.167 OA 
ENDBRANCH  19  20
ENDBRANCH  18  19
ENDBRANCH   3  18
BRANCH   3  25
HETATM   25  S   UNL     1     -11.504  15.542  68.483  1.00  0.00    -0.365 SA 
BRANCH  25  26
HETATM   26  C   UNL     1     -12.049  15.151  70.166  1.00  0.00    -0.343 C  
HETATM   27  O   UNL     1     -12.082  16.014  71.035  1.00  0.00    -0.408 OA 
BRANCH  26  28
HETATM   28  C   UNL     1     -12.391  13.693  70.551  1.00  0.00    -0.425 A  
HETATM   29  C   UNL     1     -12.227  11.276  69.976  1.00  0.00    -0.389 A  
HETATM   30  C   UNL     1     -11.984  12.637  69.689  1.00  0.00    -0.352 A  
HETATM   31  C   UNL     1     -13.018  13.286  71.732  1.00  0.00    -0.430 A  
HETATM   32  C   UNL     1     -12.868  10.924  71.158  1.00  0.00    -0.508 A  
HETATM   33  C   UNL     1     -13.256  11.934  72.038  1.00  0.00    -0.461 A  
ENDBRANCH  26  28
ENDBRANCH  25  26
ENDBRANCH   3  25
TORSDOF 9
ENDMDL
MODEL      199
REMARK 921   NORMALIZED FREE ENERGY PREDICTED BY IDOCK:   -5.00 KCAL/MOL
REMARK 922        TOTAL FREE ENERGY PREDICTED BY IDOCK:   -9.14 KCAL/MOL
REMARK 923 INTER-LIGAND FREE ENERGY PREDICTED BY IDOCK:   -7.85 KCAL/MOL
REMARK 924 INTRA-LIGAND FREE ENERGY PREDICTED BY IDOCK:   -1.29 KCAL/MOL
REMARK 927      BINDING AFFINITY PREDICTED BY RF-SCORE:    0.00 PKD
ROOT
HETATM    1  C   UNL     1     -10.630   8.194  67.099  1.00  0.00    -0.355 C  
HETATM    2  C   UNL     1      -9.360   8.791  67.728  1.00  0.00    -0.141 C  
HETATM    3  C   UNL     1      -8.756   9.853  67.114  1.00  0.00    -0.131 C  
ENDROOT
BRANCH   2   4
HETATM    4  N   UNL     1      -8.997   8.172  68.940  1.00  0.00    -0.141 N  
HETATM    5  C   UNL     1      -9.033   6.775  69.079  1.00  0.00    -0.131 C  
HETATM    6  O   UNL     1      -9.023   6.160  70.135  1.00  0.00    -0.145 OA 
BRANCH   4   7
HETATM    7  C   UNL     1      -9.084   8.926  70.209  1.00  0.00    -0.181 C  
BRANCH   7   8
HETATM    8  C   UNL     1     -10.407   9.641  70.418  1.00  0.00    -0.350 A  
HETATM    9  H2  UNL     1     -10.396   7.309  71.528  1.00  0.00     0.000 HD 
HETATM   10  C   UNL     1     -10.891  10.754  69.826  1.00  0.00    -0.226 A  
HETATM   11  N   UNL     1     -12.386   9.872  71.828  1.00  0.00    -0.390 NA 
HETATM   12  N   UNL     1     -11.920  11.560  70.278  1.00  0.00    -0.355 NA 
HETATM   13  H1  UNL     1     -11.819   7.482  72.561  1.00  0.00     0.000 HD 
HETATM   14  C   UNL     1     -13.526  12.071  72.007  1.00  0.00    -0.364 C  
HETATM   15  N   UNL     1     -11.176   7.869  71.870  1.00  0.00    -0.258 NA 
HETATM   16  C   UNL     1     -12.588  11.124  71.305  1.00  0.00    -0.398 A  
HETATM   17  C   UNL     1     -11.350   9.074  71.429  1.00  0.00    -0.323 A  
ENDBRANCH   7   8
ENDBRANCH   4   7
ENDBRANCH   2   4
BRANCH   3  18
HETATM   18  C   UNL     1      -9.539  10.667  65.992  1.00  0.00    -0.244 C  
BRANCH  18  19
HETATM   19  C   UNL     1     -10.801  11.493  66.458  1.00  0.00    -0.288 C  
BRANCH  19  20
HETATM   20  O   UNL     1     -11.081  12.730  65.701  1.00  0.00    -0.271 OA 
HETATM   21  O   UNL     1     -10.747  12.580  63.511  1.00  0.00    -0.435 OA 
HETATM   22  O   UNL     1     -12.429  14.055  64.477  1.00  0.00    -0.593 OA 
HETATM   23  P   UNL     1     -12.137  12.450  64.360  1.00  0.00    -0.418 P  
HETATM   24  O   UNL     1     -13.081  12.199  63.159  1.00  0.00    -0.615 OA 
ENDBRANCH  19  20
ENDBRANCH  18  19
ENDBRANCH   3  18
BRANCH   3  25
HETATM   25  S   UNL     1      -7.084  10.485  67.486  1.00  0.00    -0.090 SA 
BRANCH  25  26
HETATM   26  C   UNL     1      -7.056  11.664  68.862  1.00  0.00    -0.115 C  
HETATM   27  O   UNL     1      -6.651  11.330  69.970  1.00  0.00    -0.139 OA 
BRANCH  26  28
HETATM   28  C   UNL     1      -7.633  13.086  68.678  1.00  0.00    -0.089 A  
HETATM   29  C   UNL     1      -7.175  15.512  68.351  1.00  0.00    -0.114 A  
HETATM   30  C   UNL     1      -6.737  14.184  68.553  1.00  0.00    -0.101 A  
HETATM   31  C   UNL     1      -8.986  13.407  68.548  1.00  0.00    -0.071 A  
HETATM   32  C   UNL     1      -8.534  15.781  68.243  1.00  0.00    -0.164 A  
HETATM   33  C   UNL     1      -9.438  14.722  68.335  1.00  0.00    -0.213 A  
ENDBRANCH  26  28
ENDBRANCH  25  26
ENDBRANCH   3  25
TORSDOF 9
ENDMDL
MODEL      200
REMARK 921   NORMALIZED FREE ENERGY PREDICTED BY IDOCK:   -5.00 KCAL/MOL
REMARK 922        TOTAL FREE ENERGY PREDICTED BY IDOCK:   -9.14 KCAL/MOL
REMARK 923 INTER-LIGAND FREE ENERGY PREDICTED BY IDOCK:   -8.01 KCAL/MOL
REMARK 924 INTRA-LIGAND FREE ENERGY PREDICTED BY IDOCK:   -1.13 KCAL/MOL
REMARK 927      BINDING AFFINITY PREDICTED BY RF-SCORE:    0.00 PKD
ROOT
HETATM    1  C   UNL     1      -8.551  11.041  65.895  1.00  0.00    -0.165 C  
HETATM    2  C   UNL     1      -7.928  11.726  67.122  1.00  0.00    -0.166 C  
HETATM    3  C   UNL     1      -8.081  13.076  67.273  1.00  0.00    -0.161 C  
ENDROOT
BRANCH   2   4
HETATM    4  N   UNL     1      -7.296  10.825  68.001  1.00  0.00    -0.087 N  
HETATM    5  C   UNL     1      -5.920  10.917  68.268  1.00  0.00    -0.046 C  
HETATM    6  O   UNL     1      -5.227  10.043  68.767  1.00  0.00    -0.036 OA 
BRANCH   4   7
HETATM    7  C   UNL     1      -7.887   9.490  68.239  1.00  0.00    -0.086 C  
BRANCH   7   8
HETATM    8  C   UNL     1      -8.755   9.408  69.482  1.00  0.00    -0.162 A  
HETATM    9  H2  UNL     1     -10.136  10.034  67.390  1.00  0.00     0.000 HD 
HETATM   10  C   UNL     1      -8.400   9.333  70.782  1.00  0.00    -0.186 A  
HETATM   11  N   UNL     1     -10.998   9.020  70.366  1.00  0.00    -0.241 NA 
HETATM   12  N   UNL     1      -9.185   8.914  71.840  1.00  0.00    -0.366 NA 
HETATM   13  H1  UNL     1     -11.759   9.737  68.025  1.00  0.00     0.000 HD 
HETATM   14  C   UNL     1     -11.281   7.994  72.609  1.00  0.00    -0.462 C  
HETATM   15  N   UNL     1     -10.747   9.747  68.155  1.00  0.00    -0.237 NA 
HETATM   16  C   UNL     1     -10.443   8.706  71.580  1.00  0.00    -0.274 A  
HETATM   17  C   UNL     1     -10.238   9.394  69.292  1.00  0.00    -0.202 A  
ENDBRANCH   7   8
ENDBRANCH   4   7
ENDBRANCH   2   4
BRANCH   3  18
HETATM   18  C   UNL     1      -9.167  13.850  66.402  1.00  0.00    -0.174 C  
BRANCH  18  19
HETATM   19  C   UNL     1     -10.661  13.787  66.905  1.00  0.00    -0.280 C  
BRANCH  19  20
HETATM   20  O   UNL     1     -11.592  12.998  66.073  1.00  0.00    -0.331 OA 
HETATM   21  O   UNL     1     -13.507  14.016  65.592  1.00  0.00    -0.604 OA 
HETATM   22  O   UNL     1     -12.474  12.399  64.090  1.00  0.00    -0.480 OA 
HETATM   23  P   UNL     1     -12.148  13.884  64.695  1.00  0.00    -0.427 P  
HETATM   24  O   UNL     1     -12.645  14.676  63.461  1.00  0.00    -0.705 OA 
ENDBRANCH  19  20
ENDBRANCH  18  19
ENDBRANCH   3  18
BRANCH   3  25
HETATM   25  S   UNL     1      -7.154  14.127  68.443  1.00  0.00    -0.117 SA 
BRANCH  25  26
HETATM   26  C   UNL     1      -8.109  15.546  69.041  1.00  0.00    -0.220 C  
HETATM   27  O   UNL     1      -9.244  15.402  69.480  1.00  0.00    -0.261 OA 
BRANCH  26  28
HETATM   28  C   UNL     1      -7.535  16.976  68.916  1.00  0.00    -0.237 A  
HETATM   29  C   UNL     1      -5.800  18.612  69.632  1.00  0.00    -0.259 A  
HETATM   30  C   UNL     1      -6.408  17.340  69.703  1.00  0.00    -0.207 A  
HETATM   31  C   UNL     1      -7.980  17.959  68.028  1.00  0.00    -0.250 A  
HETATM   32  C   UNL     1      -6.290  19.561  68.743  1.00  0.00    -0.292 A  
HETATM   33  C   UNL     1      -7.378  19.227  67.936  1.00  0.00    -0.289 A  
ENDBRANCH  26  28
ENDBRANCH  25  26
ENDBRANCH   3  25
TORSDOF 9
ENDMDL
MODEL      201
REMARK 921   NORMALIZED FREE ENERGY PREDICTED BY IDOCK:   -4.97 KCAL/MOL
REMARK 922        TOTAL FREE ENERGY PREDICTED BY IDOCK:   -9.10 KCAL/MOL
REMARK 923 INTER-LIGAND FREE ENERGY PREDICTED BY IDOCK:   -7.68 KCAL/MOL
REMARK 924 INTRA-LIGAND FREE ENERGY PREDICTED BY IDOCK:   -1.42 KCAL/MOL
REMARK 927      BINDING AFFINITY PREDICTED BY RF-SCORE:    0.00 PKD
ROOT
HETATM    1  C   UNL     1     -10.662  10.837  69.448  1.00  0.00    -0.272 C  
HETATM    2  C   UNL     1      -9.731   9.799  68.800  1.00  0.00    -0.161 C  
HETATM    3  C   UNL     1      -9.934   9.457  67.492  1.00  0.00    -0.199 C  
ENDROOT
BRANCH   2   4
HETATM    4  N   UNL     1      -8.710   9.353  69.662  1.00  0.00    -0.152 N  
HETATM    5  C   UNL     1      -7.442   9.956  69.655  1.00  0.00    -0.122 C  
HETATM    6  O   UNL     1      -6.421   9.483  70.132  1.00  0.00    -0.053 OA 
BRANCH   4   7
HETATM    7  C   UNL     1      -8.739   7.971  70.187  1.00  0.00    -0.135 C  
BRANCH   7   8
HETATM    8  C   UNL     1     -10.080   7.550  70.759  1.00  0.00    -0.192 A  
HETATM    9  H2  UNL     1      -8.631   8.769  72.516  1.00  0.00     0.000 HD 
HETATM   10  C   UNL     1     -11.013   6.715  70.253  1.00  0.00    -0.303 A  
HETATM   11  N   UNL     1     -11.795   7.991  72.439  1.00  0.00    -0.366 NA 
HETATM   12  N   UNL     1     -12.343   6.628  70.619  1.00  0.00    -0.247 NA 
HETATM   13  H1  UNL     1      -9.877   9.102  73.725  1.00  0.00     0.000 HD 
HETATM   14  C   UNL     1     -14.174   7.487  71.938  1.00  0.00    -0.477 C  
HETATM   15  N   UNL     1      -9.601   8.707  72.826  1.00  0.00    -0.195 NA 
HETATM   16  C   UNL     1     -12.703   7.323  71.658  1.00  0.00    -0.375 A  
HETATM   17  C   UNL     1     -10.484   8.128  72.077  1.00  0.00    -0.263 A  
ENDBRANCH   7   8
ENDBRANCH   4   7
ENDBRANCH   2   4
BRANCH   3  18
HETATM   18  C   UNL     1     -10.868  10.363  66.574  1.00  0.00    -0.098 C  
BRANCH  18  19
HETATM   19  C   UNL     1     -10.323  10.726  65.139  1.00  0.00    -0.271 C  
BRANCH  19  20
HETATM   20  O   UNL     1     -10.317  12.162  64.791  1.00  0.00    -0.271 OA 
HETATM   21  O   UNL     1     -11.890  12.781  63.350  1.00  0.00    -0.513 OA 
HETATM   22  O   UNL     1     -11.027  14.281  65.065  1.00  0.00    -0.344 OA 
HETATM   23  P   UNL     1     -11.877  12.886  64.980  1.00  0.00    -0.427 P  
HETATM   24  O   UNL     1     -13.273  13.534  65.150  1.00  0.00    -0.720 OA 
ENDBRANCH  19  20
ENDBRANCH  18  19
ENDBRANCH   3  18
BRANCH   3  25
HETATM   25  S   UNL     1      -9.186   8.027  66.639  1.00  0.00    -0.192 SA 
BRANCH  25  26
HETATM   26  C   UNL     1     -10.195   6.525  66.743  1.00  0.00    -0.191 C  
HETATM   27  O   UNL     1     -11.407   6.591  66.911  1.00  0.00    -0.330 OA 
BRANCH  26  28
HETATM   28  C   UNL     1      -9.521   5.134  66.714  1.00  0.00    -0.143 A  
HETATM   29  C   UNL     1      -7.870   3.623  65.623  1.00  0.00    -0.092 A  
HETATM   30  C   UNL     1      -8.557   4.854  65.707  1.00  0.00    -0.128 A  
HETATM   31  C   UNL     1      -9.716   4.113  67.648  1.00  0.00    -0.176 A  
HETATM   32  C   UNL     1      -8.111   2.633  66.569  1.00  0.00    -0.083 A  
HETATM   33  C   UNL     1      -9.032   2.886  67.586  1.00  0.00    -0.191 A  
ENDBRANCH  26  28
ENDBRANCH  25  26
ENDBRANCH   3  25
TORSDOF 9
ENDMDL
MODEL      202
REMARK 921   NORMALIZED FREE ENERGY PREDICTED BY IDOCK:   -4.97 KCAL/MOL
REMARK 922        TOTAL FREE ENERGY PREDICTED BY IDOCK:   -9.10 KCAL/MOL
REMARK 923 INTER-LIGAND FREE ENERGY PREDICTED BY IDOCK:   -7.70 KCAL/MOL
REMARK 924 INTRA-LIGAND FREE ENERGY PREDICTED BY IDOCK:   -1.40 KCAL/MOL
REMARK 927      BINDING AFFINITY PREDICTED BY RF-SCORE:    0.00 PKD
ROOT
HETATM    1  C   UNL     1      -9.644   8.759  71.825  1.00  0.00    -0.371 C  
HETATM    2  C   UNL     1     -10.238   8.636  70.412  1.00  0.00    -0.193 C  
HETATM    3  C   UNL     1      -9.590   9.238  69.369  1.00  0.00    -0.168 C  
ENDROOT
BRANCH   2   4
HETATM    4  N   UNL     1     -11.397   7.837  70.364  1.00  0.00    -0.248 N  
HETATM    5  C   UNL     1     -12.484   8.086  71.218  1.00  0.00    -0.253 C  
HETATM    6  O   UNL     1     -13.394   7.309  71.465  1.00  0.00    -0.379 OA 
BRANCH   4   7
HETATM    7  C   UNL     1     -11.320   6.455  69.842  1.00  0.00    -0.434 C  
BRANCH   7   8
HETATM    8  C   UNL     1     -10.431   5.532  70.655  1.00  0.00    -0.342 A  
HETATM    9  H2  UNL     1      -9.652   5.690  68.197  1.00  0.00     0.000 HD 
HETATM   10  C   UNL     1     -10.619   5.014  71.888  1.00  0.00    -0.154 A  
HETATM   11  N   UNL     1      -8.213   4.538  70.885  1.00  0.00    -0.086 NA 
HETATM   12  N   UNL     1      -9.658   4.475  72.723  1.00  0.00    -0.132 NA 
HETATM   13  H1  UNL     1      -8.040   4.985  68.367  1.00  0.00     0.000 HD 
HETATM   14  C   UNL     1      -7.327   4.001  73.142  1.00  0.00    -0.069 C  
HETATM   15  N   UNL     1      -8.927   5.273  68.781  1.00  0.00    -0.108 NA 
HETATM   16  C   UNL     1      -8.471   4.320  72.214  1.00  0.00    -0.104 A  
HETATM   17  C   UNL     1      -9.131   5.109  70.048  1.00  0.00    -0.123 A  
ENDBRANCH   7   8
ENDBRANCH   4   7
ENDBRANCH   2   4
BRANCH   3  18
HETATM   18  C   UNL     1      -8.091   9.740  69.555  1.00  0.00    -0.141 C  
BRANCH  18  19
HETATM   19  C   UNL     1      -7.531  10.734  68.465  1.00  0.00    -0.100 C  
BRANCH  19  20
HETATM   20  O   UNL     1      -7.061  12.044  68.962  1.00  0.00    -0.108 OA 
HETATM   21  O   UNL     1      -6.274  13.409  67.396  1.00  0.00    -0.297 OA 
HETATM   22  O   UNL     1      -7.363  14.228  69.416  1.00  0.00    -0.102 OA 
HETATM   23  P   UNL     1      -7.755  13.363  68.084  1.00  0.00    -0.171 P  
HETATM   24  O   UNL     1      -8.377  14.544  67.300  1.00  0.00    -0.190 OA 
ENDBRANCH  19  20
ENDBRANCH  18  19
ENDBRANCH   3  18
BRANCH   3  25
HETATM   25  S   UNL     1     -10.283   9.507  67.702  1.00  0.00    -0.236 SA 
BRANCH  25  26
HETATM   26  C   UNL     1     -11.381  10.945  67.608  1.00  0.00    -0.270 C  
HETATM   27  O   UNL     1     -12.082  11.266  68.561  1.00  0.00    -0.573 OA 
BRANCH  26  28
HETATM   28  C   UNL     1     -11.518  11.732  66.284  1.00  0.00    -0.296 A  
HETATM   29  C   UNL     1     -12.386  13.758  65.126  1.00  0.00    -0.476 A  
HETATM   30  C   UNL     1     -12.237  12.959  66.281  1.00  0.00    -0.340 A  
HETATM   31  C   UNL     1     -10.929  11.387  65.065  1.00  0.00    -0.271 A  
HETATM   32  C   UNL     1     -11.793  13.363  63.933  1.00  0.00    -0.492 A  
HETATM   33  C   UNL     1     -11.058  12.177  63.909  1.00  0.00    -0.470 A  
ENDBRANCH  26  28
ENDBRANCH  25  26
ENDBRANCH   3  25
TORSDOF 9
ENDMDL
MODEL      203
REMARK 921   NORMALIZED FREE ENERGY PREDICTED BY IDOCK:   -4.97 KCAL/MOL
REMARK 922        TOTAL FREE ENERGY PREDICTED BY IDOCK:   -9.09 KCAL/MOL
REMARK 923 INTER-LIGAND FREE ENERGY PREDICTED BY IDOCK:   -7.20 KCAL/MOL
REMARK 924 INTRA-LIGAND FREE ENERGY PREDICTED BY IDOCK:   -1.88 KCAL/MOL
REMARK 927      BINDING AFFINITY PREDICTED BY RF-SCORE:    0.00 PKD
ROOT
HETATM    1  C   UNL     1      -6.504  11.094  66.437  1.00  0.00    -0.109 C  
HETATM    2  C   UNL     1      -7.283   9.913  67.041  1.00  0.00    -0.090 C  
HETATM    3  C   UNL     1      -7.553   9.919  68.381  1.00  0.00    -0.083 C  
ENDROOT
BRANCH   2   4
HETATM    4  N   UNL     1      -7.684   8.963  66.082  1.00  0.00    -0.097 N  
HETATM    5  C   UNL     1      -6.797   8.521  65.086  1.00  0.00    -0.068 C  
HETATM    6  O   UNL     1      -7.108   7.939  64.058  1.00  0.00    -0.070 OA 
BRANCH   4   7
HETATM    7  C   UNL     1      -9.117   8.803  65.755  1.00  0.00    -0.212 C  
BRANCH   7   8
HETATM    8  C   UNL     1      -9.796  10.081  65.296  1.00  0.00    -0.388 A  
HETATM    9  H2  UNL     1     -10.732   9.259  67.560  1.00  0.00     0.000 HD 
HETATM   10  C   UNL     1      -9.760  10.697  64.096  1.00  0.00    -0.320 A  
HETATM   11  N   UNL     1     -10.993  12.097  65.978  1.00  0.00    -0.281 NA 
HETATM   12  N   UNL     1     -10.094  12.011  63.820  1.00  0.00    -0.383 NA 
HETATM   13  H1  UNL     1     -11.585  10.724  68.060  1.00  0.00     0.000 HD 
HETATM   14  C   UNL     1     -10.766  14.179  64.643  1.00  0.00    -0.408 C  
HETATM   15  N   UNL     1     -11.011  10.224  67.381  1.00  0.00    -0.284 NA 
HETATM   16  C   UNL     1     -10.636  12.685  64.791  1.00  0.00    -0.317 A  
HETATM   17  C   UNL     1     -10.637  10.814  66.292  1.00  0.00    -0.192 A  
ENDBRANCH   7   8
ENDBRANCH   4   7
ENDBRANCH   2   4
BRANCH   3  18
HETATM   18  C   UNL     1      -7.381  11.263  69.217  1.00  0.00    -0.068 C  
BRANCH  18  19
HETATM   19  C   UNL     1      -5.971  11.519  69.876  1.00  0.00    -0.130 C  
BRANCH  19  20
HETATM   20  O   UNL     1      -5.656  12.923  70.210  1.00  0.00    -0.120 OA 
HETATM   21  O   UNL     1      -5.221  14.224  68.463  1.00  0.00    -0.087 OA 
HETATM   22  O   UNL     1      -6.236  15.079  70.506  1.00  0.00    -0.134 OA 
HETATM   23  P   UNL     1      -6.612  14.041  69.299  1.00  0.00    -0.104 P  
HETATM   24  O   UNL     1      -7.468  15.041  68.484  1.00  0.00    -0.110 OA 
ENDBRANCH  19  20
ENDBRANCH  18  19
ENDBRANCH   3  18
BRANCH   3  25
HETATM   25  S   UNL     1      -8.147   8.491  69.351  1.00  0.00    -0.114 SA 
BRANCH  25  26
HETATM   26  C   UNL     1      -8.655   8.931  71.034  1.00  0.00    -0.206 C  
HETATM   27  O   UNL     1      -7.829   9.044  71.932  1.00  0.00    -0.345 OA 
BRANCH  26  28
HETATM   28  C   UNL     1     -10.155   9.078  71.378  1.00  0.00    -0.399 A  
HETATM   29  C   UNL     1     -12.293  10.288  70.973  1.00  0.00    -0.483 A  
HETATM   30  C   UNL     1     -10.913  10.100  70.743  1.00  0.00    -0.313 A  
HETATM   31  C   UNL     1     -10.884   8.239  72.225  1.00  0.00    -0.408 A  
HETATM   32  C   UNL     1     -12.970   9.435  71.837  1.00  0.00    -0.502 A  
HETATM   33  C   UNL     1     -12.261   8.405  72.457  1.00  0.00    -0.381 A  
ENDBRANCH  26  28
ENDBRANCH  25  26
ENDBRANCH   3  25
TORSDOF 9
ENDMDL
MODEL      204
REMARK 921   NORMALIZED FREE ENERGY PREDICTED BY IDOCK:   -4.96 KCAL/MOL
REMARK 922        TOTAL FREE ENERGY PREDICTED BY IDOCK:   -9.08 KCAL/MOL
REMARK 923 INTER-LIGAND FREE ENERGY PREDICTED BY IDOCK:   -7.82 KCAL/MOL
REMARK 924 INTRA-LIGAND FREE ENERGY PREDICTED BY IDOCK:   -1.26 KCAL/MOL
REMARK 927      BINDING AFFINITY PREDICTED BY RF-SCORE:    0.00 PKD
ROOT
HETATM    1  C   UNL     1     -11.018  10.342  67.454  1.00  0.00    -0.317 C  
HETATM    2  C   UNL     1     -10.480  11.193  66.291  1.00  0.00    -0.259 C  
HETATM    3  C   UNL     1     -11.079  12.392  66.019  1.00  0.00    -0.308 C  
ENDROOT
BRANCH   2   4
HETATM    4  N   UNL     1      -9.354  10.626  65.662  1.00  0.00    -0.190 N  
HETATM    5  C   UNL     1      -9.492   9.577  64.739  1.00  0.00    -0.108 C  
HETATM    6  O   UNL     1      -8.599   8.833  64.361  1.00  0.00    -0.164 OA 
BRANCH   4   7
HETATM    7  C   UNL     1      -8.025  10.720  66.304  1.00  0.00    -0.160 C  
BRANCH   7   8
HETATM    8  C   UNL     1      -7.918   9.975  67.622  1.00  0.00    -0.105 A  
HETATM    9  H2  UNL     1      -7.434  12.497  67.906  1.00  0.00     0.000 HD 
HETATM   10  C   UNL     1      -7.875   8.648  67.865  1.00  0.00    -0.103 A  
HETATM   11  N   UNL     1      -8.064  10.128  70.054  1.00  0.00    -0.133 NA 
HETATM   12  N   UNL     1      -8.126   8.009  69.066  1.00  0.00    -0.121 NA 
HETATM   13  H1  UNL     1      -7.557  12.610  69.666  1.00  0.00     0.000 HD 
HETATM   14  C   UNL     1      -8.823   8.165  71.372  1.00  0.00    -0.185 C  
HETATM   15  N   UNL     1      -7.598  12.055  68.811  1.00  0.00    -0.102 NA 
HETATM   16  C   UNL     1      -8.280   8.775  70.106  1.00  0.00    -0.117 A  
HETATM   17  C   UNL     1      -7.857  10.789  68.875  1.00  0.00    -0.136 A  
ENDBRANCH   7   8
ENDBRANCH   4   7
ENDBRANCH   2   4
BRANCH   3  18
HETATM   18  C   UNL     1     -12.061  13.045  67.089  1.00  0.00    -0.325 C  
BRANCH  18  19
HETATM   19  C   UNL     1     -11.396  13.878  68.253  1.00  0.00    -0.294 C  
BRANCH  19  20
HETATM   20  O   UNL     1     -11.835  13.543  69.623  1.00  0.00    -0.300 OA 
HETATM   21  O   UNL     1     -11.151  14.955  71.195  1.00  0.00    -0.209 OA 
HETATM   22  O   UNL     1     -13.251  13.732  71.363  1.00  0.00    -0.336 OA 
HETATM   23  P   UNL     1     -12.585  14.886  70.415  1.00  0.00    -0.292 P  
HETATM   24  O   UNL     1     -13.256  16.087  71.124  1.00  0.00    -0.390 OA 
ENDBRANCH  19  20
ENDBRANCH  18  19
ENDBRANCH   3  18
BRANCH   3  25
HETATM   25  S   UNL     1     -10.834  13.382  64.505  1.00  0.00    -0.408 SA 
BRANCH  25  26
HETATM   26  C   UNL     1     -11.139  15.151  64.751  1.00  0.00    -0.382 C  
HETATM   27  O   UNL     1     -12.058  15.719  64.172  1.00  0.00    -0.547 OA 
BRANCH  26  28
HETATM   28  C   UNL     1     -10.180  15.989  65.629  1.00  0.00    -0.412 A  
HETATM   29  C   UNL     1      -9.685  18.186  66.689  1.00  0.00    -0.334 A  
HETATM   30  C   UNL     1     -10.487  17.355  65.876  1.00  0.00    -0.256 A  
HETATM   31  C   UNL     1      -9.042  15.508  66.282  1.00  0.00    -0.369 A  
HETATM   32  C   UNL     1      -8.554  17.664  67.305  1.00  0.00    -0.238 A  
HETATM   33  C   UNL     1      -8.239  16.320  67.104  1.00  0.00    -0.219 A  
ENDBRANCH  26  28
ENDBRANCH  25  26
ENDBRANCH   3  25
TORSDOF 9
ENDMDL
MODEL      205
REMARK 921   NORMALIZED FREE ENERGY PREDICTED BY IDOCK:   -4.96 KCAL/MOL
REMARK 922        TOTAL FREE ENERGY PREDICTED BY IDOCK:   -9.08 KCAL/MOL
REMARK 923 INTER-LIGAND FREE ENERGY PREDICTED BY IDOCK:   -8.45 KCAL/MOL
REMARK 924 INTRA-LIGAND FREE ENERGY PREDICTED BY IDOCK:   -0.63 KCAL/MOL
REMARK 927      BINDING AFFINITY PREDICTED BY RF-SCORE:    0.00 PKD
ROOT
HETATM    1  C   UNL     1     -11.313  15.777  64.447  1.00  0.00    -0.274 C  
HETATM    2  C   UNL     1     -11.021  14.720  65.526  1.00  0.00    -0.346 C  
HETATM    3  C   UNL     1     -10.348  15.099  66.655  1.00  0.00    -0.274 C  
ENDROOT
BRANCH   2   4
HETATM    4  N   UNL     1     -11.554  13.453  65.221  1.00  0.00    -0.301 N  
HETATM    5  C   UNL     1     -12.122  13.189  63.964  1.00  0.00    -0.446 C  
HETATM    6  O   UNL     1     -12.856  12.250  63.692  1.00  0.00    -0.753 OA 
BRANCH   4   7
HETATM    7  C   UNL     1     -12.015  12.566  66.311  1.00  0.00    -0.343 C  
BRANCH   7   8
HETATM    8  C   UNL     1     -11.135  11.351  66.538  1.00  0.00    -0.312 A  
HETATM    9  H2  UNL     1     -12.359  12.062  68.699  1.00  0.00     0.000 HD 
HETATM   10  C   UNL     1     -10.182  10.813  65.748  1.00  0.00    -0.257 A  
HETATM   11  N   UNL     1     -10.752   9.347  67.880  1.00  0.00    -0.238 NA 
HETATM   12  N   UNL     1      -9.656   9.536  65.822  1.00  0.00    -0.253 NA 
HETATM   13  H1  UNL     1     -12.095  10.605  69.665  1.00  0.00     0.000 HD 
HETATM   14  C   UNL     1      -9.702   7.350  66.845  1.00  0.00    -0.265 C  
HETATM   15  N   UNL     1     -11.970  11.124  68.795  1.00  0.00    -0.523 NA 
HETATM   16  C   UNL     1     -10.014   8.823  66.850  1.00  0.00    -0.257 A  
HETATM   17  C   UNL     1     -11.317  10.591  67.813  1.00  0.00    -0.190 A  
ENDBRANCH   7   8
ENDBRANCH   4   7
ENDBRANCH   2   4
BRANCH   3  18
HETATM   18  C   UNL     1     -10.192  16.646  67.000  1.00  0.00    -0.290 C  
BRANCH  18  19
HETATM   19  C   UNL     1      -8.941  17.390  66.392  1.00  0.00    -0.246 C  
BRANCH  19  20
HETATM   20  O   UNL     1      -9.012  18.866  66.373  1.00  0.00    -0.317 OA 
HETATM   21  O   UNL     1     -10.982  19.714  66.948  1.00  0.00    -0.452 OA 
HETATM   22  O   UNL     1      -8.886  20.880  67.373  1.00  0.00    -0.249 OA 
HETATM   23  P   UNL     1      -9.638  19.509  67.852  1.00  0.00    -0.392 P  
HETATM   24  O   UNL     1     -10.198  20.084  69.176  1.00  0.00    -0.376 OA 
ENDBRANCH  19  20
ENDBRANCH  18  19
ENDBRANCH   3  18
BRANCH   3  25
HETATM   25  S   UNL     1      -9.606  13.966  67.879  1.00  0.00    -0.234 SA 
BRANCH  25  26
HETATM   26  C   UNL     1      -7.808  13.813  67.713  1.00  0.00    -0.172 C  
HETATM   27  O   UNL     1      -7.159  14.646  67.092  1.00  0.00    -0.180 OA 
BRANCH  26  28
HETATM   28  C   UNL     1      -7.080  12.571  68.278  1.00  0.00    -0.104 A  
HETATM   29  C   UNL     1      -5.641  11.617  70.072  1.00  0.00    -0.114 A  
HETATM   30  C   UNL     1      -6.314  12.703  69.469  1.00  0.00    -0.111 A  
HETATM   31  C   UNL     1      -7.156  11.276  67.761  1.00  0.00    -0.087 A  
HETATM   32  C   UNL     1      -5.736  10.349  69.510  1.00  0.00    -0.038 A  
HETATM   33  C   UNL     1      -6.502  10.181  68.356  1.00  0.00    -0.053 A  
ENDBRANCH  26  28
ENDBRANCH  25  26
ENDBRANCH   3  25
TORSDOF 9
ENDMDL
MODEL      206
REMARK 921   NORMALIZED FREE ENERGY PREDICTED BY IDOCK:   -4.94 KCAL/MOL
REMARK 922        TOTAL FREE ENERGY PREDICTED BY IDOCK:   -9.05 KCAL/MOL
REMARK 923 INTER-LIGAND FREE ENERGY PREDICTED BY IDOCK:   -8.31 KCAL/MOL
REMARK 924 INTRA-LIGAND FREE ENERGY PREDICTED BY IDOCK:   -0.75 KCAL/MOL
REMARK 927      BINDING AFFINITY PREDICTED BY RF-SCORE:    0.00 PKD
ROOT
HETATM    1  C   UNL     1      -9.226  11.214  68.608  1.00  0.00    -0.173 C  
HETATM    2  C   UNL     1      -9.149  12.484  67.743  1.00  0.00    -0.191 C  
HETATM    3  C   UNL     1      -8.069  13.310  67.879  1.00  0.00    -0.159 C  
ENDROOT
BRANCH   2   4
HETATM    4  N   UNL     1     -10.226  12.609  66.844  1.00  0.00    -0.233 N  
HETATM    5  C   UNL     1     -10.074  13.284  65.622  1.00  0.00    -0.272 C  
HETATM    6  O   UNL     1     -10.981  13.698  64.914  1.00  0.00    -0.329 OA 
BRANCH   4   7
HETATM    7  C   UNL     1     -11.616  12.528  67.341  1.00  0.00    -0.370 C  
BRANCH   7   8
HETATM    8  C   UNL     1     -11.934  13.502  68.461  1.00  0.00    -0.379 A  
HETATM    9  H2  UNL     1     -12.380  11.056  69.165  1.00  0.00     0.000 HD 
HETATM   10  C   UNL     1     -12.050  14.846  68.430  1.00  0.00    -0.131 A  
HETATM   11  N   UNL     1     -12.136  13.822  70.873  1.00  0.00    -0.331 NA 
HETATM   12  N   UNL     1     -11.993  15.715  69.505  1.00  0.00    -0.369 NA 
HETATM   13  H1  UNL     1     -12.510  11.287  70.913  1.00  0.00     0.000 HD 
HETATM   14  C   UNL     1     -11.632  16.040  71.870  1.00  0.00    -0.524 C  
HETATM   15  N   UNL     1     -12.362  11.671  69.979  1.00  0.00    -0.226 NA 
HETATM   16  C   UNL     1     -11.969  15.171  70.686  1.00  0.00    -0.324 A  
HETATM   17  C   UNL     1     -12.151  12.939  69.829  1.00  0.00    -0.245 A  
ENDBRANCH   7   8
ENDBRANCH   4   7
ENDBRANCH   2   4
BRANCH   3  18
HETATM   18  C   UNL     1      -6.769  12.793  68.641  1.00  0.00    -0.088 C  
BRANCH  18  19
HETATM   19  C   UNL     1      -6.041  11.531  68.033  1.00  0.00    -0.046 C  
BRANCH  19  20
HETATM   20  O   UNL     1      -5.322  10.672  68.996  1.00  0.00    -0.042 OA 
HETATM   21  O   UNL     1      -5.732  11.118  71.133  1.00  0.00    -0.331 OA 
HETATM   22  O   UNL     1      -5.184   8.878  70.349  1.00  0.00    -0.021 OA 
HETATM   23  P   UNL     1      -6.385   9.973  70.168  1.00  0.00    -0.123 P  
HETATM   24  O   UNL     1      -7.337   9.348  71.217  1.00  0.00    -0.310 OA 
ENDBRANCH  19  20
ENDBRANCH  18  19
ENDBRANCH   3  18
BRANCH   3  25
HETATM   25  S   UNL     1      -7.940  15.008  67.221  1.00  0.00    -0.206 SA 
BRANCH  25  26
HETATM   26  C   UNL     1      -8.602  16.263  68.349  1.00  0.00    -0.200 C  
HETATM   27  O   UNL     1      -8.710  16.038  69.549  1.00  0.00    -0.216 OA 
BRANCH  26  28
HETATM   28  C   UNL     1      -9.127  17.606  67.792  1.00  0.00    -0.247 A  
HETATM   29  C   UNL     1      -9.124  20.091  67.953  1.00  0.00    -0.377 A  
HETATM   30  C   UNL     1      -8.718  18.819  68.412  1.00  0.00    -0.369 A  
HETATM   31  C   UNL     1      -9.935  17.761  66.662  1.00  0.00    -0.338 A  
HETATM   32  C   UNL     1      -9.940  20.191  66.833  1.00  0.00    -0.600 A  
HETATM   33  C   UNL     1     -10.339  19.021  66.185  1.00  0.00    -0.537 A  
ENDBRANCH  26  28
ENDBRANCH  25  26
ENDBRANCH   3  25
TORSDOF 9
ENDMDL
MODEL      207
REMARK 921   NORMALIZED FREE ENERGY PREDICTED BY IDOCK:   -4.94 KCAL/MOL
REMARK 922        TOTAL FREE ENERGY PREDICTED BY IDOCK:   -9.05 KCAL/MOL
REMARK 923 INTER-LIGAND FREE ENERGY PREDICTED BY IDOCK:   -8.08 KCAL/MOL
REMARK 924 INTRA-LIGAND FREE ENERGY PREDICTED BY IDOCK:   -0.97 KCAL/MOL
REMARK 927      BINDING AFFINITY PREDICTED BY RF-SCORE:    0.00 PKD
ROOT
HETATM    1  C   UNL     1     -12.220  14.538  67.260  1.00  0.00    -0.177 C  
HETATM    2  C   UNL     1     -11.239  14.887  68.392  1.00  0.00    -0.292 C  
HETATM    3  C   UNL     1      -9.896  14.852  68.134  1.00  0.00    -0.218 C  
ENDROOT
BRANCH   2   4
HETATM    4  N   UNL     1     -11.880  15.267  69.587  1.00  0.00    -0.320 N  
HETATM    5  C   UNL     1     -11.205  16.014  70.565  1.00  0.00    -0.378 C  
HETATM    6  O   UNL     1     -11.551  16.148  71.730  1.00  0.00    -0.459 OA 
BRANCH   4   7
HETATM    7  C   UNL     1     -13.033  14.486  70.086  1.00  0.00    -0.003 C  
BRANCH   7   8
HETATM    8  C   UNL     1     -12.672  13.103  70.598  1.00  0.00    -0.203 A  
HETATM    9  H2  UNL     1     -14.026  14.446  72.341  1.00  0.00     0.000 HD 
HETATM   10  C   UNL     1     -11.804  12.196  70.102  1.00  0.00    -0.287 A  
HETATM   11  N   UNL     1     -13.268  11.284  72.113  1.00  0.00    -0.377 NA 
HETATM   12  N   UNL     1     -11.758  10.843  70.382  1.00  0.00    -0.331 NA 
HETATM   13  H1  UNL     1     -14.471  13.126  73.429  1.00  0.00     0.000 HD 
HETATM   14  C   UNL     1     -12.741   8.938  71.494  1.00  0.00    -0.386 C  
HETATM   15  N   UNL     1     -13.998  13.456  72.587  1.00  0.00    -0.743 NA 
HETATM   16  C   UNL     1     -12.542  10.422  71.331  1.00  0.00    -0.434 A  
HETATM   17  C   UNL     1     -13.364  12.619  71.832  1.00  0.00    -0.387 A  
ENDBRANCH   7   8
ENDBRANCH   4   7
ENDBRANCH   2   4
BRANCH   3  18
HETATM   18  C   UNL     1      -9.382  14.803  66.628  1.00  0.00    -0.291 C  
BRANCH  18  19
HETATM   19  C   UNL     1      -9.105  16.188  65.923  1.00  0.00    -0.233 C  
BRANCH  19  20
HETATM   20  O   UNL     1      -8.726  17.304  66.814  1.00  0.00    -0.229 OA 
HETATM   21  O   UNL     1      -8.849  19.320  65.889  1.00  0.00    -0.440 OA 
HETATM   22  O   UNL     1      -9.223  18.950  68.268  1.00  0.00    -0.306 OA 
HETATM   23  P   UNL     1      -9.926  18.550  66.846  1.00  0.00    -0.397 P  
HETATM   24  O   UNL     1     -11.000  19.665  66.876  1.00  0.00    -0.452 OA 
ENDBRANCH  19  20
ENDBRANCH  18  19
ENDBRANCH   3  18
BRANCH   3  25
HETATM   25  S   UNL     1      -8.572  14.891  69.390  1.00  0.00     0.020 SA 
BRANCH  25  26
HETATM   26  C   UNL     1      -7.092  13.969  68.897  1.00  0.00    -0.111 C  
HETATM   27  O   UNL     1      -6.135  14.540  68.387  1.00  0.00    -0.086 OA 
BRANCH  26  28
HETATM   28  C   UNL     1      -7.057  12.429  69.028  1.00  0.00    -0.041 A  
HETATM   29  C   UNL     1      -7.962  10.236  68.271  1.00  0.00    -0.106 A  
HETATM   30  C   UNL     1      -7.946  11.648  68.239  1.00  0.00    -0.143 A  
HETATM   31  C   UNL     1      -6.166  11.697  69.817  1.00  0.00    -0.139 A  
HETATM   32  C   UNL     1      -7.065   9.555  69.085  1.00  0.00    -0.062 A  
HETATM   33  C   UNL     1      -6.161  10.291  69.852  1.00  0.00    -0.070 A  
ENDBRANCH  26  28
ENDBRANCH  25  26
ENDBRANCH   3  25
TORSDOF 9
ENDMDL
MODEL      208
REMARK 921   NORMALIZED FREE ENERGY PREDICTED BY IDOCK:   -4.94 KCAL/MOL
REMARK 922        TOTAL FREE ENERGY PREDICTED BY IDOCK:   -9.05 KCAL/MOL
REMARK 923 INTER-LIGAND FREE ENERGY PREDICTED BY IDOCK:   -7.81 KCAL/MOL
REMARK 924 INTRA-LIGAND FREE ENERGY PREDICTED BY IDOCK:   -1.23 KCAL/MOL
REMARK 927      BINDING AFFINITY PREDICTED BY RF-SCORE:    0.00 PKD
ROOT
HETATM    1  C   UNL     1     -12.034  12.012  69.038  1.00  0.00    -0.321 C  
HETATM    2  C   UNL     1     -11.419  10.606  68.942  1.00  0.00    -0.265 C  
HETATM    3  C   UNL     1     -10.921  10.184  67.741  1.00  0.00    -0.277 C  
ENDROOT
BRANCH   2   4
HETATM    4  N   UNL     1     -11.398   9.923  70.174  1.00  0.00    -0.266 N  
HETATM    5  C   UNL     1     -12.423  10.102  71.118  1.00  0.00    -0.387 C  
HETATM    6  O   UNL     1     -12.367   9.800  72.301  1.00  0.00    -0.248 OA 
BRANCH   4   7
HETATM    7  C   UNL     1     -10.115   9.446  70.732  1.00  0.00    -0.298 C  
BRANCH   7   8
HETATM    8  C   UNL     1     -10.148   8.014  71.233  1.00  0.00    -0.222 A  
HETATM    9  H2  UNL     1      -8.461   9.451  72.559  1.00  0.00     0.000 HD 
HETATM   10  C   UNL     1     -10.712   6.918  70.682  1.00  0.00    -0.236 A  
HETATM   11  N   UNL     1      -9.766   6.518  73.124  1.00  0.00    -0.154 NA 
HETATM   12  N   UNL     1     -11.023   5.729  71.316  1.00  0.00    -0.256 NA 
HETATM   13  H1  UNL     1      -8.196   8.375  73.936  1.00  0.00     0.000 HD 
HETATM   14  C   UNL     1     -11.132   4.459  73.367  1.00  0.00    -0.394 C  
HETATM   15  N   UNL     1      -8.653   8.576  73.047  1.00  0.00    -0.386 NA 
HETATM   16  C   UNL     1     -10.598   5.598  72.539  1.00  0.00    -0.224 A  
HETATM   17  C   UNL     1      -9.478   7.719  72.536  1.00  0.00    -0.181 A  
ENDBRANCH   7   8
ENDBRANCH   4   7
ENDBRANCH   2   4
BRANCH   3  18
HETATM   18  C   UNL     1     -10.662  11.241  66.578  1.00  0.00    -0.323 C  
BRANCH  18  19
HETATM   19  C   UNL     1      -9.504  12.287  66.809  1.00  0.00    -0.222 C  
BRANCH  19  20
HETATM   20  O   UNL     1      -9.774  13.665  66.348  1.00  0.00    -0.282 OA 
HETATM   21  O   UNL     1     -10.549  13.820  64.272  1.00  0.00    -0.367 OA 
HETATM   22  O   UNL     1     -11.141  15.421  66.010  1.00  0.00    -0.313 OA 
HETATM   23  P   UNL     1     -11.364  13.833  65.688  1.00  0.00    -0.322 P  
HETATM   24  O   UNL     1     -12.787  13.984  65.098  1.00  0.00    -0.696 OA 
ENDBRANCH  19  20
ENDBRANCH  18  19
ENDBRANCH   3  18
BRANCH   3  25
HETATM   25  S   UNL     1     -10.470   8.465  67.322  1.00  0.00    -0.266 SA 
BRANCH  25  26
HETATM   26  C   UNL     1      -8.680   8.192  67.256  1.00  0.00    -0.124 C  
HETATM   27  O   UNL     1      -8.069   7.776  68.234  1.00  0.00    -0.120 OA 
BRANCH  26  28
HETATM   28  C   UNL     1      -7.883   8.573  65.987  1.00  0.00    -0.098 A  
HETATM   29  C   UNL     1      -7.490   8.183  63.559  1.00  0.00    -0.121 A  
HETATM   30  C   UNL     1      -8.147   7.881  64.773  1.00  0.00    -0.141 A  
HETATM   31  C   UNL     1      -6.948   9.607  65.889  1.00  0.00    -0.097 A  
HETATM   32  C   UNL     1      -6.557   9.212  63.518  1.00  0.00    -0.090 A  
HETATM   33  C   UNL     1      -6.293   9.927  64.686  1.00  0.00    -0.117 A  
ENDBRANCH  26  28
ENDBRANCH  25  26
ENDBRANCH   3  25
TORSDOF 9
ENDMDL
MODEL      209
REMARK 921   NORMALIZED FREE ENERGY PREDICTED BY IDOCK:   -4.93 KCAL/MOL
REMARK 922        TOTAL FREE ENERGY PREDICTED BY IDOCK:   -9.03 KCAL/MOL
REMARK 923 INTER-LIGAND FREE ENERGY PREDICTED BY IDOCK:   -7.12 KCAL/MOL
REMARK 924 INTRA-LIGAND FREE ENERGY PREDICTED BY IDOCK:   -1.91 KCAL/MOL
REMARK 927      BINDING AFFINITY PREDICTED BY RF-SCORE:    0.00 PKD
ROOT
HETATM    1  C   UNL     1      -6.594   8.450  68.943  1.00  0.00    -0.053 C  
HETATM    2  C   UNL     1      -8.074   8.662  68.583  1.00  0.00    -0.117 C  
HETATM    3  C   UNL     1      -8.990   8.769  69.593  1.00  0.00    -0.145 C  
ENDROOT
BRANCH   2   4
HETATM    4  N   UNL     1      -8.298   8.776  67.197  1.00  0.00    -0.104 N  
HETATM    5  C   UNL     1      -8.742   7.679  66.442  1.00  0.00    -0.151 C  
HETATM    6  O   UNL     1      -8.693   7.579  65.225  1.00  0.00    -0.066 OA 
BRANCH   4   7
HETATM    7  C   UNL     1      -7.598   9.823  66.421  1.00  0.00    -0.099 C  
BRANCH   7   8
HETATM    8  C   UNL     1      -8.390  11.107  66.253  1.00  0.00    -0.163 A  
HETATM    9  H2  UNL     1      -8.352   9.715  64.077  1.00  0.00     0.000 HD 
HETATM   10  C   UNL     1      -8.464  12.189  67.057  1.00  0.00    -0.183 A  
HETATM   11  N   UNL     1     -10.174  12.243  65.033  1.00  0.00    -0.283 NA 
HETATM   12  N   UNL     1      -9.441  13.168  67.053  1.00  0.00    -0.234 NA 
HETATM   13  H1  UNL     1      -9.654  10.528  63.200  1.00  0.00     0.000 HD 
HETATM   14  C   UNL     1     -11.537  13.979  66.171  1.00  0.00    -0.374 C  
HETATM   15  N   UNL     1      -9.071  10.437  64.033  1.00  0.00    -0.220 NA 
HETATM   16  C   UNL     1     -10.302  13.120  66.079  1.00  0.00    -0.287 A  
HETATM   17  C   UNL     1      -9.244  11.240  65.033  1.00  0.00    -0.129 A  
ENDBRANCH   7   8
ENDBRANCH   4   7
ENDBRANCH   2   4
BRANCH   3  18
HETATM   18  C   UNL     1      -8.495   9.025  71.084  1.00  0.00    -0.234 C  
BRANCH  18  19
HETATM   19  C   UNL     1      -9.481   8.612  72.244  1.00  0.00    -0.265 C  
BRANCH  19  20
HETATM   20  O   UNL     1      -9.124   7.388  72.993  1.00  0.00    -0.135 OA 
HETATM   21  O   UNL     1     -10.766   5.907  73.197  1.00  0.00    -0.232 OA 
HETATM   22  O   UNL     1      -8.422   5.252  73.100  1.00  0.00    -0.114 OA 
HETATM   23  P   UNL     1      -9.535   5.949  72.125  1.00  0.00    -0.146 P  
HETATM   24  O   UNL     1      -9.902   4.661  71.348  1.00  0.00    -0.175 OA 
ENDBRANCH  19  20
ENDBRANCH  18  19
ENDBRANCH   3  18
BRANCH   3  25
HETATM   25  S   UNL     1     -10.802   8.678  69.397  1.00  0.00    -0.020 SA 
BRANCH  25  26
HETATM   26  C   UNL     1     -11.535  10.223  68.798  1.00  0.00    -0.113 C  
HETATM   27  O   UNL     1     -11.547  10.493  67.602  1.00  0.00    -0.447 OA 
BRANCH  26  28
HETATM   28  C   UNL     1     -12.072  11.268  69.803  1.00  0.00    -0.394 A  
HETATM   29  C   UNL     1     -13.240  11.700  71.959  1.00  0.00    -0.443 A  
HETATM   30  C   UNL     1     -12.744  10.819  70.973  1.00  0.00    -0.513 A  
HETATM   31  C   UNL     1     -11.899  12.652  69.712  1.00  0.00    -0.379 A  
HETATM   32  C   UNL     1     -13.055  13.070  71.815  1.00  0.00    -0.469 A  
HETATM   33  C   UNL     1     -12.376  13.542  70.691  1.00  0.00    -0.432 A  
ENDBRANCH  26  28
ENDBRANCH  25  26
ENDBRANCH   3  25
TORSDOF 9
ENDMDL
MODEL      210
REMARK 921   NORMALIZED FREE ENERGY PREDICTED BY IDOCK:   -4.92 KCAL/MOL
REMARK 922        TOTAL FREE ENERGY PREDICTED BY IDOCK:   -9.02 KCAL/MOL
REMARK 923 INTER-LIGAND FREE ENERGY PREDICTED BY IDOCK:   -7.70 KCAL/MOL
REMARK 924 INTRA-LIGAND FREE ENERGY PREDICTED BY IDOCK:   -1.32 KCAL/MOL
REMARK 927      BINDING AFFINITY PREDICTED BY RF-SCORE:    0.00 PKD
ROOT
HETATM    1  C   UNL     1     -10.509   9.101  66.792  1.00  0.00    -0.266 C  
HETATM    2  C   UNL     1      -9.667   9.202  68.076  1.00  0.00    -0.154 C  
HETATM    3  C   UNL     1      -8.697  10.162  68.153  1.00  0.00    -0.122 C  
ENDROOT
BRANCH   2   4
HETATM    4  N   UNL     1     -10.059   8.285  69.070  1.00  0.00    -0.197 N  
HETATM    5  C   UNL     1     -10.769   7.119  68.742  1.00  0.00    -0.169 C  
HETATM    6  O   UNL     1     -11.397   6.419  69.523  1.00  0.00    -0.390 OA 
BRANCH   4   7
HETATM    7  C   UNL     1     -10.220   8.739  70.469  1.00  0.00    -0.202 C  
BRANCH   7   8
HETATM    8  C   UNL     1     -11.300   9.788  70.663  1.00  0.00    -0.401 A  
HETATM    9  H2  UNL     1     -11.948   7.536  71.751  1.00  0.00     0.000 HD 
HETATM   10  C   UNL     1     -11.450  10.993  70.074  1.00  0.00    -0.314 A  
HETATM   11  N   UNL     1     -13.165  10.545  72.043  1.00  0.00    -0.449 NA 
HETATM   12  N   UNL     1     -12.227  12.048  70.516  1.00  0.00    -0.361 NA 
HETATM   13  H1  UNL     1     -13.288   8.088  72.762  1.00  0.00     0.000 HD 
HETATM   14  C   UNL     1     -13.663  12.971  72.224  1.00  0.00    -0.608 C  
HETATM   15  N   UNL     1     -12.551   8.287  72.086  1.00  0.00    -0.339 NA 
HETATM   16  C   UNL     1     -13.007  11.806  71.529  1.00  0.00    -0.341 A  
HETATM   17  C   UNL     1     -12.381   9.495  71.653  1.00  0.00    -0.398 A  
ENDBRANCH   7   8
ENDBRANCH   4   7
ENDBRANCH   2   4
BRANCH   3  18
HETATM   18  C   UNL     1      -8.682  11.358  67.102  1.00  0.00    -0.155 C  
BRANCH  18  19
HETATM   19  C   UNL     1      -9.406  12.693  67.529  1.00  0.00    -0.188 C  
BRANCH  19  20
HETATM   20  O   UNL     1     -10.791  12.863  67.044  1.00  0.00    -0.255 OA 
HETATM   21  O   UNL     1     -11.067  14.490  65.557  1.00  0.00    -0.316 OA 
HETATM   22  O   UNL     1     -12.446  12.481  65.565  1.00  0.00    -0.646 OA 
HETATM   23  P   UNL     1     -10.880  12.885  65.316  1.00  0.00    -0.313 P  
HETATM   24  O   UNL     1     -10.960  12.904  63.770  1.00  0.00    -0.413 OA 
ENDBRANCH  19  20
ENDBRANCH  18  19
ENDBRANCH   3  18
BRANCH   3  25
HETATM   25  S   UNL     1      -7.378  10.239  69.413  1.00  0.00    -0.130 SA 
BRANCH  25  26
HETATM   26  C   UNL     1      -6.583   8.639  69.714  1.00  0.00    -0.042 C  
HETATM   27  O   UNL     1      -5.878   8.115  68.860  1.00  0.00    -0.034 OA 
BRANCH  26  28
HETATM   28  C   UNL     1      -6.863   7.868  71.025  1.00  0.00    -0.041 A  
HETATM   29  C   UNL     1      -7.450   5.702  72.102  1.00  0.00    -0.099 A  
HETATM   30  C   UNL     1      -7.208   6.491  70.956  1.00  0.00    -0.078 A  
HETATM   31  C   UNL     1      -6.740   8.385  72.317  1.00  0.00    -0.097 A  
HETATM   32  C   UNL     1      -7.329   6.267  73.365  1.00  0.00    -0.087 A  
HETATM   33  C   UNL     1      -6.966   7.610  73.469  1.00  0.00    -0.097 A  
ENDBRANCH  26  28
ENDBRANCH  25  26
ENDBRANCH   3  25
TORSDOF 9
ENDMDL
MODEL      211
REMARK 921   NORMALIZED FREE ENERGY PREDICTED BY IDOCK:   -4.92 KCAL/MOL
REMARK 922        TOTAL FREE ENERGY PREDICTED BY IDOCK:   -9.02 KCAL/MOL
REMARK 923 INTER-LIGAND FREE ENERGY PREDICTED BY IDOCK:   -8.24 KCAL/MOL
REMARK 924 INTRA-LIGAND FREE ENERGY PREDICTED BY IDOCK:   -0.79 KCAL/MOL
REMARK 927      BINDING AFFINITY PREDICTED BY RF-SCORE:    0.00 PKD
ROOT
HETATM    1  C   UNL     1      -7.584  12.256  66.868  1.00  0.00     0.001 C  
HETATM    2  C   UNL     1      -8.903  12.679  67.536  1.00  0.00    -0.186 C  
HETATM    3  C   UNL     1      -9.945  11.794  67.557  1.00  0.00    -0.192 C  
ENDROOT
BRANCH   2   4
HETATM    4  N   UNL     1      -8.846  13.963  68.113  1.00  0.00    -0.178 N  
HETATM    5  C   UNL     1      -7.867  14.286  69.067  1.00  0.00    -0.045 C  
HETATM    6  O   UNL     1      -7.896  15.242  69.828  1.00  0.00    -0.203 OA 
BRANCH   4   7
HETATM    7  C   UNL     1     -10.060  14.806  68.158  1.00  0.00    -0.221 C  
BRANCH   7   8
HETATM    8  C   UNL     1      -9.919  16.139  67.446  1.00  0.00    -0.247 A  
HETATM    9  H2  UNL     1     -10.375  14.211  65.787  1.00  0.00     0.000 HD 
HETATM   10  C   UNL     1      -9.467  17.323  67.909  1.00  0.00    -0.266 A  
HETATM   11  N   UNL     1     -10.499  17.454  65.472  1.00  0.00    -0.638 NA 
HETATM   12  N   UNL     1      -9.675  18.573  67.354  1.00  0.00    -0.296 NA 
HETATM   13  H1  UNL     1     -10.810  15.164  64.362  1.00  0.00     0.000 HD 
HETATM   14  C   UNL     1     -10.745  19.917  65.658  1.00  0.00    -0.377 C  
HETATM   15  N   UNL     1     -10.522  15.117  65.340  1.00  0.00    -0.360 NA 
HETATM   16  C   UNL     1     -10.246  18.597  66.185  1.00  0.00    -0.416 A  
HETATM   17  C   UNL     1     -10.342  16.207  66.013  1.00  0.00    -0.358 A  
ENDBRANCH   7   8
ENDBRANCH   4   7
ENDBRANCH   2   4
BRANCH   3  18
HETATM   18  C   UNL     1      -9.685  10.259  67.224  1.00  0.00    -0.199 C  
BRANCH  18  19
HETATM   19  C   UNL     1     -10.024   9.780  65.759  1.00  0.00    -0.279 C  
BRANCH  19  20
HETATM   20  O   UNL     1      -9.175   8.699  65.218  1.00  0.00    -0.117 OA 
HETATM   21  O   UNL     1      -6.999   9.144  65.195  1.00  0.00    -0.085 OA 
HETATM   22  O   UNL     1      -7.866   6.883  65.460  1.00  0.00    -0.098 OA 
HETATM   23  P   UNL     1      -7.873   8.296  66.283  1.00  0.00    -0.104 P  
HETATM   24  O   UNL     1      -6.708   7.935  67.237  1.00  0.00    -0.065 OA 
ENDBRANCH  19  20
ENDBRANCH  18  19
ENDBRANCH   3  18
BRANCH   3  25
HETATM   25  S   UNL     1     -11.674  12.200  67.980  1.00  0.00    -0.305 SA 
BRANCH  25  26
HETATM   26  C   UNL     1     -12.018  12.101  69.756  1.00  0.00    -0.302 C  
HETATM   27  O   UNL     1     -12.119  13.116  70.436  1.00  0.00    -0.351 OA 
BRANCH  26  28
HETATM   28  C   UNL     1     -12.094  10.725  70.457  1.00  0.00    -0.459 A  
HETATM   29  C   UNL     1     -10.870   8.733  71.312  1.00  0.00    -0.347 A  
HETATM   30  C   UNL     1     -10.898   9.983  70.655  1.00  0.00    -0.367 A  
HETATM   31  C   UNL     1     -13.247  10.146  70.994  1.00  0.00    -0.412 A  
HETATM   32  C   UNL     1     -12.047   8.192  71.815  1.00  0.00    -0.357 A  
HETATM   33  C   UNL     1     -13.235   8.907  71.660  1.00  0.00    -0.411 A  
ENDBRANCH  26  28
ENDBRANCH  25  26
ENDBRANCH   3  25
TORSDOF 9
ENDMDL
MODEL      212
REMARK 921   NORMALIZED FREE ENERGY PREDICTED BY IDOCK:   -4.92 KCAL/MOL
REMARK 922        TOTAL FREE ENERGY PREDICTED BY IDOCK:   -9.02 KCAL/MOL
REMARK 923 INTER-LIGAND FREE ENERGY PREDICTED BY IDOCK:   -7.33 KCAL/MOL
REMARK 924 INTRA-LIGAND FREE ENERGY PREDICTED BY IDOCK:   -1.69 KCAL/MOL
REMARK 927      BINDING AFFINITY PREDICTED BY RF-SCORE:    0.00 PKD
ROOT
HETATM    1  C   UNL     1     -10.983   6.813  67.645  1.00  0.00    -0.346 C  
HETATM    2  C   UNL     1      -9.828   7.530  66.926  1.00  0.00    -0.226 C  
HETATM    3  C   UNL     1      -9.897   8.885  66.755  1.00  0.00    -0.241 C  
ENDROOT
BRANCH   2   4
HETATM    4  N   UNL     1      -8.775   6.666  66.567  1.00  0.00    -0.130 N  
HETATM    5  C   UNL     1      -9.031   5.431  65.950  1.00  0.00    -0.150 C  
HETATM    6  O   UNL     1      -8.245   4.498  65.861  1.00  0.00    -0.108 OA 
BRANCH   4   7
HETATM    7  C   UNL     1      -7.476   6.755  67.268  1.00  0.00    -0.096 C  
BRANCH   7   8
HETATM    8  C   UNL     1      -7.591   7.015  68.759  1.00  0.00    -0.105 A  
HETATM    9  H2  UNL     1      -6.082   8.761  67.597  1.00  0.00     0.000 HD 
HETATM   10  C   UNL     1      -8.086   6.229  69.739  1.00  0.00    -0.120 A  
HETATM   11  N   UNL     1      -7.480   8.681  70.541  1.00  0.00    -0.064 NA 
HETATM   12  N   UNL     1      -8.490   6.622  71.002  1.00  0.00    -0.128 NA 
HETATM   13  H1  UNL     1      -6.015   9.973  68.881  1.00  0.00     0.000 HD 
HETATM   14  C   UNL     1      -8.886   8.415  72.570  1.00  0.00    -0.296 C  
HETATM   15  N   UNL     1      -6.347   9.074  68.531  1.00  0.00    -0.053 NA 
HETATM   16  C   UNL     1      -8.234   7.854  71.333  1.00  0.00    -0.107 A  
HETATM   17  C   UNL     1      -7.104   8.332  69.272  1.00  0.00    -0.060 A  
ENDBRANCH   7   8
ENDBRANCH   4   7
ENDBRANCH   2   4
BRANCH   3  18
HETATM   18  C   UNL     1     -10.959   9.733  67.586  1.00  0.00    -0.226 C  
BRANCH  18  19
HETATM   19  C   UNL     1     -10.741   9.817  69.147  1.00  0.00    -0.221 C  
BRANCH  19  20
HETATM   20  O   UNL     1     -10.822  11.168  69.740  1.00  0.00    -0.204 OA 
HETATM   21  O   UNL     1     -10.045  12.801  68.452  1.00  0.00    -0.232 OA 
HETATM   22  O   UNL     1     -11.846  13.148  70.055  1.00  0.00    -0.321 OA 
HETATM   23  P   UNL     1     -11.584  12.303  68.680  1.00  0.00    -0.343 P  
HETATM   24  O   UNL     1     -12.265  13.318  67.731  1.00  0.00    -0.287 OA 
ENDBRANCH  19  20
ENDBRANCH  18  19
ENDBRANCH   3  18
BRANCH   3  25
HETATM   25  S   UNL     1      -8.830   9.873  65.651  1.00  0.00    -0.169 SA 
BRANCH  25  26
HETATM   26  C   UNL     1      -9.676  10.426  64.147  1.00  0.00    -0.324 C  
HETATM   27  O   UNL     1      -9.512   9.844  63.081  1.00  0.00    -0.271 OA 
BRANCH  26  28
HETATM   28  C   UNL     1     -10.547  11.704  64.173  1.00  0.00    -0.411 A  
HETATM   29  C   UNL     1     -10.751  14.092  64.845  1.00  0.00    -0.432 A  
HETATM   30  C   UNL     1     -10.039  12.873  64.801  1.00  0.00    -0.242 A  
HETATM   31  C   UNL     1     -11.794  11.853  63.561  1.00  0.00    -0.560 A  
HETATM   32  C   UNL     1     -11.996  14.185  64.234  1.00  0.00    -0.460 A  
HETATM   33  C   UNL     1     -12.512  13.063  63.585  1.00  0.00    -0.400 A  
ENDBRANCH  26  28
ENDBRANCH  25  26
ENDBRANCH   3  25
TORSDOF 9
ENDMDL
MODEL      213
REMARK 921   NORMALIZED FREE ENERGY PREDICTED BY IDOCK:   -4.92 KCAL/MOL
REMARK 922        TOTAL FREE ENERGY PREDICTED BY IDOCK:   -9.02 KCAL/MOL
REMARK 923 INTER-LIGAND FREE ENERGY PREDICTED BY IDOCK:   -8.53 KCAL/MOL
REMARK 924 INTRA-LIGAND FREE ENERGY PREDICTED BY IDOCK:   -0.49 KCAL/MOL
REMARK 927      BINDING AFFINITY PREDICTED BY RF-SCORE:    0.00 PKD
ROOT
HETATM    1  C   UNL     1     -10.717  15.842  65.451  1.00  0.00    -0.415 C  
HETATM    2  C   UNL     1     -10.352  15.742  66.942  1.00  0.00    -0.295 C  
HETATM    3  C   UNL     1     -11.181  15.048  67.778  1.00  0.00    -0.321 C  
ENDROOT
BRANCH   2   4
HETATM    4  N   UNL     1      -9.127  16.360  67.256  1.00  0.00    -0.198 N  
HETATM    5  C   UNL     1      -8.198  16.681  66.253  1.00  0.00    -0.330 C  
HETATM    6  O   UNL     1      -7.017  16.944  66.426  1.00  0.00    -0.241 OA 
BRANCH   4   7
HETATM    7  C   UNL     1      -8.552  16.212  68.611  1.00  0.00    -0.210 C  
BRANCH   7   8
HETATM    8  C   UNL     1      -7.667  14.991  68.782  1.00  0.00    -0.141 A  
HETATM    9  H2  UNL     1      -6.491  17.143  69.593  1.00  0.00     0.000 HD 
HETATM   10  C   UNL     1      -7.813  13.742  68.289  1.00  0.00    -0.144 A  
HETATM   11  N   UNL     1      -5.820  13.982  70.019  1.00  0.00    -0.123 NA 
HETATM   12  N   UNL     1      -7.195  12.589  68.738  1.00  0.00    -0.106 NA 
HETATM   13  H1  UNL     1      -5.163  16.412  70.502  1.00  0.00     0.000 HD 
HETATM   14  C   UNL     1      -5.758  11.523  70.360  1.00  0.00    -0.155 C  
HETATM   15  N   UNL     1      -6.001  16.314  69.927  1.00  0.00    -0.190 NA 
HETATM   16  C   UNL     1      -6.268  12.744  69.638  1.00  0.00    -0.120 A  
HETATM   17  C   UNL     1      -6.440  15.135  69.623  1.00  0.00    -0.161 A  
ENDBRANCH   7   8
ENDBRANCH   4   7
ENDBRANCH   2   4
BRANCH   3  18
HETATM   18  C   UNL     1     -12.289  14.080  67.169  1.00  0.00    -0.234 C  
BRANCH  18  19
HETATM   19  C   UNL     1     -11.790  12.956  66.181  1.00  0.00    -0.429 C  
BRANCH  19  20
HETATM   20  O   UNL     1     -10.464  12.375  66.477  1.00  0.00    -0.227 OA 
HETATM   21  O   UNL     1     -10.432  10.161  66.651  1.00  0.00    -0.228 OA 
HETATM   22  O   UNL     1      -8.515  11.435  65.853  1.00  0.00    -0.120 OA 
HETATM   23  P   UNL     1     -10.046  11.107  65.377  1.00  0.00    -0.293 P  
HETATM   24  O   UNL     1      -9.671   9.973  64.392  1.00  0.00    -0.305 OA 
ENDBRANCH  19  20
ENDBRANCH  18  19
ENDBRANCH   3  18
BRANCH   3  25
HETATM   25  S   UNL     1     -11.128  15.091  69.603  1.00  0.00    -0.286 SA 
BRANCH  25  26
HETATM   26  C   UNL     1     -12.553  14.284  70.379  1.00  0.00    -0.343 C  
HETATM   27  O   UNL     1     -13.521  14.937  70.751  1.00  0.00    -0.345 OA 
BRANCH  26  28
HETATM   28  C   UNL     1     -12.523  12.765  70.666  1.00  0.00    -0.328 A  
HETATM   29  C   UNL     1     -11.581  10.536  70.082  1.00  0.00    -0.408 A  
HETATM   30  C   UNL     1     -11.694  11.928  69.871  1.00  0.00    -0.383 A  
HETATM   31  C   UNL     1     -13.195  12.118  71.706  1.00  0.00    -0.423 A  
HETATM   32  C   UNL     1     -12.282   9.937  71.121  1.00  0.00    -0.468 A  
HETATM   33  C   UNL     1     -13.085  10.735  71.938  1.00  0.00    -0.557 A  
ENDBRANCH  26  28
ENDBRANCH  25  26
ENDBRANCH   3  25
TORSDOF 9
ENDMDL
MODEL      214
REMARK 921   NORMALIZED FREE ENERGY PREDICTED BY IDOCK:   -4.91 KCAL/MOL
REMARK 922        TOTAL FREE ENERGY PREDICTED BY IDOCK:   -9.00 KCAL/MOL
REMARK 923 INTER-LIGAND FREE ENERGY PREDICTED BY IDOCK:   -7.60 KCAL/MOL
REMARK 924 INTRA-LIGAND FREE ENERGY PREDICTED BY IDOCK:   -1.40 KCAL/MOL
REMARK 927      BINDING AFFINITY PREDICTED BY RF-SCORE:    0.00 PKD
ROOT
HETATM    1  C   UNL     1      -7.027   9.726  68.375  1.00  0.00    -0.068 C  
HETATM    2  C   UNL     1      -8.163   8.830  67.854  1.00  0.00    -0.111 C  
HETATM    3  C   UNL     1      -8.929   8.145  68.756  1.00  0.00    -0.144 C  
ENDROOT
BRANCH   2   4
HETATM    4  N   UNL     1      -8.308   8.875  66.454  1.00  0.00    -0.113 N  
HETATM    5  C   UNL     1      -8.382   7.695  65.695  1.00  0.00    -0.140 C  
HETATM    6  O   UNL     1      -8.219   7.609  64.487  1.00  0.00    -0.131 OA 
BRANCH   4   7
HETATM    7  C   UNL     1      -7.865  10.070  65.704  1.00  0.00    -0.138 C  
BRANCH   7   8
HETATM    8  C   UNL     1      -8.929  11.143  65.559  1.00  0.00    -0.178 A  
HETATM    9  H2  UNL     1      -8.430   9.980  63.306  1.00  0.00     0.000 HD 
HETATM   10  C   UNL     1      -9.306  12.109  66.423  1.00  0.00    -0.224 A  
HETATM   11  N   UNL     1     -10.855  11.928  64.281  1.00  0.00    -0.318 NA 
HETATM   12  N   UNL     1     -10.486  12.831  66.407  1.00  0.00    -0.248 NA 
HETATM   13  H1  UNL     1      -9.833  10.536  62.386  1.00  0.00     0.000 HD 
HETATM   14  C   UNL     1     -12.658  13.199  65.420  1.00  0.00    -0.512 C  
HETATM   15  N   UNL     1      -9.296  10.516  63.254  1.00  0.00    -0.284 NA 
HETATM   16  C   UNL     1     -11.252  12.663  65.369  1.00  0.00    -0.299 A  
HETATM   17  C   UNL     1      -9.716  11.172  64.288  1.00  0.00    -0.271 A  
ENDBRANCH   7   8
ENDBRANCH   4   7
ENDBRANCH   2   4
BRANCH   3  18
HETATM   18  C   UNL     1      -8.878   8.540  70.297  1.00  0.00    -0.150 C  
BRANCH  18  19
HETATM   19  C   UNL     1     -10.078   9.401  70.854  1.00  0.00    -0.296 C  
BRANCH  19  20
HETATM   20  O   UNL     1     -11.125   9.762  69.875  1.00  0.00    -0.240 OA 
HETATM   21  O   UNL     1     -13.106  10.236  70.760  1.00  0.00    -0.381 OA 
HETATM   22  O   UNL     1     -12.318  11.265  68.697  1.00  0.00    -0.534 OA 
HETATM   23  P   UNL     1     -11.915  11.246  70.283  1.00  0.00    -0.366 P  
HETATM   24  O   UNL     1     -12.622  12.575  70.647  1.00  0.00    -0.258 OA 
ENDBRANCH  19  20
ENDBRANCH  18  19
ENDBRANCH   3  18
BRANCH   3  25
HETATM   25  S   UNL     1     -10.081   6.786  68.356  1.00  0.00    -0.171 SA 
BRANCH  25  26
HETATM   26  C   UNL     1     -10.997   6.178  69.796  1.00  0.00    -0.390 C  
HETATM   27  O   UNL     1     -12.095   6.640  70.086  1.00  0.00    -0.323 OA 
BRANCH  26  28
HETATM   28  C   UNL     1     -10.358   5.130  70.736  1.00  0.00    -0.294 A  
HETATM   29  C   UNL     1      -9.021   3.040  70.949  1.00  0.00    -0.164 A  
HETATM   30  C   UNL     1      -9.661   4.028  70.168  1.00  0.00    -0.270 A  
HETATM   31  C   UNL     1     -10.335   5.191  72.132  1.00  0.00    -0.272 A  
HETATM   32  C   UNL     1      -9.040   3.138  72.335  1.00  0.00    -0.136 A  
HETATM   33  C   UNL     1      -9.693   4.222  72.924  1.00  0.00    -0.172 A  
ENDBRANCH  26  28
ENDBRANCH  25  26
ENDBRANCH   3  25
TORSDOF 9
ENDMDL
MODEL      215
REMARK 921   NORMALIZED FREE ENERGY PREDICTED BY IDOCK:   -4.89 KCAL/MOL
REMARK 922        TOTAL FREE ENERGY PREDICTED BY IDOCK:   -8.98 KCAL/MOL
REMARK 923 INTER-LIGAND FREE ENERGY PREDICTED BY IDOCK:   -7.31 KCAL/MOL
REMARK 924 INTRA-LIGAND FREE ENERGY PREDICTED BY IDOCK:   -1.67 KCAL/MOL
REMARK 927      BINDING AFFINITY PREDICTED BY RF-SCORE:    0.00 PKD
ROOT
HETATM    1  C   UNL     1      -8.007   9.663  69.551  1.00  0.00    -0.125 C  
HETATM    2  C   UNL     1      -8.961  10.659  68.871  1.00  0.00    -0.168 C  
HETATM    3  C   UNL     1     -10.274  10.679  69.253  1.00  0.00    -0.213 C  
ENDROOT
BRANCH   2   4
HETATM    4  N   UNL     1      -8.319  11.497  67.940  1.00  0.00    -0.130 N  
HETATM    5  C   UNL     1      -7.905  12.791  68.294  1.00  0.00    -0.141 C  
HETATM    6  O   UNL     1      -7.611  13.687  67.516  1.00  0.00    -0.161 OA 
BRANCH   4   7
HETATM    7  C   UNL     1      -8.526  11.285  66.491  1.00  0.00    -0.171 C  
BRANCH   7   8
HETATM    8  C   UNL     1      -8.215   9.877  66.017  1.00  0.00    -0.119 A  
HETATM    9  H2  UNL     1      -6.170  11.438  65.783  1.00  0.00     0.000 HD 
HETATM   10  C   UNL     1      -9.049   8.844  65.769  1.00  0.00    -0.221 A  
HETATM   11  N   UNL     1      -6.482   8.195  65.657  1.00  0.00    -0.048 NA 
HETATM   12  N   UNL     1      -8.717   7.504  65.681  1.00  0.00    -0.120 NA 
HETATM   13  H1  UNL     1      -4.913  10.219  65.538  1.00  0.00     0.000 HD 
HETATM   14  C   UNL     1      -7.034   5.785  65.882  1.00  0.00    -0.065 C  
HETATM   15  N   UNL     1      -5.892  10.460  65.696  1.00  0.00    -0.101 NA 
HETATM   16  C   UNL     1      -7.447   7.222  65.697  1.00  0.00    -0.085 A  
HETATM   17  C   UNL     1      -6.781   9.524  65.786  1.00  0.00    -0.083 A  
ENDBRANCH   7   8
ENDBRANCH   4   7
ENDBRANCH   2   4
BRANCH   3  18
HETATM   18  C   UNL     1     -10.718   9.952  70.598  1.00  0.00    -0.372 C  
BRANCH  18  19
HETATM   19  C   UNL     1     -11.656   8.691  70.452  1.00  0.00    -0.078 C  
BRANCH  19  20
HETATM   20  O   UNL     1     -11.010   7.455  69.966  1.00  0.00    -0.257 OA 
HETATM   21  O   UNL     1      -9.346   6.710  71.235  1.00  0.00    -0.158 OA 
HETATM   22  O   UNL     1     -10.762   5.217  69.930  1.00  0.00    -0.291 OA 
HETATM   23  P   UNL     1     -10.911   6.242  71.196  1.00  0.00    -0.294 P  
HETATM   24  O   UNL     1     -10.823   5.157  72.296  1.00  0.00    -0.218 OA 
ENDBRANCH  19  20
ENDBRANCH  18  19
ENDBRANCH   3  18
BRANCH   3  25
HETATM   25  S   UNL     1     -11.627  11.519  68.359  1.00  0.00    -0.306 SA 
BRANCH  25  26
HETATM   26  C   UNL     1     -11.725  13.293  68.715  1.00  0.00    -0.329 C  
HETATM   27  O   UNL     1     -11.174  14.112  67.989  1.00  0.00    -0.261 OA 
BRANCH  26  28
HETATM   28  C   UNL     1     -12.431  13.790  69.998  1.00  0.00    -0.301 A  
HETATM   29  C   UNL     1     -13.454  13.206  72.191  1.00  0.00    -0.653 A  
HETATM   30  C   UNL     1     -12.832  12.840  70.977  1.00  0.00    -0.262 A  
HETATM   31  C   UNL     1     -12.660  15.126  70.337  1.00  0.00    -0.405 A  
HETATM   32  C   UNL     1     -13.675  14.548  72.475  1.00  0.00    -0.580 A  
HETATM   33  C   UNL     1     -13.269  15.508  71.547  1.00  0.00    -0.589 A  
ENDBRANCH  26  28
ENDBRANCH  25  26
ENDBRANCH   3  25
TORSDOF 9
ENDMDL
MODEL      216
REMARK 921   NORMALIZED FREE ENERGY PREDICTED BY IDOCK:   -4.89 KCAL/MOL
REMARK 922        TOTAL FREE ENERGY PREDICTED BY IDOCK:   -8.98 KCAL/MOL
REMARK 923 INTER-LIGAND FREE ENERGY PREDICTED BY IDOCK:   -7.89 KCAL/MOL
REMARK 924 INTRA-LIGAND FREE ENERGY PREDICTED BY IDOCK:   -1.08 KCAL/MOL
REMARK 927      BINDING AFFINITY PREDICTED BY RF-SCORE:    0.00 PKD
ROOT
HETATM    1  C   UNL     1     -11.353  16.784  69.198  1.00  0.00     0.079 C  
HETATM    2  C   UNL     1     -10.458  16.456  67.991  1.00  0.00    -0.303 C  
HETATM    3  C   UNL     1     -10.337  15.153  67.595  1.00  0.00    -0.248 C  
ENDROOT
BRANCH   2   4
HETATM    4  N   UNL     1      -9.897  17.598  67.389  1.00  0.00    -0.296 N  
HETATM    5  C   UNL     1     -10.710  18.595  66.826  1.00  0.00    -0.280 C  
HETATM    6  O   UNL     1     -10.346  19.460  66.043  1.00  0.00    -0.455 OA 
BRANCH   4   7
HETATM    7  C   UNL     1      -8.516  17.550  66.860  1.00  0.00    -0.239 C  
BRANCH   7   8
HETATM    8  C   UNL     1      -7.474  18.150  67.786  1.00  0.00    -0.213 A  
HETATM    9  H2  UNL     1      -7.708  19.509  65.601  1.00  0.00     0.000 HD 
HETATM   10  C   UNL     1      -6.903  17.635  68.895  1.00  0.00    -0.243 A  
HETATM   11  N   UNL     1      -6.282  20.173  68.456  1.00  0.00    -0.277 NA 
HETATM   12  N   UNL     1      -6.236  18.325  69.890  1.00  0.00    -0.170 NA 
HETATM   13  H1  UNL     1      -6.858  20.979  66.092  1.00  0.00     0.000 HD 
HETATM   14  C   UNL     1      -5.540  20.447  70.809  1.00  0.00    -0.311 C  
HETATM   15  N   UNL     1      -7.197  20.041  66.306  1.00  0.00    -0.262 NA 
HETATM   16  C   UNL     1      -6.009  19.586  69.665  1.00  0.00    -0.268 A  
HETATM   17  C   UNL     1      -6.978  19.525  67.472  1.00  0.00    -0.213 A  
ENDBRANCH   7   8
ENDBRANCH   4   7
ENDBRANCH   2   4
BRANCH   3  18
HETATM   18  C   UNL     1     -11.363  14.063  68.138  1.00  0.00    -0.320 C  
BRANCH  18  19
HETATM   19  C   UNL     1     -11.498  12.731  67.303  1.00  0.00    -0.337 C  
BRANCH  19  20
HETATM   20  O   UNL     1     -12.529  12.731  66.245  1.00  0.00    -0.477 OA 
HETATM   21  O   UNL     1     -12.276  14.303  64.695  1.00  0.00    -0.433 OA 
HETATM   22  O   UNL     1     -13.297  12.144  64.211  1.00  0.00    -0.761 OA 
HETATM   23  P   UNL     1     -11.837  12.730  64.659  1.00  0.00    -0.431 P  
HETATM   24  O   UNL     1     -11.218  12.728  63.240  1.00  0.00    -0.397 OA 
ENDBRANCH  19  20
ENDBRANCH  18  19
ENDBRANCH   3  18
BRANCH   3  25
HETATM   25  S   UNL     1      -9.086  14.508  66.432  1.00  0.00    -0.115 SA 
BRANCH  25  26
HETATM   26  C   UNL     1      -7.593  13.895  67.256  1.00  0.00    -0.057 C  
HETATM   27  O   UNL     1      -6.665  14.650  67.522  1.00  0.00    -0.180 OA 
BRANCH  26  28
HETATM   28  C   UNL     1      -7.433  12.385  67.550  1.00  0.00    -0.150 A  
HETATM   29  C   UNL     1      -6.148  10.292  67.144  1.00  0.00    -0.055 A  
HETATM   30  C   UNL     1      -6.387  11.665  66.912  1.00  0.00    -0.142 A  
HETATM   31  C   UNL     1      -8.193  11.646  68.460  1.00  0.00    -0.144 A  
HETATM   32  C   UNL     1      -6.942   9.598  68.049  1.00  0.00    -0.078 A  
HETATM   33  C   UNL     1      -7.962  10.282  68.711  1.00  0.00    -0.113 A  
ENDBRANCH  26  28
ENDBRANCH  25  26
ENDBRANCH   3  25
TORSDOF 9
ENDMDL
MODEL      217
REMARK 921   NORMALIZED FREE ENERGY PREDICTED BY IDOCK:   -4.89 KCAL/MOL
REMARK 922        TOTAL FREE ENERGY PREDICTED BY IDOCK:   -8.97 KCAL/MOL
REMARK 923 INTER-LIGAND FREE ENERGY PREDICTED BY IDOCK:   -8.89 KCAL/MOL
REMARK 924 INTRA-LIGAND FREE ENERGY PREDICTED BY IDOCK:   -0.08 KCAL/MOL
REMARK 927      BINDING AFFINITY PREDICTED BY RF-SCORE:    0.00 PKD
ROOT
HETATM    1  C   UNL     1     -10.194  12.709  64.694  1.00  0.00    -0.319 C  
HETATM    2  C   UNL     1      -9.793  12.529  66.168  1.00  0.00    -0.258 C  
HETATM    3  C   UNL     1      -9.917  11.293  66.739  1.00  0.00    -0.206 C  
ENDROOT
BRANCH   2   4
HETATM    4  N   UNL     1      -9.276  13.703  66.750  1.00  0.00    -0.252 N  
HETATM    5  C   UNL     1      -7.927  13.791  67.127  1.00  0.00    -0.044 C  
HETATM    6  O   UNL     1      -7.446  14.622  67.883  1.00  0.00    -0.118 OA 
BRANCH   4   7
HETATM    7  C   UNL     1     -10.181  14.637  67.454  1.00  0.00    -0.240 C  
BRANCH   7   8
HETATM    8  C   UNL     1      -9.790  16.098  67.326  1.00  0.00    -0.241 A  
HETATM    9  H2  UNL     1     -10.424  15.073  65.041  1.00  0.00     0.000 HD 
HETATM   10  C   UNL     1      -9.193  16.915  68.220  1.00  0.00    -0.241 A  
HETATM   11  N   UNL     1     -10.027  18.154  66.031  1.00  0.00    -0.549 NA 
HETATM   12  N   UNL     1      -9.169  18.298  68.202  1.00  0.00    -0.293 NA 
HETATM   13  H1  UNL     1     -10.611  16.563  64.107  1.00  0.00     0.000 HD 
HETATM   14  C   UNL     1      -9.903  20.355  67.173  1.00  0.00    -0.601 C  
HETATM   15  N   UNL     1     -10.399  16.092  64.987  1.00  0.00    -0.547 NA 
HETATM   16  C   UNL     1      -9.650  18.870  67.137  1.00  0.00    -0.306 A  
HETATM   17  C   UNL     1     -10.099  16.788  66.036  1.00  0.00    -0.332 A  
ENDBRANCH   7   8
ENDBRANCH   4   7
ENDBRANCH   2   4
BRANCH   3  18
HETATM   18  C   UNL     1     -10.126  10.013  65.815  1.00  0.00    -0.320 C  
BRANCH  18  19
HETATM   19  C   UNL     1      -9.084   8.839  65.975  1.00  0.00    -0.213 C  
BRANCH  19  20
HETATM   20  O   UNL     1      -9.260   7.973  67.159  1.00  0.00    -0.134 OA 
HETATM   21  O   UNL     1     -11.235   6.966  67.293  1.00  0.00    -0.317 OA 
HETATM   22  O   UNL     1      -9.199   5.973  68.192  1.00  0.00    -0.118 OA 
HETATM   23  P   UNL     1      -9.812   6.390  66.734  1.00  0.00    -0.131 P  
HETATM   24  O   UNL     1     -10.306   4.973  66.353  1.00  0.00    -0.246 OA 
ENDBRANCH  19  20
ENDBRANCH  18  19
ENDBRANCH   3  18
BRANCH   3  25
HETATM   25  S   UNL     1      -9.830  10.935  68.527  1.00  0.00    -0.190 SA 
BRANCH  25  26
HETATM   26  C   UNL     1     -11.449  10.602  69.269  1.00  0.00    -0.281 C  
HETATM   27  O   UNL     1     -12.436  11.253  68.946  1.00  0.00    -0.433 OA 
BRANCH  26  28
HETATM   28  C   UNL     1     -11.586   9.548  70.392  1.00  0.00    -0.268 A  
HETATM   29  C   UNL     1     -10.745   7.433  71.400  1.00  0.00    -0.239 A  
HETATM   30  C   UNL     1     -10.712   8.427  70.397  1.00  0.00    -0.244 A  
HETATM   31  C   UNL     1     -12.463   9.622  71.477  1.00  0.00    -0.476 A  
HETATM   32  C   UNL     1     -11.647   7.544  72.451  1.00  0.00    -0.356 A  
HETATM   33  C   UNL     1     -12.501   8.647  72.490  1.00  0.00    -0.372 A  
ENDBRANCH  26  28
ENDBRANCH  25  26
ENDBRANCH   3  25
TORSDOF 9
ENDMDL
MODEL      218
REMARK 921   NORMALIZED FREE ENERGY PREDICTED BY IDOCK:   -4.88 KCAL/MOL
REMARK 922        TOTAL FREE ENERGY PREDICTED BY IDOCK:   -8.96 KCAL/MOL
REMARK 923 INTER-LIGAND FREE ENERGY PREDICTED BY IDOCK:   -7.76 KCAL/MOL
REMARK 924 INTRA-LIGAND FREE ENERGY PREDICTED BY IDOCK:   -1.21 KCAL/MOL
REMARK 927      BINDING AFFINITY PREDICTED BY RF-SCORE:    0.00 PKD
ROOT
HETATM    1  C   UNL     1     -10.639  11.286  69.021  1.00  0.00    -0.241 C  
HETATM    2  C   UNL     1      -9.419  12.131  68.615  1.00  0.00    -0.045 C  
HETATM    3  C   UNL     1      -9.603  13.450  68.307  1.00  0.00    -0.220 C  
ENDROOT
BRANCH   2   4
HETATM    4  N   UNL     1      -8.207  11.416  68.668  1.00  0.00    -0.154 N  
HETATM    5  C   UNL     1      -6.975  12.085  68.760  1.00  0.00    -0.101 C  
HETATM    6  O   UNL     1      -5.878  11.600  68.525  1.00  0.00    -0.049 OA 
BRANCH   4   7
HETATM    7  C   UNL     1      -8.132  10.048  68.111  1.00  0.00    -0.108 C  
BRANCH   7   8
HETATM    8  C   UNL     1      -8.200   9.988  66.596  1.00  0.00    -0.122 A  
HETATM    9  H2  UNL     1     -10.126   8.661  67.694  1.00  0.00     0.000 HD 
HETATM   10  C   UNL     1      -7.283  10.350  65.674  1.00  0.00    -0.146 A  
HETATM   11  N   UNL     1      -9.634   9.695  64.642  1.00  0.00    -0.180 NA 
HETATM   12  N   UNL     1      -7.502  10.607  64.333  1.00  0.00     0.104 NA 
HETATM   13  H1  UNL     1     -11.171   8.463  66.282  1.00  0.00     0.000 HD 
HETATM   14  C   UNL     1      -9.073  10.845  62.514  1.00  0.00    -0.361 C  
HETATM   15  N   UNL     1     -10.312   8.818  66.703  1.00  0.00    -0.265 NA 
HETATM   16  C   UNL     1      -8.691  10.335  63.879  1.00  0.00    -0.204 A  
HETATM   17  C   UNL     1      -9.459   9.468  65.979  1.00  0.00    -0.233 A  
ENDBRANCH   7   8
ENDBRANCH   4   7
ENDBRANCH   2   4
BRANCH   3  18
HETATM   18  C   UNL     1     -10.967  14.170  68.701  1.00  0.00    -0.275 C  
BRANCH  18  19
HETATM   19  C   UNL     1     -11.966  14.500  67.524  1.00  0.00    -0.325 C  
BRANCH  19  20
HETATM   20  O   UNL     1     -11.626  13.927  66.206  1.00  0.00    -0.337 OA 
HETATM   21  O   UNL     1     -12.982  14.524  64.551  1.00  0.00    -0.536 OA 
HETATM   22  O   UNL     1     -10.626  14.020  64.190  1.00  0.00    -0.146 OA 
HETATM   23  P   UNL     1     -11.528  15.138  64.973  1.00  0.00    -0.241 P  
HETATM   24  O   UNL     1     -11.440  16.220  63.870  1.00  0.00    -0.940 OA 
ENDBRANCH  19  20
ENDBRANCH  18  19
ENDBRANCH   3  18
BRANCH   3  25
HETATM   25  S   UNL     1      -8.382  14.529  67.484  1.00  0.00    -0.202 SA 
BRANCH  25  26
HETATM   26  C   UNL     1      -7.961  16.001  68.453  1.00  0.00    -0.151 C  
HETATM   27  O   UNL     1      -7.376  15.903  69.525  1.00  0.00    -0.217 OA 
BRANCH  26  28
HETATM   28  C   UNL     1      -8.421  17.399  67.980  1.00  0.00    -0.235 A  
HETATM   29  C   UNL     1     -10.111  18.746  66.743  1.00  0.00    -0.409 A  
HETATM   30  C   UNL     1      -9.601  17.508  67.193  1.00  0.00    -0.262 A  
HETATM   31  C   UNL     1      -7.817  18.613  68.315  1.00  0.00    -0.331 A  
HETATM   32  C   UNL     1      -9.464  19.925  67.091  1.00  0.00    -0.497 A  
HETATM   33  C   UNL     1      -8.319  19.855  67.885  1.00  0.00    -0.326 A  
ENDBRANCH  26  28
ENDBRANCH  25  26
ENDBRANCH   3  25
TORSDOF 9
ENDMDL
MODEL      219
REMARK 921   NORMALIZED FREE ENERGY PREDICTED BY IDOCK:   -4.88 KCAL/MOL
REMARK 922        TOTAL FREE ENERGY PREDICTED BY IDOCK:   -8.96 KCAL/MOL
REMARK 923 INTER-LIGAND FREE ENERGY PREDICTED BY IDOCK:   -7.55 KCAL/MOL
REMARK 924 INTRA-LIGAND FREE ENERGY PREDICTED BY IDOCK:   -1.41 KCAL/MOL
REMARK 927      BINDING AFFINITY PREDICTED BY RF-SCORE:    0.00 PKD
ROOT
HETATM    1  C   UNL     1     -10.733   5.833  69.004  1.00  0.00    -0.354 C  
HETATM    2  C   UNL     1     -11.148   6.921  70.009  1.00  0.00    -0.299 C  
HETATM    3  C   UNL     1     -10.686   8.195  69.829  1.00  0.00    -0.229 C  
ENDROOT
BRANCH   2   4
HETATM    4  N   UNL     1     -12.033   6.454  71.000  1.00  0.00    -0.283 N  
HETATM    5  C   UNL     1     -13.275   7.074  71.212  1.00  0.00    -0.230 C  
HETATM    6  O   UNL     1     -13.979   6.948  72.203  1.00  0.00    -0.143 OA 
BRANCH   4   7
HETATM    7  C   UNL     1     -11.512   5.694  72.156  1.00  0.00    -0.179 C  
BRANCH   7   8
HETATM    8  C   UNL     1     -10.245   6.272  72.761  1.00  0.00    -0.202 A  
HETATM    9  H2  UNL     1      -9.804   4.006  71.601  1.00  0.00     0.000 HD 
HETATM   10  C   UNL     1     -10.089   7.299  73.623  1.00  0.00    -0.340 A  
HETATM   11  N   UNL     1      -7.807   6.353  72.664  1.00  0.00    -0.104 NA 
HETATM   12  N   UNL     1      -8.930   8.010  73.875  1.00  0.00    -0.238 NA 
HETATM   13  H1  UNL     1      -8.039   4.073  71.517  1.00  0.00     0.000 HD 
HETATM   14  C   UNL     1      -6.612   8.423  73.338  1.00  0.00    -0.124 C  
HETATM   15  N   UNL     1      -8.928   4.495  71.787  1.00  0.00    -0.123 NA 
HETATM   16  C   UNL     1      -7.841   7.551  73.331  1.00  0.00    -0.111 A  
HETATM   17  C   UNL     1      -8.943   5.653  72.365  1.00  0.00    -0.134 A  
ENDBRANCH   7   8
ENDBRANCH   4   7
ENDBRANCH   2   4
BRANCH   3  18
HETATM   18  C   UNL     1     -10.039   8.611  68.435  1.00  0.00    -0.217 C  
BRANCH  18  19
HETATM   19  C   UNL     1      -8.517   9.029  68.450  1.00  0.00    -0.129 C  
BRANCH  19  20
HETATM   20  O   UNL     1      -8.199  10.341  67.848  1.00  0.00    -0.109 OA 
HETATM   21  O   UNL     1      -7.156  10.241  65.890  1.00  0.00    -0.117 OA 
HETATM   22  O   UNL     1      -8.657  12.068  66.478  1.00  0.00    -0.177 OA 
HETATM   23  P   UNL     1      -8.743  10.456  66.210  1.00  0.00    -0.164 P  
HETATM   24  O   UNL     1      -9.230  10.560  64.744  1.00  0.00    -0.195 OA 
ENDBRANCH  19  20
ENDBRANCH  18  19
ENDBRANCH   3  18
BRANCH   3  25
HETATM   25  S   UNL     1     -10.766   9.538  71.063  1.00  0.00    -0.330 SA 
BRANCH  25  26
HETATM   26  C   UNL     1     -12.211  10.612  70.857  1.00  0.00    -0.395 C  
HETATM   27  O   UNL     1     -13.324  10.245  71.215  1.00  0.00    -0.357 OA 
BRANCH  26  28
HETATM   28  C   UNL     1     -12.070  11.973  70.138  1.00  0.00    -0.377 A  
HETATM   29  C   UNL     1     -11.520  13.191  68.036  1.00  0.00    -0.346 A  
HETATM   30  C   UNL     1     -11.647  11.997  68.780  1.00  0.00    -0.366 A  
HETATM   31  C   UNL     1     -12.392  13.220  70.680  1.00  0.00    -0.416 A  
HETATM   32  C   UNL     1     -11.839  14.407  68.627  1.00  0.00    -0.366 A  
HETATM   33  C   UNL     1     -12.282  14.417  69.950  1.00  0.00    -0.394 A  
ENDBRANCH  26  28
ENDBRANCH  25  26
ENDBRANCH   3  25
TORSDOF 9
ENDMDL
MODEL      220
REMARK 921   NORMALIZED FREE ENERGY PREDICTED BY IDOCK:   -4.88 KCAL/MOL
REMARK 922        TOTAL FREE ENERGY PREDICTED BY IDOCK:   -8.96 KCAL/MOL
REMARK 923 INTER-LIGAND FREE ENERGY PREDICTED BY IDOCK:   -7.65 KCAL/MOL
REMARK 924 INTRA-LIGAND FREE ENERGY PREDICTED BY IDOCK:   -1.31 KCAL/MOL
REMARK 927      BINDING AFFINITY PREDICTED BY RF-SCORE:    0.00 PKD
ROOT
HETATM    1  C   UNL     1      -8.471  13.426  67.426  1.00  0.00    -0.197 C  
HETATM    2  C   UNL     1      -9.720  12.528  67.435  1.00  0.00    -0.194 C  
HETATM    3  C   UNL     1      -9.715  11.399  68.207  1.00  0.00    -0.202 C  
ENDROOT
BRANCH   2   4
HETATM    4  N   UNL     1     -10.775  13.036  66.653  1.00  0.00    -0.272 N  
HETATM    5  C   UNL     1     -10.542  13.548  65.366  1.00  0.00    -0.308 C  
HETATM    6  O   UNL     1     -11.304  14.261  64.730  1.00  0.00    -0.352 OA 
BRANCH   4   7
HETATM    7  C   UNL     1     -12.005  13.534  67.307  1.00  0.00    -0.365 C  
BRANCH   7   8
HETATM    8  C   UNL     1     -11.783  14.110  68.694  1.00  0.00    -0.385 A  
HETATM    9  H2  UNL     1     -10.759  15.613  66.858  1.00  0.00     0.000 HD 
HETATM   10  C   UNL     1     -11.957  13.540  69.905  1.00  0.00    -0.348 A  
HETATM   11  N   UNL     1     -11.400  16.128  70.013  1.00  0.00    -0.341 NA 
HETATM   12  N   UNL     1     -12.081  14.185  71.122  1.00  0.00    -0.345 NA 
HETATM   13  H1  UNL     1     -10.497  17.079  67.810  1.00  0.00     0.000 HD 
HETATM   14  C   UNL     1     -12.250  16.262  72.342  1.00  0.00    -0.538 C  
HETATM   15  N   UNL     1     -10.820  16.114  67.745  1.00  0.00    -0.327 NA 
HETATM   16  C   UNL     1     -11.865  15.468  71.121  1.00  0.00    -0.387 A  
HETATM   17  C   UNL     1     -11.308  15.525  68.789  1.00  0.00    -0.334 A  
ENDBRANCH   7   8
ENDBRANCH   4   7
ENDBRANCH   2   4
BRANCH   3  18
HETATM   18  C   UNL     1      -8.600  11.213  69.328  1.00  0.00     0.142 C  
BRANCH  18  19
HETATM   19  C   UNL     1      -8.154   9.735  69.653  1.00  0.00    -0.154 C  
BRANCH  19  20
HETATM   20  O   UNL     1      -7.065   9.589  70.641  1.00  0.00    -0.111 OA 
HETATM   21  O   UNL     1      -7.730   9.046  72.690  1.00  0.00    -0.334 OA 
HETATM   22  O   UNL     1      -5.572   8.359  71.793  1.00  0.00    -0.035 OA 
HETATM   23  P   UNL     1      -7.157   8.088  71.497  1.00  0.00    -0.083 P  
HETATM   24  O   UNL     1      -7.239   6.746  72.263  1.00  0.00    -0.084 OA 
ENDBRANCH  19  20
ENDBRANCH  18  19
ENDBRANCH   3  18
BRANCH   3  25
HETATM   25  S   UNL     1     -10.927  10.037  68.104  1.00  0.00    -0.195 SA 
BRANCH  25  26
HETATM   26  C   UNL     1     -11.704   9.652  69.695  1.00  0.00     0.173 C  
HETATM   27  O   UNL     1     -12.436  10.463  70.252  1.00  0.00    -0.282 OA 
BRANCH  26  28
HETATM   28  C   UNL     1     -11.377   8.325  70.418  1.00  0.00    -0.177 A  
HETATM   29  C   UNL     1     -11.184   7.103  72.578  1.00  0.00    -0.327 A  
HETATM   30  C   UNL     1     -11.437   8.278  71.837  1.00  0.00    -0.372 A  
HETATM   31  C   UNL     1     -11.085   7.108  69.796  1.00  0.00    -0.239 A  
HETATM   32  C   UNL     1     -10.883   5.920  71.913  1.00  0.00    -0.307 A  
HETATM   33  C   UNL     1     -10.842   5.926  70.518  1.00  0.00    -0.366 A  
ENDBRANCH  26  28
ENDBRANCH  25  26
ENDBRANCH   3  25
TORSDOF 9
ENDMDL
MODEL      221
REMARK 921   NORMALIZED FREE ENERGY PREDICTED BY IDOCK:   -4.86 KCAL/MOL
REMARK 922        TOTAL FREE ENERGY PREDICTED BY IDOCK:   -8.93 KCAL/MOL
REMARK 923 INTER-LIGAND FREE ENERGY PREDICTED BY IDOCK:   -7.50 KCAL/MOL
REMARK 924 INTRA-LIGAND FREE ENERGY PREDICTED BY IDOCK:   -1.44 KCAL/MOL
REMARK 927      BINDING AFFINITY PREDICTED BY RF-SCORE:    0.00 PKD
ROOT
HETATM    1  C   UNL     1     -10.379  17.205  69.938  1.00  0.00     0.221 C  
HETATM    2  C   UNL     1     -10.454  16.900  68.432  1.00  0.00    -0.355 C  
HETATM    3  C   UNL     1     -11.103  15.769  68.020  1.00  0.00    -0.337 C  
ENDROOT
BRANCH   2   4
HETATM    4  N   UNL     1      -9.864  17.898  67.633  1.00  0.00    -0.294 N  
HETATM    5  C   UNL     1     -10.652  18.791  66.890  1.00  0.00    -0.409 C  
HETATM    6  O   UNL     1     -10.265  19.488  65.963  1.00  0.00    -0.443 OA 
BRANCH   4   7
HETATM    7  C   UNL     1      -8.483  17.722  67.132  1.00  0.00    -0.228 C  
BRANCH   7   8
HETATM    8  C   UNL     1      -7.406  18.147  68.114  1.00  0.00    -0.254 A  
HETATM    9  H2  UNL     1      -8.039  20.062  66.500  1.00  0.00     0.000 HD 
HETATM   10  C   UNL     1      -6.657  17.400  68.952  1.00  0.00    -0.218 A  
HETATM   11  N   UNL     1      -6.360  20.011  69.294  1.00  0.00    -0.318 NA 
HETATM   12  N   UNL     1      -5.952  17.838  70.058  1.00  0.00    -0.227 NA 
HETATM   13  H1  UNL     1      -7.295  21.414  67.363  1.00  0.00     0.000 HD 
HETATM   14  C   UNL     1      -5.376  19.652  71.545  1.00  0.00    -0.389 C  
HETATM   15  N   UNL     1      -7.506  20.418  67.294  1.00  0.00    -0.305 NA 
HETATM   16  C   UNL     1      -5.886  19.126  70.228  1.00  0.00    -0.219 A  
HETATM   17  C   UNL     1      -7.097  19.606  68.215  1.00  0.00    -0.302 A  
ENDBRANCH   7   8
ENDBRANCH   4   7
ENDBRANCH   2   4
BRANCH   3  18
HETATM   18  C   UNL     1     -12.052  14.989  69.032  1.00  0.00    -0.243 C  
BRANCH  18  19
HETATM   19  C   UNL     1     -12.200  13.433  68.817  1.00  0.00    -0.115 C  
BRANCH  19  20
HETATM   20  O   UNL     1     -11.098  12.599  69.339  1.00  0.00    -0.178 OA 
HETATM   21  O   UNL     1     -11.714  10.600  70.087  1.00  0.00    -0.276 OA 
HETATM   22  O   UNL     1      -9.521  11.009  69.108  1.00  0.00    -0.156 OA 
HETATM   23  P   UNL     1     -11.087  11.017  68.637  1.00  0.00    -0.293 P  
HETATM   24  O   UNL     1     -11.077   9.603  68.009  1.00  0.00    -0.188 OA 
ENDBRANCH  19  20
ENDBRANCH  18  19
ENDBRANCH   3  18
BRANCH   3  25
HETATM   25  S   UNL     1     -11.017  15.046  66.345  1.00  0.00    -0.327 SA 
BRANCH  25  26
HETATM   26  C   UNL     1      -9.858  13.658  66.225  1.00  0.00    -0.301 C  
HETATM   27  O   UNL     1      -8.934  13.537  67.021  1.00  0.00    -0.224 OA 
BRANCH  26  28
HETATM   28  C   UNL     1      -9.967  12.656  65.052  1.00  0.00    -0.179 A  
HETATM   29  C   UNL     1      -9.425  10.393  64.168  1.00  0.00    -0.353 A  
HETATM   30  C   UNL     1      -9.351  11.380  65.175  1.00  0.00    -0.172 A  
HETATM   31  C   UNL     1     -10.690  12.855  63.874  1.00  0.00    -0.390 A  
HETATM   32  C   UNL     1     -10.145  10.645  63.006  1.00  0.00    -0.132 A  
HETATM   33  C   UNL     1     -10.784  11.878  62.866  1.00  0.00     0.106 A  
ENDBRANCH  26  28
ENDBRANCH  25  26
ENDBRANCH   3  25
TORSDOF 9
ENDMDL
MODEL      222
REMARK 921   NORMALIZED FREE ENERGY PREDICTED BY IDOCK:   -4.85 KCAL/MOL
REMARK 922        TOTAL FREE ENERGY PREDICTED BY IDOCK:   -8.92 KCAL/MOL
REMARK 923 INTER-LIGAND FREE ENERGY PREDICTED BY IDOCK:   -7.88 KCAL/MOL
REMARK 924 INTRA-LIGAND FREE ENERGY PREDICTED BY IDOCK:   -1.04 KCAL/MOL
REMARK 927      BINDING AFFINITY PREDICTED BY RF-SCORE:    0.00 PKD
ROOT
HETATM    1  C   UNL     1      -7.134   7.296  68.373  1.00  0.00    -0.081 C  
HETATM    2  C   UNL     1      -8.305   8.293  68.355  1.00  0.00    -0.132 C  
HETATM    3  C   UNL     1      -9.260   8.172  67.384  1.00  0.00    -0.137 C  
ENDROOT
BRANCH   2   4
HETATM    4  N   UNL     1      -8.269   9.211  69.423  1.00  0.00    -0.114 N  
HETATM    5  C   UNL     1      -7.053   9.752  69.873  1.00  0.00    -0.108 C  
HETATM    6  O   UNL     1      -6.871  10.313  70.943  1.00  0.00    -0.339 OA 
BRANCH   4   7
HETATM    7  C   UNL     1      -9.364   9.231  70.416  1.00  0.00    -0.250 C  
BRANCH   7   8
HETATM    8  C   UNL     1      -9.665   7.879  71.037  1.00  0.00    -0.178 A  
HETATM    9  H2  UNL     1      -8.083   9.281  72.522  1.00  0.00     0.000 HD 
HETATM   10  C   UNL     1     -10.250   6.789  70.495  1.00  0.00    -0.192 A  
HETATM   11  N   UNL     1      -9.822   6.586  73.102  1.00  0.00    -0.164 NA 
HETATM   12  N   UNL     1     -10.816   5.722  71.168  1.00  0.00    -0.262 NA 
HETATM   13  H1  UNL     1      -8.210   8.353  74.021  1.00  0.00     0.000 HD 
HETATM   14  C   UNL     1     -11.453   4.721  73.271  1.00  0.00    -0.361 C  
HETATM   15  N   UNL     1      -8.469   8.494  73.044  1.00  0.00    -0.395 NA 
HETATM   16  C   UNL     1     -10.640   5.694  72.457  1.00  0.00    -0.224 A  
HETATM   17  C   UNL     1      -9.286   7.673  72.468  1.00  0.00    -0.157 A  
ENDBRANCH   7   8
ENDBRANCH   4   7
ENDBRANCH   2   4
BRANCH   3  18
HETATM   18  C   UNL     1      -9.348   6.834  66.526  1.00  0.00    -0.197 C  
BRANCH  18  19
HETATM   19  C   UNL     1     -10.556   5.866  66.834  1.00  0.00    -0.315 C  
BRANCH  19  20
HETATM   20  O   UNL     1     -10.364   4.450  66.458  1.00  0.00    -0.203 OA 
HETATM   21  O   UNL     1     -11.014   3.935  64.398  1.00  0.00    -0.281 OA 
HETATM   22  O   UNL     1      -9.182   2.781  65.515  1.00  0.00    -0.151 OA 
HETATM   23  P   UNL     1      -9.519   4.281  64.957  1.00  0.00    -0.170 P  
HETATM   24  O   UNL     1      -8.764   4.130  63.615  1.00  0.00    -0.105 OA 
ENDBRANCH  19  20
ENDBRANCH  18  19
ENDBRANCH   3  18
BRANCH   3  25
HETATM   25  S   UNL     1     -10.522   9.425  66.973  1.00  0.00    -0.201 SA 
BRANCH  25  26
HETATM   26  C   UNL     1     -10.125  10.376  65.483  1.00  0.00    -0.283 C  
HETATM   27  O   UNL     1      -9.176  10.068  64.772  1.00  0.00    -0.209 OA 
BRANCH  26  28
HETATM   28  C   UNL     1     -10.930  11.651  65.139  1.00  0.00    -0.326 A  
HETATM   29  C   UNL     1     -12.016  13.038  63.380  1.00  0.00    -0.592 A  
HETATM   30  C   UNL     1     -11.260  11.915  63.782  1.00  0.00    -0.519 A  
HETATM   31  C   UNL     1     -11.442  12.566  66.063  1.00  0.00    -0.423 A  
HETATM   32  C   UNL     1     -12.491  13.927  64.336  1.00  0.00    -0.321 A  
HETATM   33  C   UNL     1     -12.207  13.683  65.681  1.00  0.00    -0.490 A  
ENDBRANCH  26  28
ENDBRANCH  25  26
ENDBRANCH   3  25
TORSDOF 9
ENDMDL
MODEL      223
REMARK 921   NORMALIZED FREE ENERGY PREDICTED BY IDOCK:   -4.85 KCAL/MOL
REMARK 922        TOTAL FREE ENERGY PREDICTED BY IDOCK:   -8.91 KCAL/MOL
REMARK 923 INTER-LIGAND FREE ENERGY PREDICTED BY IDOCK:   -7.44 KCAL/MOL
REMARK 924 INTRA-LIGAND FREE ENERGY PREDICTED BY IDOCK:   -1.47 KCAL/MOL
REMARK 927      BINDING AFFINITY PREDICTED BY RF-SCORE:    0.00 PKD
ROOT
HETATM    1  C   UNL     1      -8.216   8.469  70.002  1.00  0.00    -0.121 C  
HETATM    2  C   UNL     1      -9.443   9.263  69.526  1.00  0.00    -0.173 C  
HETATM    3  C   UNL     1     -10.511   9.396  70.370  1.00  0.00    -0.256 C  
ENDROOT
BRANCH   2   4
HETATM    4  N   UNL     1      -9.280   9.823  68.244  1.00  0.00    -0.129 N  
HETATM    5  C   UNL     1      -8.724  11.102  68.077  1.00  0.00    -0.141 C  
HETATM    6  O   UNL     1      -8.799  11.789  67.069  1.00  0.00    -0.169 OA 
BRANCH   4   7
HETATM    7  C   UNL     1     -10.129   9.362  67.124  1.00  0.00    -0.231 C  
BRANCH   7   8
HETATM    8  C   UNL     1     -10.068   7.867  66.870  1.00  0.00    -0.362 A  
HETATM    9  H2  UNL     1      -7.969   9.077  65.972  1.00  0.00     0.000 HD 
HETATM   10  C   UNL     1     -11.034   6.931  66.978  1.00  0.00    -0.334 A  
HETATM   11  N   UNL     1      -8.626   5.930  66.510  1.00  0.00    -0.120 NA 
HETATM   12  N   UNL     1     -10.865   5.562  67.079  1.00  0.00    -0.198 NA 
HETATM   13  H1  UNL     1      -6.920   7.675  65.727  1.00  0.00     0.000 HD 
HETATM   14  C   UNL     1      -9.360   3.685  67.276  1.00  0.00    -0.235 C  
HETATM   15  N   UNL     1      -7.815   8.069  66.017  1.00  0.00    -0.091 NA 
HETATM   16  C   UNL     1      -9.655   5.116  66.909  1.00  0.00    -0.148 A  
HETATM   17  C   UNL     1      -8.756   7.290  66.444  1.00  0.00    -0.142 A  
ENDBRANCH   7   8
ENDBRANCH   4   7
ENDBRANCH   2   4
BRANCH   3  18
HETATM   18  C   UNL     1     -10.345   9.048  71.915  1.00  0.00    -0.357 C  
BRANCH  18  19
HETATM   19  C   UNL     1     -11.426   8.091  72.551  1.00  0.00    -0.409 C  
BRANCH  19  20
HETATM   20  O   UNL     1     -10.906   6.994  73.392  1.00  0.00    -0.326 OA 
HETATM   21  O   UNL     1     -11.512   4.956  72.749  1.00  0.00    -0.203 OA 
HETATM   22  O   UNL     1      -9.395   5.395  73.870  1.00  0.00    -0.131 OA 
HETATM   23  P   UNL     1     -10.125   5.767  72.455  1.00  0.00    -0.187 P  
HETATM   24  O   UNL     1      -9.426   4.669  71.616  1.00  0.00    -0.140 OA 
ENDBRANCH  19  20
ENDBRANCH  18  19
ENDBRANCH   3  18
BRANCH   3  25
HETATM   25  S   UNL     1     -12.172   9.988  69.896  1.00  0.00     0.216 SA 
BRANCH  25  26
HETATM   26  C   UNL     1     -12.184  11.712  69.339  1.00  0.00    -0.182 C  
HETATM   27  O   UNL     1     -11.961  11.998  68.168  1.00  0.00    -0.465 OA 
BRANCH  26  28
HETATM   28  C   UNL     1     -12.385  12.856  70.360  1.00  0.00    -0.333 A  
HETATM   29  C   UNL     1     -12.382  15.307  70.794  1.00  0.00    -0.433 A  
HETATM   30  C   UNL     1     -12.191  14.200  69.939  1.00  0.00    -0.416 A  
HETATM   31  C   UNL     1     -12.819  12.704  71.680  1.00  0.00    -0.367 A  
HETATM   32  C   UNL     1     -12.800  15.103  72.103  1.00  0.00    -0.426 A  
HETATM   33  C   UNL     1     -13.025  13.797  72.541  1.00  0.00    -0.431 A  
ENDBRANCH  26  28
ENDBRANCH  25  26
ENDBRANCH   3  25
TORSDOF 9
ENDMDL
MODEL      224
REMARK 921   NORMALIZED FREE ENERGY PREDICTED BY IDOCK:   -4.84 KCAL/MOL
REMARK 922        TOTAL FREE ENERGY PREDICTED BY IDOCK:   -8.89 KCAL/MOL
REMARK 923 INTER-LIGAND FREE ENERGY PREDICTED BY IDOCK:   -7.39 KCAL/MOL
REMARK 924 INTRA-LIGAND FREE ENERGY PREDICTED BY IDOCK:   -1.50 KCAL/MOL
REMARK 927      BINDING AFFINITY PREDICTED BY RF-SCORE:    0.00 PKD
ROOT
HETATM    1  C   UNL     1      -7.864  13.557  67.086  1.00  0.00    -0.025 C  
HETATM    2  C   UNL     1      -9.231  13.425  67.779  1.00  0.00    -0.211 C  
HETATM    3  C   UNL     1      -9.849  12.206  67.791  1.00  0.00    -0.199 C  
ENDROOT
BRANCH   2   4
HETATM    4  N   UNL     1      -9.663  14.620  68.385  1.00  0.00    -0.211 N  
HETATM    5  C   UNL     1      -9.416  14.873  69.745  1.00  0.00     0.164 C  
HETATM    6  O   UNL     1      -9.979  15.714  70.430  1.00  0.00    -0.100 OA 
BRANCH   4   7
HETATM    7  C   UNL     1     -10.800  15.371  67.809  1.00  0.00    -0.302 C  
BRANCH   7   8
HETATM    8  C   UNL     1     -10.403  16.650  67.096  1.00  0.00    -0.300 A  
HETATM    9  H2  UNL     1     -11.237  14.852  65.440  1.00  0.00     0.000 HD 
HETATM   10  C   UNL     1      -9.724  17.723  67.556  1.00  0.00    -0.284 A  
HETATM   11  N   UNL     1     -10.722  18.055  65.124  1.00  0.00    -0.565 NA 
HETATM   12  N   UNL     1      -9.685  18.989  67.002  1.00  0.00    -0.304 NA 
HETATM   13  H1  UNL     1     -11.483  15.872  64.017  1.00  0.00     0.000 HD 
HETATM   14  C   UNL     1     -10.477  20.519  65.310  1.00  0.00     0.473 C  
HETATM   15  N   UNL     1     -11.205  15.768  64.993  1.00  0.00    -0.342 NA 
HETATM   16  C   UNL     1     -10.245  19.126  65.836  1.00  0.00    -0.337 A  
HETATM   17  C   UNL     1     -10.810  16.802  65.665  1.00  0.00    -0.107 A  
ENDBRANCH   7   8
ENDBRANCH   4   7
ENDBRANCH   2   4
BRANCH   3  18
HETATM   18  C   UNL     1      -9.023  10.897  67.417  1.00  0.00    -0.136 C  
BRANCH  18  19
HETATM   19  C   UNL     1      -9.317  10.244  66.011  1.00  0.00    -0.180 C  
BRANCH  19  20
HETATM   20  O   UNL     1      -9.046  11.093  64.833  1.00  0.00    -0.179 OA 
HETATM   21  O   UNL     1     -10.125  10.498  62.985  1.00  0.00    -0.230 OA 
HETATM   22  O   UNL     1      -9.531  12.812  63.461  1.00  0.00     0.183 OA 
HETATM   23  P   UNL     1     -10.501  11.650  64.080  1.00  0.00    -0.429 P  
HETATM   24  O   UNL     1     -11.803  12.148  63.407  1.00  0.00    -0.463 OA 
ENDBRANCH  19  20
ENDBRANCH  18  19
ENDBRANCH   3  18
BRANCH   3  25
HETATM   25  S   UNL     1     -11.592  11.903  68.242  1.00  0.00    -0.330 SA 
BRANCH  25  26
HETATM   26  C   UNL     1     -11.863  11.826  70.032  1.00  0.00    -0.342 C  
HETATM   27  O   UNL     1     -11.495  10.855  70.684  1.00  0.00    -0.302 OA 
BRANCH  26  28
HETATM   28  C   UNL     1     -12.651  12.948  70.747  1.00  0.00    -0.314 A  
HETATM   29  C   UNL     1     -13.818  13.706  72.811  1.00  0.00    -0.265 A  
HETATM   30  C   UNL     1     -13.117  12.728  72.072  1.00  0.00    -0.474 A  
HETATM   31  C   UNL     1     -12.902  14.223  70.234  1.00  0.00    -0.207 A  
HETATM   32  C   UNL     1     -14.055  14.955  72.250  1.00  0.00    -0.600 A  
HETATM   33  C   UNL     1     -13.588  15.213  70.961  1.00  0.00    -0.473 A  
ENDBRANCH  26  28
ENDBRANCH  25  26
ENDBRANCH   3  25
TORSDOF 9
ENDMDL
MODEL      225
REMARK 921   NORMALIZED FREE ENERGY PREDICTED BY IDOCK:   -4.83 KCAL/MOL
REMARK 922        TOTAL FREE ENERGY PREDICTED BY IDOCK:   -8.88 KCAL/MOL
REMARK 923 INTER-LIGAND FREE ENERGY PREDICTED BY IDOCK:   -7.72 KCAL/MOL
REMARK 924 INTRA-LIGAND FREE ENERGY PREDICTED BY IDOCK:   -1.16 KCAL/MOL
REMARK 927      BINDING AFFINITY PREDICTED BY RF-SCORE:    0.00 PKD
ROOT
HETATM    1  C   UNL     1      -8.253  11.469  67.920  1.00  0.00    -0.134 C  
HETATM    2  C   UNL     1      -8.547   9.994  67.597  1.00  0.00    -0.118 C  
HETATM    3  C   UNL     1      -8.686   9.109  68.630  1.00  0.00    -0.129 C  
ENDROOT
BRANCH   2   4
HETATM    4  N   UNL     1      -8.694   9.745  66.219  1.00  0.00    -0.137 N  
HETATM    5  C   UNL     1      -7.624   9.936  65.330  1.00  0.00    -0.130 C  
HETATM    6  O   UNL     1      -7.711  10.031  64.114  1.00  0.00    -0.138 OA 
BRANCH   4   7
HETATM    7  C   UNL     1     -10.035   9.800  65.599  1.00  0.00    -0.282 C  
BRANCH   7   8
HETATM    8  C   UNL     1     -10.491  11.199  65.223  1.00  0.00    -0.326 A  
HETATM    9  H2  UNL     1     -11.643  10.365  67.380  1.00  0.00     0.000 HD 
HETATM   10  C   UNL     1     -10.306  11.890  64.079  1.00  0.00    -0.364 A  
HETATM   11  N   UNL     1     -11.396  13.319  66.025  1.00  0.00    -0.299 NA 
HETATM   12  N   UNL     1     -10.423  13.256  63.899  1.00  0.00    -0.246 NA 
HETATM   13  H1  UNL     1     -12.285  11.903  67.968  1.00  0.00     0.000 HD 
HETATM   14  C   UNL     1     -10.794  15.435  64.873  1.00  0.00    -0.445 C  
HETATM   15  N   UNL     1     -11.763  11.372  67.271  1.00  0.00    -0.583 NA 
HETATM   16  C   UNL     1     -10.900  13.932  64.903  1.00  0.00    -0.405 A  
HETATM   17  C   UNL     1     -11.255  11.977  66.246  1.00  0.00    -0.342 A  
ENDBRANCH   7   8
ENDBRANCH   4   7
ENDBRANCH   2   4
BRANCH   3  18
HETATM   18  C   UNL     1      -8.893   9.650  70.113  1.00  0.00    -0.266 C  
BRANCH  18  19
HETATM   19  C   UNL     1     -10.378   9.739  70.639  1.00  0.00    -0.261 C  
BRANCH  19  20
HETATM   20  O   UNL     1     -10.657   9.044  71.913  1.00  0.00    -0.344 OA 
HETATM   21  O   UNL     1     -12.769   9.149  72.591  1.00  0.00    -0.329 OA 
HETATM   22  O   UNL     1     -11.327   7.253  73.101  1.00  0.00    -0.261 OA 
HETATM   23  P   UNL     1     -11.996   7.957  71.785  1.00  0.00    -0.331 P  
HETATM   24  O   UNL     1     -13.195   6.984  71.671  1.00  0.00    -0.374 OA 
ENDBRANCH  19  20
ENDBRANCH  18  19
ENDBRANCH   3  18
BRANCH   3  25
HETATM   25  S   UNL     1      -8.692   7.290  68.476  1.00  0.00    -0.122 SA 
BRANCH  25  26
HETATM   26  C   UNL     1     -10.078   6.661  67.492  1.00  0.00    -0.160 C  
HETATM   27  O   UNL     1     -11.237   6.834  67.852  1.00  0.00    -0.199 OA 
BRANCH  26  28
HETATM   28  C   UNL     1      -9.810   5.813  66.227  1.00  0.00    -0.136 A  
HETATM   29  C   UNL     1      -8.357   5.394  64.249  1.00  0.00    -0.124 A  
HETATM   30  C   UNL     1      -8.695   6.133  65.404  1.00  0.00    -0.071 A  
HETATM   31  C   UNL     1     -10.533   4.683  65.834  1.00  0.00    -0.305 A  
HETATM   32  C   UNL     1      -9.118   4.287  63.891  1.00  0.00    -0.142 A  
HETATM   33  C   UNL     1     -10.203   3.930  64.692  1.00  0.00    -0.216 A  
ENDBRANCH  26  28
ENDBRANCH  25  26
ENDBRANCH   3  25
TORSDOF 9
ENDMDL
MODEL      226
REMARK 921   NORMALIZED FREE ENERGY PREDICTED BY IDOCK:   -4.83 KCAL/MOL
REMARK 922        TOTAL FREE ENERGY PREDICTED BY IDOCK:   -8.88 KCAL/MOL
REMARK 923 INTER-LIGAND FREE ENERGY PREDICTED BY IDOCK:   -7.85 KCAL/MOL
REMARK 924 INTRA-LIGAND FREE ENERGY PREDICTED BY IDOCK:   -1.03 KCAL/MOL
REMARK 927      BINDING AFFINITY PREDICTED BY RF-SCORE:    0.00 PKD
ROOT
HETATM    1  C   UNL     1      -8.011   9.259  70.709  1.00  0.00    -0.187 C  
HETATM    2  C   UNL     1      -8.348   9.455  69.221  1.00  0.00    -0.131 C  
HETATM    3  C   UNL     1      -7.651  10.388  68.505  1.00  0.00    -0.095 C  
ENDROOT
BRANCH   2   4
HETATM    4  N   UNL     1      -9.338   8.569  68.755  1.00  0.00    -0.143 N  
HETATM    5  C   UNL     1      -9.457   8.271  67.388  1.00  0.00    -0.151 C  
HETATM    6  O   UNL     1     -10.429   7.763  66.847  1.00  0.00    -0.319 OA 
BRANCH   4   7
HETATM    7  C   UNL     1     -10.568   8.354  69.548  1.00  0.00    -0.213 C  
BRANCH   7   8
HETATM    8  C   UNL     1     -11.350   9.622  69.839  1.00  0.00    -0.200 A  
HETATM    9  H2  UNL     1     -11.630   7.872  71.719  1.00  0.00     0.000 HD 
HETATM   10  C   UNL     1     -11.645  10.662  69.030  1.00  0.00    -0.261 A  
HETATM   11  N   UNL     1     -12.321  11.053  71.562  1.00  0.00    -0.255 NA 
HETATM   12  N   UNL     1     -12.046  11.929  69.411  1.00  0.00    -0.256 NA 
HETATM   13  H1  UNL     1     -12.318   8.912  72.972  1.00  0.00     0.000 HD 
HETATM   14  C   UNL     1     -12.474  13.503  71.191  1.00  0.00    -0.424 C  
HETATM   15  N   UNL     1     -11.950   8.790  72.028  1.00  0.00    -0.357 NA 
HETATM   16  C   UNL     1     -12.304  12.098  70.675  1.00  0.00    -0.295 A  
HETATM   17  C   UNL     1     -11.890   9.801  71.222  1.00  0.00    -0.399 A  
ENDBRANCH   7   8
ENDBRANCH   4   7
ENDBRANCH   2   4
BRANCH   3  18
HETATM   18  C   UNL     1      -6.302  10.993  69.097  1.00  0.00    -0.057 C  
BRANCH  18  19
HETATM   19  C   UNL     1      -6.300  12.533  69.439  1.00  0.00    -0.114 C  
BRANCH  19  20
HETATM   20  O   UNL     1      -6.148  13.452  68.292  1.00  0.00    -0.080 OA 
HETATM   21  O   UNL     1      -7.354  15.312  68.420  1.00  0.00    -0.109 OA 
HETATM   22  O   UNL     1      -5.209  15.224  67.269  1.00  0.00    -0.331 OA 
HETATM   23  P   UNL     1      -5.783  15.067  68.793  1.00  0.00    -0.094 P  
HETATM   24  O   UNL     1      -5.455  16.512  69.240  1.00  0.00    -0.130 OA 
ENDBRANCH  19  20
ENDBRANCH  18  19
ENDBRANCH   3  18
BRANCH   3  25
HETATM   25  S   UNL     1      -8.107  11.016  66.853  1.00  0.00    -0.147 SA 
BRANCH  25  26
HETATM   26  C   UNL     1      -9.412  12.273  66.901  1.00  0.00    -0.217 C  
HETATM   27  O   UNL     1      -9.515  13.037  67.854  1.00  0.00    -0.203 OA 
BRANCH  26  28
HETATM   28  C   UNL     1     -10.473  12.333  65.778  1.00  0.00    -0.287 A  
HETATM   29  C   UNL     1     -11.061  11.814  63.415  1.00  0.00    -0.448 A  
HETATM   30  C   UNL     1     -10.145  11.827  64.491  1.00  0.00    -0.312 A  
HETATM   31  C   UNL     1     -11.787  12.784  65.921  1.00  0.00    -0.490 A  
HETATM   32  C   UNL     1     -12.353  12.288  63.605  1.00  0.00    -0.664 A  
HETATM   33  C   UNL     1     -12.715  12.767  64.864  1.00  0.00    -0.479 A  
ENDBRANCH  26  28
ENDBRANCH  25  26
ENDBRANCH   3  25
TORSDOF 9
ENDMDL
MODEL      227
REMARK 921   NORMALIZED FREE ENERGY PREDICTED BY IDOCK:   -4.83 KCAL/MOL
REMARK 922        TOTAL FREE ENERGY PREDICTED BY IDOCK:   -8.88 KCAL/MOL
REMARK 923 INTER-LIGAND FREE ENERGY PREDICTED BY IDOCK:   -7.55 KCAL/MOL
REMARK 924 INTRA-LIGAND FREE ENERGY PREDICTED BY IDOCK:   -1.33 KCAL/MOL
REMARK 927      BINDING AFFINITY PREDICTED BY RF-SCORE:    0.00 PKD
ROOT
HETATM    1  C   UNL     1      -6.978   9.983  67.097  1.00  0.00    -0.084 C  
HETATM    2  C   UNL     1      -8.239   9.248  66.612  1.00  0.00    -0.115 C  
HETATM    3  C   UNL     1      -8.908   8.439  67.489  1.00  0.00    -0.135 C  
ENDROOT
BRANCH   2   4
HETATM    4  N   UNL     1      -8.588   9.559  65.284  1.00  0.00    -0.146 N  
HETATM    5  C   UNL     1      -7.602   9.822  64.319  1.00  0.00    -0.135 C  
HETATM    6  O   UNL     1      -7.783  10.372  63.242  1.00  0.00    -0.149 OA 
BRANCH   4   7
HETATM    7  C   UNL     1      -9.919  10.131  64.986  1.00  0.00    -0.305 C  
BRANCH   7   8
HETATM    8  C   UNL     1     -10.144  11.517  65.563  1.00  0.00    -0.286 A  
HETATM    9  H2  UNL     1     -11.381  11.203  63.316  1.00  0.00     0.000 HD 
HETATM   10  C   UNL     1      -9.514  12.144  66.579  1.00  0.00    -0.231 A  
HETATM   11  N   UNL     1     -11.625  13.456  65.660  1.00  0.00    -0.318 NA 
HETATM   12  N   UNL     1      -9.964  13.239  67.293  1.00  0.00    -0.228 NA 
HETATM   13  H1  UNL     1     -12.463  12.599  63.394  1.00  0.00     0.000 HD 
HETATM   14  C   UNL     1     -11.730  14.827  67.727  1.00  0.00    -0.368 C  
HETATM   15  N   UNL     1     -11.725  12.028  63.808  1.00  0.00    -0.451 NA 
HETATM   16  C   UNL     1     -11.042  13.815  66.848  1.00  0.00    -0.302 A  
HETATM   17  C   UNL     1     -11.226  12.352  64.957  1.00  0.00    -0.312 A  
ENDBRANCH   7   8
ENDBRANCH   4   7
ENDBRANCH   2   4
BRANCH   3  18
HETATM   18  C   UNL     1      -8.599   8.537  69.048  1.00  0.00    -0.130 C  
BRANCH  18  19
HETATM   19  C   UNL     1      -9.542   9.467  69.905  1.00  0.00    -0.223 C  
BRANCH  19  20
HETATM   20  O   UNL     1     -10.872   9.752  69.326  1.00  0.00    -0.219 OA 
HETATM   21  O   UNL     1     -12.487  10.079  70.815  1.00  0.00    -0.306 OA 
HETATM   22  O   UNL     1     -12.483  11.164  68.634  1.00  0.00    -0.463 OA 
HETATM   23  P   UNL     1     -11.587  11.174  70.003  1.00  0.00    -0.308 P  
HETATM   24  O   UNL     1     -12.228  12.447  70.608  1.00  0.00    -0.368 OA 
ENDBRANCH  19  20
ENDBRANCH  18  19
ENDBRANCH   3  18
BRANCH   3  25
HETATM   25  S   UNL     1     -10.199   7.228  67.042  1.00  0.00    -0.292 SA 
BRANCH  25  26
HETATM   26  C   UNL     1     -10.680   6.155  68.421  1.00  0.00    -0.293 C  
HETATM   27  O   UNL     1     -11.414   6.565  69.312  1.00  0.00    -0.340 OA 
BRANCH  26  28
HETATM   28  C   UNL     1     -10.089   4.731  68.538  1.00  0.00    -0.115 A  
HETATM   29  C   UNL     1      -9.138   2.749  67.369  1.00  0.00    -0.208 A  
HETATM   30  C   UNL     1      -9.713   4.039  67.354  1.00  0.00    -0.190 A  
HETATM   31  C   UNL     1      -9.813   4.058  69.732  1.00  0.00    -0.173 A  
HETATM   32  C   UNL     1      -8.898   2.115  68.582  1.00  0.00    -0.149 A  
HETATM   33  C   UNL     1      -9.231   2.778  69.764  1.00  0.00    -0.206 A  
ENDBRANCH  26  28
ENDBRANCH  25  26
ENDBRANCH   3  25
TORSDOF 9
ENDMDL
MODEL      228
REMARK 921   NORMALIZED FREE ENERGY PREDICTED BY IDOCK:   -4.81 KCAL/MOL
REMARK 922        TOTAL FREE ENERGY PREDICTED BY IDOCK:   -8.85 KCAL/MOL
REMARK 923 INTER-LIGAND FREE ENERGY PREDICTED BY IDOCK:   -7.43 KCAL/MOL
REMARK 924 INTRA-LIGAND FREE ENERGY PREDICTED BY IDOCK:   -1.42 KCAL/MOL
REMARK 927      BINDING AFFINITY PREDICTED BY RF-SCORE:    0.00 PKD
ROOT
HETATM    1  C   UNL     1     -10.581  15.332  69.585  1.00  0.00    -0.285 C  
HETATM    2  C   UNL     1     -10.373  14.523  68.293  1.00  0.00    -0.236 C  
HETATM    3  C   UNL     1     -10.693  13.193  68.289  1.00  0.00    -0.245 C  
ENDROOT
BRANCH   2   4
HETATM    4  N   UNL     1      -9.908  15.303  67.217  1.00  0.00    -0.220 N  
HETATM    5  C   UNL     1     -10.767  15.680  66.172  1.00  0.00    -0.303 C  
HETATM    6  O   UNL     1     -10.422  16.095  65.075  1.00  0.00    -0.595 OA 
BRANCH   4   7
HETATM    7  C   UNL     1      -8.471  15.301  66.871  1.00  0.00    -0.252 C  
BRANCH   7   8
HETATM    8  C   UNL     1      -7.654  16.354  67.598  1.00  0.00    -0.161 A  
HETATM    9  H2  UNL     1      -8.081  17.008  65.135  1.00  0.00     0.000 HD 
HETATM   10  C   UNL     1      -7.040  16.295  68.799  1.00  0.00    -0.164 A  
HETATM   11  N   UNL     1      -7.015  18.708  67.704  1.00  0.00    -0.205 NA 
HETATM   12  N   UNL     1      -6.613  17.359  69.572  1.00  0.00    -0.219 NA 
HETATM   13  H1  UNL     1      -7.633  18.716  65.217  1.00  0.00     0.000 HD 
HETATM   14  C   UNL     1      -6.493  19.748  69.898  1.00  0.00    -0.362 C  
HETATM   15  N   UNL     1      -7.751  17.811  65.672  1.00  0.00    -0.499 NA 
HETATM   16  C   UNL     1      -6.679  18.536  69.023  1.00  0.00    -0.272 A  
HETATM   17  C   UNL     1      -7.482  17.681  66.931  1.00  0.00    -0.199 A  
ENDBRANCH   7   8
ENDBRANCH   4   7
ENDBRANCH   2   4
BRANCH   3  18
HETATM   18  C   UNL     1     -11.583  12.591  69.465  1.00  0.00    -0.348 C  
BRANCH  18  19
HETATM   19  C   UNL     1     -11.804  11.029  69.465  1.00  0.00    -0.333 C  
BRANCH  19  20
HETATM   20  O   UNL     1     -10.808  10.233  70.212  1.00  0.00    -0.288 OA 
HETATM   21  O   UNL     1     -11.601   9.191  72.005  1.00  0.00    -0.361 OA 
HETATM   22  O   UNL     1      -9.753   8.303  70.690  1.00  0.00    -0.169 OA 
HETATM   23  P   UNL     1     -11.347   8.615  70.498  1.00  0.00    -0.107 P  
HETATM   24  O   UNL     1     -11.829   7.166  70.755  1.00  0.00    -0.325 OA 
ENDBRANCH  19  20
ENDBRANCH  18  19
ENDBRANCH   3  18
BRANCH   3  25
HETATM   25  S   UNL     1     -10.215  11.989  67.003  1.00  0.00    -0.204 SA 
BRANCH  25  26
HETATM   26  C   UNL     1      -8.761  11.006  67.450  1.00  0.00    -0.132 C  
HETATM   27  O   UNL     1      -7.953  11.415  68.276  1.00  0.00    -0.121 OA 
BRANCH  26  28
HETATM   28  C   UNL     1      -8.471   9.673  66.721  1.00  0.00    -0.129 A  
HETATM   29  C   UNL     1      -9.272   7.397  66.110  1.00  0.00    -0.148 A  
HETATM   30  C   UNL     1      -9.439   8.634  66.771  1.00  0.00    -0.250 A  
HETATM   31  C   UNL     1      -7.349   9.402  65.933  1.00  0.00    -0.095 A  
HETATM   32  C   UNL     1      -8.131   7.170  65.351  1.00  0.00    -0.137 A  
HETATM   33  C   UNL     1      -7.173   8.180  65.259  1.00  0.00    -0.068 A  
ENDBRANCH  26  28
ENDBRANCH  25  26
ENDBRANCH   3  25
TORSDOF 9
ENDMDL
MODEL      229
REMARK 921   NORMALIZED FREE ENERGY PREDICTED BY IDOCK:   -4.80 KCAL/MOL
REMARK 922        TOTAL FREE ENERGY PREDICTED BY IDOCK:   -8.83 KCAL/MOL
REMARK 923 INTER-LIGAND FREE ENERGY PREDICTED BY IDOCK:   -6.74 KCAL/MOL
REMARK 924 INTRA-LIGAND FREE ENERGY PREDICTED BY IDOCK:   -2.09 KCAL/MOL
REMARK 927      BINDING AFFINITY PREDICTED BY RF-SCORE:    0.00 PKD
ROOT
HETATM    1  C   UNL     1     -10.707  10.690  70.025  1.00  0.00    -0.215 C  
HETATM    2  C   UNL     1     -10.003  11.340  68.822  1.00  0.00    -0.193 C  
HETATM    3  C   UNL     1      -8.682  11.061  68.602  1.00  0.00    -0.161 C  
ENDROOT
BRANCH   2   4
HETATM    4  N   UNL     1     -10.862  12.132  68.037  1.00  0.00    -0.213 N  
HETATM    5  C   UNL     1     -11.282  13.399  68.475  1.00  0.00    -0.283 C  
HETATM    6  O   UNL     1     -12.227  14.033  68.031  1.00  0.00    -0.321 OA 
BRANCH   4   7
HETATM    7  C   UNL     1     -11.747  11.494  67.039  1.00  0.00    -0.005 C  
BRANCH   7   8
HETATM    8  C   UNL     1     -11.070  11.180  65.717  1.00  0.00    -0.084 A  
HETATM    9  H2  UNL     1     -12.982  12.893  65.428  1.00  0.00     0.000 HD 
HETATM   10  C   UNL     1     -10.200  10.196  65.404  1.00  0.00    -0.211 A  
HETATM   11  N   UNL     1     -10.544  11.974  63.469  1.00  0.00    -0.440 NA 
HETATM   12  N   UNL     1      -9.351  10.148  64.313  1.00  0.00    -0.275 NA 
HETATM   13  H1  UNL     1     -12.591  13.479  63.807  1.00  0.00     0.000 HD 
HETATM   14  C   UNL     1      -8.447  11.241  62.360  1.00  0.00    -0.201 C  
HETATM   15  N   UNL     1     -12.387  12.871  64.600  1.00  0.00    -0.482 NA 
HETATM   16  C   UNL     1      -9.507  11.078  63.418  1.00  0.00    -0.310 A  
HETATM   17  C   UNL     1     -11.370  12.071  64.555  1.00  0.00    -0.330 A  
ENDBRANCH   7   8
ENDBRANCH   4   7
ENDBRANCH   2   4
BRANCH   3  18
HETATM   18  C   UNL     1      -7.999   9.832  69.349  1.00  0.00    -0.125 C  
BRANCH  18  19
HETATM   19  C   UNL     1      -8.077   8.428  68.633  1.00  0.00    -0.122 C  
BRANCH  19  20
HETATM   20  O   UNL     1      -9.282   8.185  67.814  1.00  0.00    -0.134 OA 
HETATM   21  O   UNL     1      -8.945   6.947  66.001  1.00  0.00    -0.155 OA 
HETATM   22  O   UNL     1     -11.062   6.946  67.206  1.00  0.00    -0.339 OA 
HETATM   23  P   UNL     1      -9.509   6.505  67.469  1.00  0.00    -0.130 P  
HETATM   24  O   UNL     1      -9.712   5.001  67.160  1.00  0.00    -0.142 OA 
ENDBRANCH  19  20
ENDBRANCH  18  19
ENDBRANCH   3  18
BRANCH   3  25
HETATM   25  S   UNL     1      -7.581  11.969  67.464  1.00  0.00    -0.158 SA 
BRANCH  25  26
HETATM   26  C   UNL     1      -7.414  13.724  67.880  1.00  0.00    -0.152 C  
HETATM   27  O   UNL     1      -6.541  14.110  68.649  1.00  0.00    -0.081 OA 
BRANCH  26  28
HETATM   28  C   UNL     1      -8.436  14.751  67.338  1.00  0.00    -0.218 A  
HETATM   29  C   UNL     1      -9.642  16.899  67.693  1.00  0.00    -0.248 A  
HETATM   30  C   UNL     1      -8.745  15.896  68.121  1.00  0.00    -0.171 A  
HETATM   31  C   UNL     1      -9.056  14.702  66.087  1.00  0.00    -0.125 A  
HETATM   32  C   UNL     1     -10.246  16.797  66.445  1.00  0.00    -0.329 A  
HETATM   33  C   UNL     1      -9.944  15.698  65.641  1.00  0.00    -0.388 A  
ENDBRANCH  26  28
ENDBRANCH  25  26
ENDBRANCH   3  25
TORSDOF 9
ENDMDL
MODEL      230
REMARK 921   NORMALIZED FREE ENERGY PREDICTED BY IDOCK:   -4.79 KCAL/MOL
REMARK 922        TOTAL FREE ENERGY PREDICTED BY IDOCK:   -8.83 KCAL/MOL
REMARK 923 INTER-LIGAND FREE ENERGY PREDICTED BY IDOCK:   -7.25 KCAL/MOL
REMARK 924 INTRA-LIGAND FREE ENERGY PREDICTED BY IDOCK:   -1.57 KCAL/MOL
REMARK 927      BINDING AFFINITY PREDICTED BY RF-SCORE:    0.00 PKD
ROOT
HETATM    1  C   UNL     1      -7.512   9.779  70.365  1.00  0.00    -0.161 C  
HETATM    2  C   UNL     1      -8.265   9.220  69.146  1.00  0.00    -0.111 C  
HETATM    3  C   UNL     1      -9.178  10.016  68.513  1.00  0.00    -0.141 C  
ENDROOT
BRANCH   2   4
HETATM    4  N   UNL     1      -7.858   7.919  68.791  1.00  0.00    -0.116 N  
HETATM    5  C   UNL     1      -7.746   7.537  67.444  1.00  0.00    -0.117 C  
HETATM    6  O   UNL     1      -7.688   6.390  67.027  1.00  0.00    -0.097 OA 
BRANCH   4   7
HETATM    7  C   UNL     1      -8.050   6.801  69.740  1.00  0.00    -0.126 C  
BRANCH   7   8
HETATM    8  C   UNL     1      -9.478   6.637  70.227  1.00  0.00    -0.166 A  
HETATM    9  H2  UNL     1      -7.824   6.922  72.192  1.00  0.00     0.000 HD 
HETATM   10  C   UNL     1     -10.582   6.248  69.555  1.00  0.00    -0.271 A  
HETATM   11  N   UNL     1     -11.075   7.094  72.017  1.00  0.00    -0.238 NA 
HETATM   12  N   UNL     1     -11.900   6.442  69.928  1.00  0.00    -0.271 NA 
HETATM   13  H1  UNL     1      -8.980   7.269  73.484  1.00  0.00     0.000 HD 
HETATM   14  C   UNL     1     -13.478   7.410  71.478  1.00  0.00    -0.445 C  
HETATM   15  N   UNL     1      -8.786   7.054  72.505  1.00  0.00    -0.124 NA 
HETATM   16  C   UNL     1     -12.098   6.922  71.120  1.00  0.00    -0.381 A  
HETATM   17  C   UNL     1      -9.762   6.951  71.662  1.00  0.00    -0.161 A  
ENDBRANCH   7   8
ENDBRANCH   4   7
ENDBRANCH   2   4
BRANCH   3  18
HETATM   18  C   UNL     1      -9.199  11.581  68.805  1.00  0.00    -0.076 C  
BRANCH  18  19
HETATM   19  C   UNL     1      -8.150  12.466  68.026  1.00  0.00    -0.162 C  
BRANCH  19  20
HETATM   20  O   UNL     1      -7.982  13.851  68.514  1.00  0.00    -0.137 OA 
HETATM   21  O   UNL     1      -6.523  15.073  67.368  1.00  0.00    -0.286 OA 
HETATM   22  O   UNL     1      -8.463  16.050  68.471  1.00  0.00    -0.172 OA 
HETATM   23  P   UNL     1      -8.151  15.015  67.244  1.00  0.00    -0.201 P  
HETATM   24  O   UNL     1      -8.302  16.056  66.109  1.00  0.00    -0.307 OA 
ENDBRANCH  19  20
ENDBRANCH  18  19
ENDBRANCH   3  18
BRANCH   3  25
HETATM   25  S   UNL     1     -10.409   9.454  67.287  1.00  0.00    -0.260 SA 
BRANCH  25  26
HETATM   26  C   UNL     1     -10.282  10.316  65.699  1.00  0.00    -0.231 C  
HETATM   27  O   UNL     1      -9.703   9.804  64.748  1.00  0.00    -0.283 OA 
BRANCH  26  28
HETATM   28  C   UNL     1     -10.825  11.757  65.553  1.00  0.00    -0.348 A  
HETATM   29  C   UNL     1     -12.321  13.537  66.444  1.00  0.00    -0.413 A  
HETATM   30  C   UNL     1     -11.793  12.227  66.483  1.00  0.00    -0.378 A  
HETATM   31  C   UNL     1     -10.399  12.698  64.612  1.00  0.00    -0.354 A  
HETATM   32  C   UNL     1     -11.875  14.431  65.478  1.00  0.00    -0.357 A  
HETATM   33  C   UNL     1     -10.906  14.009  64.567  1.00  0.00    -0.362 A  
ENDBRANCH  26  28
ENDBRANCH  25  26
ENDBRANCH   3  25
TORSDOF 9
ENDMDL
MODEL      231
REMARK 921   NORMALIZED FREE ENERGY PREDICTED BY IDOCK:   -4.79 KCAL/MOL
REMARK 922        TOTAL FREE ENERGY PREDICTED BY IDOCK:   -8.82 KCAL/MOL
REMARK 923 INTER-LIGAND FREE ENERGY PREDICTED BY IDOCK:   -6.59 KCAL/MOL
REMARK 924 INTRA-LIGAND FREE ENERGY PREDICTED BY IDOCK:   -2.23 KCAL/MOL
REMARK 927      BINDING AFFINITY PREDICTED BY RF-SCORE:    0.00 PKD
ROOT
HETATM    1  C   UNL     1      -9.261   3.326  67.850  1.00  0.00    -0.242 C  
HETATM    2  C   UNL     1      -9.616   4.639  67.132  1.00  0.00    -0.176 C  
HETATM    3  C   UNL     1     -10.098   5.684  67.869  1.00  0.00    -0.168 C  
ENDROOT
BRANCH   2   4
HETATM    4  N   UNL     1      -9.336   4.610  65.752  1.00  0.00    -0.149 N  
HETATM    5  C   UNL     1     -10.249   4.059  64.838  1.00  0.00    -0.200 C  
HETATM    6  O   UNL     1     -10.000   3.724  63.690  1.00  0.00    -0.158 OA 
BRANCH   4   7
HETATM    7  C   UNL     1      -7.934   4.650  65.283  1.00  0.00    -0.095 C  
BRANCH   7   8
HETATM    8  C   UNL     1      -7.247   5.988  65.487  1.00  0.00    -0.074 A  
HETATM    9  H2  UNL     1      -8.113   5.718  63.068  1.00  0.00     0.000 HD 
HETATM   10  C   UNL     1      -6.480   6.419  66.512  1.00  0.00    -0.047 A  
HETATM   11  N   UNL     1      -7.065   8.308  64.748  1.00  0.00    -0.078 NA 
HETATM   12  N   UNL     1      -6.168   7.728  66.829  1.00  0.00    -0.048 NA 
HETATM   13  H1  UNL     1      -7.996   7.400  62.539  1.00  0.00     0.000 HD 
HETATM   14  C   UNL     1      -6.469  10.081  66.380  1.00  0.00    -0.075 C  
HETATM   15  N   UNL     1      -7.876   6.691  63.262  1.00  0.00    -0.115 NA 
HETATM   16  C   UNL     1      -6.532   8.633  65.969  1.00  0.00    -0.057 A  
HETATM   17  C   UNL     1      -7.423   7.027  64.427  1.00  0.00    -0.100 A  
ENDBRANCH   7   8
ENDBRANCH   4   7
ENDBRANCH   2   4
BRANCH   3  18
HETATM   18  C   UNL     1      -9.956   5.664  69.455  1.00  0.00    -0.263 C  
BRANCH  18  19
HETATM   19  C   UNL     1     -11.227   6.085  70.291  1.00  0.00    -0.322 C  
BRANCH  19  20
HETATM   20  O   UNL     1     -11.323   7.516  70.647  1.00  0.00    -0.279 OA 
HETATM   21  O   UNL     1     -11.700   7.919  72.799  1.00  0.00    -0.364 OA 
HETATM   22  O   UNL     1     -10.436   9.449  71.386  1.00  0.00    -0.333 OA 
HETATM   23  P   UNL     1     -10.291   7.929  71.973  1.00  0.00    -0.265 P  
HETATM   24  O   UNL     1      -9.367   8.299  73.159  1.00  0.00    -0.261 OA 
ENDBRANCH  19  20
ENDBRANCH  18  19
ENDBRANCH   3  18
BRANCH   3  25
HETATM   25  S   UNL     1     -10.892   7.183  67.195  1.00  0.00    -0.254 SA 
BRANCH  25  26
HETATM   26  C   UNL     1      -9.980   8.704  67.567  1.00  0.00    -0.199 C  
HETATM   27  O   UNL     1      -9.072   8.709  68.391  1.00  0.00    -0.138 OA 
BRANCH  26  28
HETATM   28  C   UNL     1     -10.402  10.041  66.915  1.00  0.00    -0.297 A  
HETATM   29  C   UNL     1     -10.341  11.507  64.903  1.00  0.00    -0.340 A  
HETATM   30  C   UNL     1      -9.978  10.326  65.588  1.00  0.00    -0.347 A  
HETATM   31  C   UNL     1     -11.241  11.000  67.488  1.00  0.00    -0.372 A  
HETATM   32  C   UNL     1     -11.167  12.437  65.523  1.00  0.00    -0.364 A  
HETATM   33  C   UNL     1     -11.621  12.175  66.816  1.00  0.00    -0.412 A  
ENDBRANCH  26  28
ENDBRANCH  25  26
ENDBRANCH   3  25
TORSDOF 9
ENDMDL
MODEL      232
REMARK 921   NORMALIZED FREE ENERGY PREDICTED BY IDOCK:   -4.79 KCAL/MOL
REMARK 922        TOTAL FREE ENERGY PREDICTED BY IDOCK:   -8.81 KCAL/MOL
REMARK 923 INTER-LIGAND FREE ENERGY PREDICTED BY IDOCK:   -8.55 KCAL/MOL
REMARK 924 INTRA-LIGAND FREE ENERGY PREDICTED BY IDOCK:   -0.27 KCAL/MOL
REMARK 927      BINDING AFFINITY PREDICTED BY RF-SCORE:    0.00 PKD
ROOT
HETATM    1  C   UNL     1     -11.165   6.096  69.602  1.00  0.00    -0.488 C  
HETATM    2  C   UNL     1     -10.935   7.610  69.452  1.00  0.00    -0.057 C  
HETATM    3  C   UNL     1     -11.090   8.412  70.549  1.00  0.00    -0.252 C  
ENDROOT
BRANCH   2   4
HETATM    4  N   UNL     1     -10.524   7.984  68.158  1.00  0.00    -0.194 N  
HETATM    5  C   UNL     1     -10.494   9.333  67.769  1.00  0.00    -0.255 C  
HETATM    6  O   UNL     1     -10.438   9.746  66.621  1.00  0.00    -0.218 OA 
BRANCH   4   7
HETATM    7  C   UNL     1     -10.626   7.017  67.043  1.00  0.00    -0.341 C  
BRANCH   7   8
HETATM    8  C   UNL     1      -9.289   6.520  66.527  1.00  0.00    -0.188 A  
HETATM    9  H2  UNL     1     -11.076   4.654  66.508  1.00  0.00     0.000 HD 
HETATM   10  C   UNL     1      -8.070   7.098  66.583  1.00  0.00    -0.109 A  
HETATM   11  N   UNL     1      -8.139   4.894  65.114  1.00  0.00    -0.108 NA 
HETATM   12  N   UNL     1      -6.963   6.791  65.814  1.00  0.00    -0.062 NA 
HETATM   13  H1  UNL     1     -10.249   3.484  65.472  1.00  0.00     0.000 HD 
HETATM   14  C   UNL     1      -6.008   5.514  64.001  1.00  0.00    -0.021 C  
HETATM   15  N   UNL     1     -10.267   4.387  65.946  1.00  0.00    -0.246 NA 
HETATM   16  C   UNL     1      -7.061   5.740  65.054  1.00  0.00    -0.064 A  
HETATM   17  C   UNL     1      -9.263   5.196  65.833  1.00  0.00    -0.158 A  
ENDBRANCH   7   8
ENDBRANCH   4   7
ENDBRANCH   2   4
BRANCH   3  18
HETATM   18  C   UNL     1     -11.153   7.762  72.001  1.00  0.00    -0.318 C  
BRANCH  18  19
HETATM   19  C   UNL     1      -9.900   7.980  72.935  1.00  0.00    -0.287 C  
BRANCH  19  20
HETATM   20  O   UNL     1      -8.873   8.916  72.434  1.00  0.00    -0.396 OA 
HETATM   21  O   UNL     1      -6.938   8.850  73.522  1.00  0.00    -0.351 OA 
HETATM   22  O   UNL     1      -7.087   9.419  71.158  1.00  0.00    -0.244 OA 
HETATM   23  P   UNL     1      -7.365   8.126  72.121  1.00  0.00    -0.105 P  
HETATM   24  O   UNL     1      -6.017   7.420  71.841  1.00  0.00    -0.037 OA 
ENDBRANCH  19  20
ENDBRANCH  18  19
ENDBRANCH   3  18
BRANCH   3  25
HETATM   25  S   UNL     1     -11.204  10.234  70.524  1.00  0.00    -0.309 SA 
BRANCH  25  26
HETATM   26  C   UNL     1     -12.629  10.873  71.443  1.00  0.00    -0.403 C  
HETATM   27  O   UNL     1     -13.420  10.112  71.989  1.00  0.00    -0.403 OA 
BRANCH  26  28
HETATM   28  C   UNL     1     -12.916  12.392  71.471  1.00  0.00    -0.385 A  
HETATM   29  C   UNL     1     -12.475  14.631  70.475  1.00  0.00    -0.408 A  
HETATM   30  C   UNL     1     -12.251  13.238  70.542  1.00  0.00    -0.416 A  
HETATM   31  C   UNL     1     -13.845  13.032  72.296  1.00  0.00    -0.529 A  
HETATM   32  C   UNL     1     -13.398  15.222  71.329  1.00  0.00    -0.586 A  
HETATM   33  C   UNL     1     -14.088  14.416  72.235  1.00  0.00    -0.609 A  
ENDBRANCH  26  28
ENDBRANCH  25  26
ENDBRANCH   3  25
TORSDOF 9
ENDMDL
MODEL      233
REMARK 921   NORMALIZED FREE ENERGY PREDICTED BY IDOCK:   -4.79 KCAL/MOL
REMARK 922        TOTAL FREE ENERGY PREDICTED BY IDOCK:   -8.81 KCAL/MOL
REMARK 923 INTER-LIGAND FREE ENERGY PREDICTED BY IDOCK:   -7.48 KCAL/MOL
REMARK 924 INTRA-LIGAND FREE ENERGY PREDICTED BY IDOCK:   -1.33 KCAL/MOL
REMARK 927      BINDING AFFINITY PREDICTED BY RF-SCORE:    0.00 PKD
ROOT
HETATM    1  C   UNL     1      -8.146   8.919  64.886  1.00  0.00    -0.144 C  
HETATM    2  C   UNL     1      -8.321   9.383  66.342  1.00  0.00    -0.115 C  
HETATM    3  C   UNL     1      -9.285  10.310  66.627  1.00  0.00    -0.155 C  
ENDROOT
BRANCH   2   4
HETATM    4  N   UNL     1      -7.463   8.723  67.242  1.00  0.00    -0.088 N  
HETATM    5  C   UNL     1      -6.073   8.715  67.044  1.00  0.00    -0.055 C  
HETATM    6  O   UNL     1      -5.277   7.955  67.577  1.00  0.00    -0.029 OA 
BRANCH   4   7
HETATM    7  C   UNL     1      -7.979   7.616  68.077  1.00  0.00    -0.122 C  
BRANCH   7   8
HETATM    8  C   UNL     1      -8.473   6.419  67.285  1.00  0.00    -0.111 A  
HETATM    9  H2  UNL     1     -10.403   7.612  68.521  1.00  0.00     0.000 HD 
HETATM   10  C   UNL     1      -7.777   5.422  66.699  1.00  0.00    -0.100 A  
HETATM   11  N   UNL     1     -10.366   5.390  66.136  1.00  0.00    -0.173 NA 
HETATM   12  N   UNL     1      -8.220   4.561  65.712  1.00  0.00    -0.109 NA 
HETATM   13  H1  UNL     1     -11.773   6.879  67.677  1.00  0.00     0.000 HD 
HETATM   14  C   UNL     1      -9.969   3.918  64.177  1.00  0.00    -0.194 C  
HETATM   15  N   UNL     1     -10.766   6.973  67.813  1.00  0.00    -0.232 NA 
HETATM   16  C   UNL     1      -9.485   4.623  65.417  1.00  0.00    -0.171 A  
HETATM   17  C   UNL     1      -9.949   6.281  67.087  1.00  0.00    -0.151 A  
ENDBRANCH   7   8
ENDBRANCH   4   7
ENDBRANCH   2   4
BRANCH   3  18
HETATM   18  C   UNL     1     -10.419  10.627  65.555  1.00  0.00    -0.246 C  
BRANCH  18  19
HETATM   19  C   UNL     1     -10.160  11.842  64.581  1.00  0.00    -0.269 C  
BRANCH  19  20
HETATM   20  O   UNL     1     -11.293  12.233  63.717  1.00  0.00    -0.382 OA 
HETATM   21  O   UNL     1     -13.291  12.095  64.678  1.00  0.00    -0.608 OA 
HETATM   22  O   UNL     1     -12.786  13.731  62.944  1.00  0.00    -0.558 OA 
HETATM   23  P   UNL     1     -12.324  13.396  64.477  1.00  0.00    -0.303 P  
HETATM   24  O   UNL     1     -13.246  14.437  65.157  1.00  0.00    -0.602 OA 
ENDBRANCH  19  20
ENDBRANCH  18  19
ENDBRANCH   3  18
BRANCH   3  25
HETATM   25  S   UNL     1      -9.435  11.239  68.192  1.00  0.00    -0.190 SA 
BRANCH  25  26
HETATM   26  C   UNL     1     -10.847  12.375  68.215  1.00  0.00    -0.237 C  
HETATM   27  O   UNL     1     -11.972  11.988  67.923  1.00  0.00    -0.526 OA 
BRANCH  26  28
HETATM   28  C   UNL     1     -10.629  13.876  68.516  1.00  0.00    -0.260 A  
HETATM   29  C   UNL     1      -9.440  15.984  67.930  1.00  0.00    -0.210 A  
HETATM   30  C   UNL     1      -9.682  14.605  67.746  1.00  0.00    -0.215 A  
HETATM   31  C   UNL     1     -11.342  14.633  69.450  1.00  0.00    -0.314 A  
HETATM   32  C   UNL     1     -10.165  16.689  68.884  1.00  0.00    -0.284 A  
HETATM   33  C   UNL     1     -11.122  16.009  69.639  1.00  0.00    -0.331 A  
ENDBRANCH  26  28
ENDBRANCH  25  26
ENDBRANCH   3  25
TORSDOF 9
ENDMDL
MODEL      234
REMARK 921   NORMALIZED FREE ENERGY PREDICTED BY IDOCK:   -4.78 KCAL/MOL
REMARK 922        TOTAL FREE ENERGY PREDICTED BY IDOCK:   -8.80 KCAL/MOL
REMARK 923 INTER-LIGAND FREE ENERGY PREDICTED BY IDOCK:   -7.21 KCAL/MOL
REMARK 924 INTRA-LIGAND FREE ENERGY PREDICTED BY IDOCK:   -1.59 KCAL/MOL
REMARK 927      BINDING AFFINITY PREDICTED BY RF-SCORE:    0.00 PKD
ROOT
HETATM    1  C   UNL     1     -10.783   6.653  66.678  1.00  0.00    -0.216 C  
HETATM    2  C   UNL     1      -9.478   7.285  67.192  1.00  0.00    -0.145 C  
HETATM    3  C   UNL     1      -8.884   6.757  68.304  1.00  0.00    -0.125 C  
ENDROOT
BRANCH   2   4
HETATM    4  N   UNL     1      -9.015   8.340  66.382  1.00  0.00    -0.157 N  
HETATM    5  C   UNL     1      -8.086   8.110  65.354  1.00  0.00    -0.130 C  
HETATM    6  O   UNL     1      -7.411   8.962  64.795  1.00  0.00    -0.098 OA 
BRANCH   4   7
HETATM    7  C   UNL     1      -9.052   9.729  66.888  1.00  0.00    -0.142 C  
BRANCH   7   8
HETATM    8  C   UNL     1     -10.133  10.591  66.261  1.00  0.00    -0.290 A  
HETATM    9  H2  UNL     1     -10.812   9.764  68.613  1.00  0.00     0.000 HD 
HETATM   10  C   UNL     1     -10.265  11.022  64.989  1.00  0.00    -0.299 A  
HETATM   11  N   UNL     1     -12.027  12.077  66.663  1.00  0.00    -0.603 NA 
HETATM   12  N   UNL     1     -11.049  12.069  64.538  1.00  0.00    -0.317 NA 
HETATM   13  H1  UNL     1     -12.174  10.852  68.910  1.00  0.00     0.000 HD 
HETATM   14  C   UNL     1     -12.522  13.909  65.062  1.00  0.00    -0.447 C  
HETATM   15  N   UNL     1     -11.421  10.523  68.305  1.00  0.00    -0.352 NA 
HETATM   16  C   UNL     1     -11.853  12.605  65.409  1.00  0.00    -0.427 A  
HETATM   17  C   UNL     1     -11.237  11.071  67.147  1.00  0.00    -0.217 A  
ENDBRANCH   7   8
ENDBRANCH   4   7
ENDBRANCH   2   4
BRANCH   3  18
HETATM   18  C   UNL     1      -9.330   5.323  68.833  1.00  0.00    -0.163 C  
BRANCH  18  19
HETATM   19  C   UNL     1      -9.848   5.241  70.322  1.00  0.00    -0.215 C  
BRANCH  19  20
HETATM   20  O   UNL     1     -11.266   5.597  70.534  1.00  0.00    -0.216 OA 
HETATM   21  O   UNL     1     -11.930   5.560  72.654  1.00  0.00    -0.245 OA 
HETATM   22  O   UNL     1     -12.901   7.072  71.008  1.00  0.00    -0.349 OA 
HETATM   23  P   UNL     1     -11.457   6.827  71.736  1.00  0.00    -0.314 P  
HETATM   24  O   UNL     1     -11.628   7.927  72.812  1.00  0.00    -0.383 OA 
ENDBRANCH  19  20
ENDBRANCH  18  19
ENDBRANCH   3  18
BRANCH   3  25
HETATM   25  S   UNL     1      -7.549   7.544  69.270  1.00  0.00    -0.101 SA 
BRANCH  25  26
HETATM   26  C   UNL     1      -8.162   8.575  70.628  1.00  0.00    -0.123 C  
HETATM   27  O   UNL     1      -9.071   9.378  70.449  1.00  0.00    -0.223 OA 
BRANCH  26  28
HETATM   28  C   UNL     1      -7.479   8.521  72.014  1.00  0.00    -0.120 A  
HETATM   29  C   UNL     1      -5.415   8.902  73.353  1.00  0.00    -0.100 A  
HETATM   30  C   UNL     1      -6.111   8.893  72.124  1.00  0.00    -0.061 A  
HETATM   31  C   UNL     1      -8.105   8.199  73.221  1.00  0.00    -0.246 A  
HETATM   32  C   UNL     1      -6.080   8.560  74.524  1.00  0.00    -0.141 A  
HETATM   33  C   UNL     1      -7.430   8.215  74.454  1.00  0.00    -0.252 A  
ENDBRANCH  26  28
ENDBRANCH  25  26
ENDBRANCH   3  25
TORSDOF 9
ENDMDL
MODEL      235
REMARK 921   NORMALIZED FREE ENERGY PREDICTED BY IDOCK:   -4.78 KCAL/MOL
REMARK 922        TOTAL FREE ENERGY PREDICTED BY IDOCK:   -8.80 KCAL/MOL
REMARK 923 INTER-LIGAND FREE ENERGY PREDICTED BY IDOCK:   -7.12 KCAL/MOL
REMARK 924 INTRA-LIGAND FREE ENERGY PREDICTED BY IDOCK:   -1.68 KCAL/MOL
REMARK 927      BINDING AFFINITY PREDICTED BY RF-SCORE:    0.00 PKD
ROOT
HETATM    1  C   UNL     1     -10.828   5.724  68.893  1.00  0.00    -0.305 C  
HETATM    2  C   UNL     1     -11.157   6.886  69.845  1.00  0.00    -0.288 C  
HETATM    3  C   UNL     1     -10.652   8.127  69.571  1.00  0.00    -0.213 C  
ENDROOT
BRANCH   2   4
HETATM    4  N   UNL     1     -12.020   6.517  70.895  1.00  0.00    -0.348 N  
HETATM    5  C   UNL     1     -13.187   7.250  71.166  1.00  0.00    -0.205 C  
HETATM    6  O   UNL     1     -13.839   7.203  72.199  1.00  0.00    -0.133 OA 
BRANCH   4   7
HETATM    7  C   UNL     1     -11.501   5.730  72.035  1.00  0.00    -0.197 C  
BRANCH   7   8
HETATM    8  C   UNL     1     -10.248   6.306  72.669  1.00  0.00    -0.203 A  
HETATM    9  H2  UNL     1      -9.769   4.072  71.463  1.00  0.00     0.000 HD 
HETATM   10  C   UNL     1     -10.113   7.314  73.556  1.00  0.00    -0.340 A  
HETATM   11  N   UNL     1      -7.810   6.413  72.605  1.00  0.00    -0.104 NA 
HETATM   12  N   UNL     1      -8.964   8.031  73.839  1.00  0.00    -0.238 NA 
HETATM   13  H1  UNL     1      -8.005   4.158  71.403  1.00  0.00     0.000 HD 
HETATM   14  C   UNL     1      -6.644   8.478  73.342  1.00  0.00    -0.092 C  
HETATM   15  N   UNL     1      -8.901   4.565  71.671  1.00  0.00    -0.118 NA 
HETATM   16  C   UNL     1      -7.864   7.595  73.299  1.00  0.00    -0.116 A  
HETATM   17  C   UNL     1      -8.935   5.709  72.276  1.00  0.00    -0.139 A  
ENDBRANCH   7   8
ENDBRANCH   4   7
ENDBRANCH   2   4
BRANCH   3  18
HETATM   18  C   UNL     1     -10.046   8.433  68.131  1.00  0.00    -0.239 C  
BRANCH  18  19
HETATM   19  C   UNL     1      -8.634   9.137  68.085  1.00  0.00    -0.129 C  
BRANCH  19  20
HETATM   20  O   UNL     1      -7.547   8.369  67.445  1.00  0.00    -0.095 OA 
HETATM   21  O   UNL     1      -6.020   7.567  68.844  1.00  0.00    -0.028 OA 
HETATM   22  O   UNL     1      -6.602   6.442  66.763  1.00  0.00    -0.048 OA 
HETATM   23  P   UNL     1      -7.316   6.822  68.185  1.00  0.00    -0.101 P  
HETATM   24  O   UNL     1      -7.109   5.438  68.847  1.00  0.00    -0.058 OA 
ENDBRANCH  19  20
ENDBRANCH  18  19
ENDBRANCH   3  18
BRANCH   3  25
HETATM   25  S   UNL     1     -10.629   9.543  70.724  1.00  0.00    -0.327 SA 
BRANCH  25  26
HETATM   26  C   UNL     1     -11.995  10.703  70.458  1.00  0.00    -0.352 C  
HETATM   27  O   UNL     1     -13.050  10.585  71.069  1.00  0.00    -0.377 OA 
BRANCH  26  28
HETATM   28  C   UNL     1     -11.877  11.806  69.381  1.00  0.00    -0.398 A  
HETATM   29  C   UNL     1     -11.702  12.370  66.962  1.00  0.00    -0.423 A  
HETATM   30  C   UNL     1     -11.782  11.430  68.013  1.00  0.00    -0.324 A  
HETATM   31  C   UNL     1     -11.925  13.183  69.615  1.00  0.00    -0.370 A  
HETATM   32  C   UNL     1     -11.739  13.729  67.249  1.00  0.00    -0.416 A  
HETATM   33  C   UNL     1     -11.858  14.132  68.579  1.00  0.00    -0.390 A  
ENDBRANCH  26  28
ENDBRANCH  25  26
ENDBRANCH   3  25
TORSDOF 9
ENDMDL
MODEL      236
REMARK 921   NORMALIZED FREE ENERGY PREDICTED BY IDOCK:   -4.77 KCAL/MOL
REMARK 922        TOTAL FREE ENERGY PREDICTED BY IDOCK:   -8.78 KCAL/MOL
REMARK 923 INTER-LIGAND FREE ENERGY PREDICTED BY IDOCK:   -7.32 KCAL/MOL
REMARK 924 INTRA-LIGAND FREE ENERGY PREDICTED BY IDOCK:   -1.46 KCAL/MOL
REMARK 927      BINDING AFFINITY PREDICTED BY RF-SCORE:    0.00 PKD
ROOT
HETATM    1  C   UNL     1      -9.992   5.171  69.321  1.00  0.00    -0.280 C  
HETATM    2  C   UNL     1      -9.365   6.423  68.684  1.00  0.00    -0.124 C  
HETATM    3  C   UNL     1      -9.664   6.722  67.384  1.00  0.00    -0.133 C  
ENDROOT
BRANCH   2   4
HETATM    4  N   UNL     1      -8.570   7.163  69.581  1.00  0.00    -0.137 N  
HETATM    5  C   UNL     1      -7.169   7.164  69.476  1.00  0.00    -0.080 C  
HETATM    6  O   UNL     1      -6.386   7.519  70.345  1.00  0.00    -0.037 OA 
BRANCH   4   7
HETATM    7  C   UNL     1      -9.094   7.508  70.920  1.00  0.00    -0.153 C  
BRANCH   7   8
HETATM    8  C   UNL     1     -10.289   8.442  70.899  1.00  0.00    -0.234 A  
HETATM    9  H2  UNL     1     -10.839   6.214  72.086  1.00  0.00     0.000 HD 
HETATM   10  C   UNL     1     -10.485   9.580  70.199  1.00  0.00    -0.255 A  
HETATM   11  N   UNL     1     -12.380   9.085  71.984  1.00  0.00    -0.373 NA 
HETATM   12  N   UNL     1     -11.414  10.572  70.459  1.00  0.00    -0.332 NA 
HETATM   13  H1  UNL     1     -12.344   6.685  72.884  1.00  0.00     0.000 HD 
HETATM   14  C   UNL     1     -13.138  11.448  71.904  1.00  0.00    -0.505 C  
HETATM   15  N   UNL     1     -11.551   6.917  72.285  1.00  0.00    -0.276 NA 
HETATM   16  C   UNL     1     -12.286  10.317  71.389  1.00  0.00    -0.383 A  
HETATM   17  C   UNL     1     -11.451   8.103  71.777  1.00  0.00    -0.284 A  
ENDBRANCH   7   8
ENDBRANCH   4   7
ENDBRANCH   2   4
BRANCH   3  18
HETATM   18  C   UNL     1     -10.893   6.004  66.671  1.00  0.00    -0.289 C  
BRANCH  18  19
HETATM   19  C   UNL     1     -10.594   4.641  65.934  1.00  0.00    -0.223 C  
BRANCH  19  20
HETATM   20  O   UNL     1      -9.250   4.510  65.334  1.00  0.00    -0.141 OA 
HETATM   21  O   UNL     1      -7.698   3.682  66.692  1.00  0.00    -0.080 OA 
HETATM   22  O   UNL     1      -7.644   3.335  64.281  1.00  0.00    -0.073 OA 
HETATM   23  P   UNL     1      -8.589   2.925  65.551  1.00  0.00    -0.126 P  
HETATM   24  O   UNL     1      -7.999   1.508  65.745  1.00  0.00    -0.067 OA 
ENDBRANCH  19  20
ENDBRANCH  18  19
ENDBRANCH   3  18
BRANCH   3  25
HETATM   25  S   UNL     1      -8.783   7.936  66.344  1.00  0.00    -0.160 SA 
BRANCH  25  26
HETATM   26  C   UNL     1      -9.058   9.651  66.859  1.00  0.00    -0.138 C  
HETATM   27  O   UNL     1      -8.565  10.086  67.893  1.00  0.00    -0.121 OA 
BRANCH  26  28
HETATM   28  C   UNL     1     -10.000  10.565  66.041  1.00  0.00    -0.295 A  
HETATM   29  C   UNL     1     -11.849  12.232  66.065  1.00  0.00    -0.409 A  
HETATM   30  C   UNL     1     -10.969  11.348  66.727  1.00  0.00    -0.347 A  
HETATM   31  C   UNL     1      -9.951  10.760  64.658  1.00  0.00    -0.386 A  
HETATM   32  C   UNL     1     -11.770  12.379  64.685  1.00  0.00    -0.426 A  
HETATM   33  C   UNL     1     -10.813  11.645  63.985  1.00  0.00    -0.455 A  
ENDBRANCH  26  28
ENDBRANCH  25  26
ENDBRANCH   3  25
TORSDOF 9
ENDMDL
MODEL      237
REMARK 921   NORMALIZED FREE ENERGY PREDICTED BY IDOCK:   -4.76 KCAL/MOL
REMARK 922        TOTAL FREE ENERGY PREDICTED BY IDOCK:   -8.77 KCAL/MOL
REMARK 923 INTER-LIGAND FREE ENERGY PREDICTED BY IDOCK:   -7.11 KCAL/MOL
REMARK 924 INTRA-LIGAND FREE ENERGY PREDICTED BY IDOCK:   -1.66 KCAL/MOL
REMARK 927      BINDING AFFINITY PREDICTED BY RF-SCORE:    0.00 PKD
ROOT
HETATM    1  C   UNL     1      -8.609  10.446  66.429  1.00  0.00    -0.137 C  
HETATM    2  C   UNL     1      -8.442   9.233  67.360  1.00  0.00    -0.122 C  
HETATM    3  C   UNL     1      -8.939   9.304  68.632  1.00  0.00    -0.132 C  
ENDROOT
BRANCH   2   4
HETATM    4  N   UNL     1      -7.817   8.136  66.736  1.00  0.00    -0.094 N  
HETATM    5  C   UNL     1      -6.520   8.244  66.209  1.00  0.00    -0.047 C  
HETATM    6  O   UNL     1      -6.003   7.475  65.412  1.00  0.00    -0.037 OA 
BRANCH   4   7
HETATM    7  C   UNL     1      -8.638   7.055  66.149  1.00  0.00    -0.143 C  
BRANCH   7   8
HETATM    8  C   UNL     1      -9.117   6.023  67.153  1.00  0.00    -0.113 A  
HETATM    9  H2  UNL     1      -7.037   5.204  65.859  1.00  0.00     0.000 HD 
HETATM   10  C   UNL     1     -10.272   5.966  67.851  1.00  0.00    -0.184 A  
HETATM   11  N   UNL     1      -8.499   4.131  68.567  1.00  0.00    -0.090 NA 
HETATM   12  N   UNL     1     -10.524   5.223  68.991  1.00  0.00    -0.180 NA 
HETATM   13  H1  UNL     1      -6.581   3.844  66.892  1.00  0.00     0.000 HD 
HETATM   14  C   UNL     1      -9.690   3.752  70.713  1.00  0.00    -0.235 C  
HETATM   15  N   UNL     1      -7.204   4.624  66.682  1.00  0.00    -0.078 NA 
HETATM   16  C   UNL     1      -9.599   4.381  69.347  1.00  0.00    -0.199 A  
HETATM   17  C   UNL     1      -8.205   4.879  67.461  1.00  0.00    -0.105 A  
ENDBRANCH   7   8
ENDBRANCH   4   7
ENDBRANCH   2   4
BRANCH   3  18
HETATM   18  C   UNL     1      -9.965  10.460  69.015  1.00  0.00    -0.224 C  
BRANCH  18  19
HETATM   19  C   UNL     1     -11.435  10.322  68.459  1.00  0.00    -0.100 C  
BRANCH  19  20
HETATM   20  O   UNL     1     -11.983  11.510  67.773  1.00  0.00    -0.623 OA 
HETATM   21  O   UNL     1     -12.254  13.294  69.068  1.00  0.00    -0.277 OA 
HETATM   22  O   UNL     1     -11.748  13.470  66.691  1.00  0.00    -0.348 OA 
HETATM   23  P   UNL     1     -11.027  12.924  68.054  1.00  0.00    -0.277 P  
HETATM   24  O   UNL     1     -10.172  14.190  68.305  1.00  0.00    -0.230 OA 
ENDBRANCH  19  20
ENDBRANCH  18  19
ENDBRANCH   3  18
BRANCH   3  25
HETATM   25  S   UNL     1      -8.558   8.143  69.987  1.00  0.00    -0.130 SA 
BRANCH  25  26
HETATM   26  C   UNL     1      -9.434   8.528  71.526  1.00  0.00    -0.222 C  
HETATM   27  O   UNL     1      -8.823   8.883  72.528  1.00  0.00    -0.381 OA 
BRANCH  26  28
HETATM   28  C   UNL     1     -10.964   8.323  71.620  1.00  0.00    -0.327 A  
HETATM   29  C   UNL     1     -13.203   9.354  71.970  1.00  0.00    -0.529 A  
HETATM   30  C   UNL     1     -11.795   9.443  71.896  1.00  0.00    -0.402 A  
HETATM   31  C   UNL     1     -11.642   7.124  71.386  1.00  0.00    -0.316 A  
HETATM   32  C   UNL     1     -13.829   8.135  71.744  1.00  0.00    -0.452 A  
HETATM   33  C   UNL     1     -13.044   7.021  71.445  1.00  0.00    -0.375 A  
ENDBRANCH  26  28
ENDBRANCH  25  26
ENDBRANCH   3  25
TORSDOF 9
ENDMDL
MODEL      238
REMARK 921   NORMALIZED FREE ENERGY PREDICTED BY IDOCK:   -4.75 KCAL/MOL
REMARK 922        TOTAL FREE ENERGY PREDICTED BY IDOCK:   -8.75 KCAL/MOL
REMARK 923 INTER-LIGAND FREE ENERGY PREDICTED BY IDOCK:   -6.74 KCAL/MOL
REMARK 924 INTRA-LIGAND FREE ENERGY PREDICTED BY IDOCK:   -2.02 KCAL/MOL
REMARK 927      BINDING AFFINITY PREDICTED BY RF-SCORE:    0.00 PKD
ROOT
HETATM    1  C   UNL     1      -7.382  10.846  69.039  1.00  0.00    -0.113 C  
HETATM    2  C   UNL     1      -7.836  10.347  67.657  1.00  0.00    -0.105 C  
HETATM    3  C   UNL     1      -9.150  10.486  67.304  1.00  0.00    -0.143 C  
ENDROOT
BRANCH   2   4
HETATM    4  N   UNL     1      -6.781   9.836  66.877  1.00  0.00    -0.074 N  
HETATM    5  C   UNL     1      -6.569  10.283  65.563  1.00  0.00    -0.128 C  
HETATM    6  O   UNL     1      -5.889   9.722  64.715  1.00  0.00    -0.074 OA 
BRANCH   4   7
HETATM    7  C   UNL     1      -6.220   8.501  67.177  1.00  0.00    -0.056 C  
BRANCH   7   8
HETATM    8  C   UNL     1      -7.184   7.353  66.937  1.00  0.00    -0.088 A  
HETATM    9  H2  UNL     1      -6.852   7.811  69.458  1.00  0.00     0.000 HD 
HETATM   10  C   UNL     1      -7.449   6.669  65.804  1.00  0.00    -0.081 A  
HETATM   11  N   UNL     1      -9.063   6.066  67.817  1.00  0.00    -0.111 NA 
HETATM   12  N   UNL     1      -8.557   5.885  65.540  1.00  0.00    -0.154 NA 
HETATM   13  H1  UNL     1      -8.222   6.892  70.093  1.00  0.00     0.000 HD 
HETATM   14  C   UNL     1     -10.711   5.061  66.256  1.00  0.00    -0.262 C  
HETATM   15  N   UNL     1      -7.667   7.217  69.301  1.00  0.00    -0.105 NA 
HETATM   16  C   UNL     1      -9.362   5.667  66.540  1.00  0.00    -0.150 A  
HETATM   17  C   UNL     1      -7.997   6.876  68.098  1.00  0.00    -0.115 A  
ENDBRANCH   7   8
ENDBRANCH   4   7
ENDBRANCH   2   4
BRANCH   3  18
HETATM   18  C   UNL     1     -10.096  11.452  68.145  1.00  0.00    -0.200 C  
BRANCH  18  19
HETATM   19  C   UNL     1     -11.136  10.766  69.114  1.00  0.00    -0.249 C  
BRANCH  19  20
HETATM   20  O   UNL     1     -10.847   9.366  69.488  1.00  0.00    -0.235 OA 
HETATM   21  O   UNL     1     -10.047   9.095  71.542  1.00  0.00    -0.319 OA 
HETATM   22  O   UNL     1     -11.405   7.402  70.436  1.00  0.00    -0.276 OA 
HETATM   23  P   UNL     1     -11.577   8.929  70.995  1.00  0.00    -0.291 P  
HETATM   24  O   UNL     1     -12.230   8.538  72.343  1.00  0.00    -0.376 OA 
ENDBRANCH  19  20
ENDBRANCH  18  19
ENDBRANCH   3  18
BRANCH   3  25
HETATM   25  S   UNL     1      -9.961   9.670  65.886  1.00  0.00    -0.237 SA 
BRANCH  25  26
HETATM   26  C   UNL     1     -10.129  10.750  64.441  1.00  0.00    -0.353 C  
HETATM   27  O   UNL     1      -9.663  10.425  63.354  1.00  0.00    -0.309 OA 
BRANCH  26  28
HETATM   28  C   UNL     1     -10.783  12.143  64.585  1.00  0.00    -0.346 A  
HETATM   29  C   UNL     1     -12.871  13.459  64.914  1.00  0.00    -0.292 A  
HETATM   30  C   UNL     1     -12.193  12.231  64.745  1.00  0.00    -0.438 A  
HETATM   31  C   UNL     1     -10.101  13.362  64.646  1.00  0.00    -0.256 A  
HETATM   32  C   UNL     1     -12.148  14.645  64.953  1.00  0.00    -0.386 A  
HETATM   33  C   UNL     1     -10.760  14.592  64.825  1.00  0.00    -0.414 A  
ENDBRANCH  26  28
ENDBRANCH  25  26
ENDBRANCH   3  25
TORSDOF 9
ENDMDL
MODEL      239
REMARK 921   NORMALIZED FREE ENERGY PREDICTED BY IDOCK:   -4.74 KCAL/MOL
REMARK 922        TOTAL FREE ENERGY PREDICTED BY IDOCK:   -8.75 KCAL/MOL
REMARK 923 INTER-LIGAND FREE ENERGY PREDICTED BY IDOCK:   -7.00 KCAL/MOL
REMARK 924 INTRA-LIGAND FREE ENERGY PREDICTED BY IDOCK:   -1.75 KCAL/MOL
REMARK 927      BINDING AFFINITY PREDICTED BY RF-SCORE:    0.00 PKD
ROOT
HETATM    1  C   UNL     1      -7.365   8.988  69.731  1.00  0.00    -0.058 C  
HETATM    2  C   UNL     1      -8.640   9.836  69.589  1.00  0.00    -0.191 C  
HETATM    3  C   UNL     1      -8.617  10.929  68.767  1.00  0.00    -0.159 C  
ENDROOT
BRANCH   2   4
HETATM    4  N   UNL     1      -9.732   9.324  70.315  1.00  0.00    -0.215 N  
HETATM    5  C   UNL     1      -9.591   8.936  71.658  1.00  0.00    -0.293 C  
HETATM    6  O   UNL     1     -10.366   8.228  72.284  1.00  0.00    -0.263 OA 
BRANCH   4   7
HETATM    7  C   UNL     1     -10.862   8.692  69.601  1.00  0.00    -0.157 C  
BRANCH   7   8
HETATM    8  C   UNL     1     -10.543   7.330  69.011  1.00  0.00    -0.214 A  
HETATM    9  H2  UNL     1     -10.678   9.155  67.187  1.00  0.00     0.000 HD 
HETATM   10  C   UNL     1     -10.604   6.107  69.578  1.00  0.00    -0.287 A  
HETATM   11  N   UNL     1      -9.506   6.113  67.166  1.00  0.00    -0.117 NA 
HETATM   12  N   UNL     1      -9.986   4.950  69.139  1.00  0.00    -0.193 NA 
HETATM   13  H1  UNL     1      -9.913   8.278  65.856  1.00  0.00     0.000 HD 
HETATM   14  C   UNL     1      -8.485   3.887  67.575  1.00  0.00    -0.104 C  
HETATM   15  N   UNL     1     -10.233   8.311  66.824  1.00  0.00    -0.303 NA 
HETATM   16  C   UNL     1      -9.400   5.013  67.979  1.00  0.00    -0.125 A  
HETATM   17  C   UNL     1     -10.074   7.282  67.592  1.00  0.00    -0.181 A  
ENDBRANCH   7   8
ENDBRANCH   4   7
ENDBRANCH   2   4
BRANCH   3  18
HETATM   18  C   UNL     1      -7.428  11.107  67.722  1.00  0.00    -0.095 C  
BRANCH  18  19
HETATM   19  C   UNL     1      -7.159  12.568  67.190  1.00  0.00    -0.053 C  
BRANCH  19  20
HETATM   20  O   UNL     1      -6.535  13.502  68.149  1.00  0.00    -0.094 OA 
HETATM   21  O   UNL     1      -5.506  15.240  67.223  1.00  0.00    -0.331 OA 
HETATM   22  O   UNL     1      -6.554  15.361  69.419  1.00  0.00    -0.133 OA 
HETATM   23  P   UNL     1      -7.006  15.142  67.863  1.00  0.00    -0.183 P  
HETATM   24  O   UNL     1      -7.427  16.610  67.607  1.00  0.00    -0.142 OA 
ENDBRANCH  19  20
ENDBRANCH  18  19
ENDBRANCH   3  18
BRANCH   3  25
HETATM   25  S   UNL     1      -9.879  12.246  68.716  1.00  0.00     0.086 SA 
BRANCH  25  26
HETATM   26  C   UNL     1     -11.302  11.833  67.673  1.00  0.00    -0.302 C  
HETATM   27  O   UNL     1     -12.316  11.341  68.156  1.00  0.00    -0.500 OA 
BRANCH  26  28
HETATM   28  C   UNL     1     -11.218  12.011  66.140  1.00  0.00    -0.394 A  
HETATM   29  C   UNL     1     -12.165  13.066  64.093  1.00  0.00    -0.471 A  
HETATM   30  C   UNL     1     -12.183  12.823  65.484  1.00  0.00    -0.519 A  
HETATM   31  C   UNL     1     -10.217  11.495  65.312  1.00  0.00    -0.315 A  
HETATM   32  C   UNL     1     -11.156  12.517  63.311  1.00  0.00    -0.286 A  
HETATM   33  C   UNL     1     -10.178  11.736  63.927  1.00  0.00    -0.411 A  
ENDBRANCH  26  28
ENDBRANCH  25  26
ENDBRANCH   3  25
TORSDOF 9
ENDMDL
MODEL      240
REMARK 921   NORMALIZED FREE ENERGY PREDICTED BY IDOCK:   -4.74 KCAL/MOL
REMARK 922        TOTAL FREE ENERGY PREDICTED BY IDOCK:   -8.74 KCAL/MOL
REMARK 923 INTER-LIGAND FREE ENERGY PREDICTED BY IDOCK:   -7.04 KCAL/MOL
REMARK 924 INTRA-LIGAND FREE ENERGY PREDICTED BY IDOCK:   -1.70 KCAL/MOL
REMARK 927      BINDING AFFINITY PREDICTED BY RF-SCORE:    0.00 PKD
ROOT
HETATM    1  C   UNL     1      -7.791   9.794  67.442  1.00  0.00    -0.099 C  
HETATM    2  C   UNL     1      -8.318   8.415  67.871  1.00  0.00    -0.131 C  
HETATM    3  C   UNL     1      -9.669   8.219  67.947  1.00  0.00    -0.161 C  
ENDROOT
BRANCH   2   4
HETATM    4  N   UNL     1      -7.294   7.472  68.088  1.00  0.00    -0.093 N  
HETATM    5  C   UNL     1      -7.512   6.102  67.870  1.00  0.00    -0.085 C  
HETATM    6  O   UNL     1      -6.816   5.190  68.290  1.00  0.00    -0.053 OA 
BRANCH   4   7
HETATM    7  C   UNL     1      -6.189   7.785  69.020  1.00  0.00    -0.036 C  
BRANCH   7   8
HETATM    8  C   UNL     1      -6.583   7.757  70.485  1.00  0.00    -0.038 A  
HETATM    9  H2  UNL     1      -6.049  10.154  69.685  1.00  0.00     0.000 HD 
HETATM   10  C   UNL     1      -6.717   6.708  71.325  1.00  0.00    -0.058 A  
HETATM   11  N   UNL     1      -7.529   9.010  72.355  1.00  0.00    -0.316 NA 
HETATM   12  N   UNL     1      -7.402   6.681  72.526  1.00  0.00    -0.087 NA 
HETATM   13  H1  UNL     1      -6.748  11.062  71.032  1.00  0.00     0.000 HD 
HETATM   14  C   UNL     1      -8.822   7.822  74.111  1.00  0.00    -0.256 C  
HETATM   15  N   UNL     1      -6.538  10.171  70.581  1.00  0.00    -0.278 NA 
HETATM   16  C   UNL     1      -7.843   7.823  72.965  1.00  0.00    -0.119 A  
HETATM   17  C   UNL     1      -6.891   9.062  71.146  1.00  0.00    -0.092 A  
ENDBRANCH   7   8
ENDBRANCH   4   7
ENDBRANCH   2   4
BRANCH   3  18
HETATM   18  C   UNL     1     -10.658   9.268  67.271  1.00  0.00    -0.303 C  
BRANCH  18  19
HETATM   19  C   UNL     1     -11.223  10.415  68.195  1.00  0.00    -0.268 C  
BRANCH  19  20
HETATM   20  O   UNL     1     -11.942  11.507  67.508  1.00  0.00    -0.629 OA 
HETATM   21  O   UNL     1     -10.699  13.281  67.018  1.00  0.00    -0.258 OA 
HETATM   22  O   UNL     1     -12.599  12.602  65.653  1.00  0.00    -0.611 OA 
HETATM   23  P   UNL     1     -11.128  12.022  66.070  1.00  0.00    -0.317 P  
HETATM   24  O   UNL     1     -10.400  12.482  64.784  1.00  0.00    -0.292 OA 
ENDBRANCH  19  20
ENDBRANCH  18  19
ENDBRANCH   3  18
BRANCH   3  25
HETATM   25  S   UNL     1     -10.494   6.802  68.748  1.00  0.00    -0.224 SA 
BRANCH  25  26
HETATM   26  C   UNL     1     -10.693   7.009  70.537  1.00  0.00    -0.238 C  
HETATM   27  O   UNL     1     -10.737   8.125  71.041  1.00  0.00    -0.212 OA 
BRANCH  26  28
HETATM   28  C   UNL     1     -10.715   5.771  71.464  1.00  0.00    -0.319 A  
HETATM   29  C   UNL     1      -9.847   3.486  71.937  1.00  0.00    -0.237 A  
HETATM   30  C   UNL     1      -9.912   4.646  71.133  1.00  0.00    -0.265 A  
HETATM   31  C   UNL     1     -11.414   5.668  72.670  1.00  0.00    -0.339 A  
HETATM   32  C   UNL     1     -10.573   3.427  73.120  1.00  0.00    -0.270 A  
HETATM   33  C   UNL     1     -11.351   4.525  73.488  1.00  0.00    -0.355 A  
ENDBRANCH  26  28
ENDBRANCH  25  26
ENDBRANCH   3  25
TORSDOF 9
ENDMDL
MODEL      241
REMARK 921   NORMALIZED FREE ENERGY PREDICTED BY IDOCK:   -4.74 KCAL/MOL
REMARK 922        TOTAL FREE ENERGY PREDICTED BY IDOCK:   -8.74 KCAL/MOL
REMARK 923 INTER-LIGAND FREE ENERGY PREDICTED BY IDOCK:   -8.88 KCAL/MOL
REMARK 924 INTRA-LIGAND FREE ENERGY PREDICTED BY IDOCK:    0.14 KCAL/MOL
REMARK 927      BINDING AFFINITY PREDICTED BY RF-SCORE:    0.00 PKD
ROOT
HETATM    1  C   UNL     1      -9.423  13.124  65.613  1.00  0.00     0.090 C  
HETATM    2  C   UNL     1      -9.601  14.157  66.739  1.00  0.00    -0.282 C  
HETATM    3  C   UNL     1     -10.859  14.405  67.214  1.00  0.00    -0.290 C  
ENDROOT
BRANCH   2   4
HETATM    4  N   UNL     1      -8.383  14.699  67.193  1.00  0.00    -0.211 N  
HETATM    5  C   UNL     1      -7.262  13.881  67.409  1.00  0.00    -0.093 C  
HETATM    6  O   UNL     1      -6.271  14.181  68.059  1.00  0.00    -0.118 OA 
BRANCH   4   7
HETATM    7  C   UNL     1      -8.376  15.974  67.942  1.00  0.00    -0.153 C  
BRANCH   7   8
HETATM    8  C   UNL     1      -8.076  17.194  67.091  1.00  0.00    -0.215 A  
HETATM    9  H2  UNL     1      -9.691  17.754  69.029  1.00  0.00     0.000 HD 
HETATM   10  C   UNL     1      -7.476  17.281  65.885  1.00  0.00    -0.034 A  
HETATM   11  N   UNL     1      -7.944  19.631  67.017  1.00  0.00    -0.271 NA 
HETATM   12  N   UNL     1      -6.914  18.407  65.310  1.00  0.00    -0.503 NA 
HETATM   13  H1  UNL     1      -9.582  19.518  68.985  1.00  0.00     0.000 HD 
HETATM   14  C   UNL     1      -6.304  20.734  65.514  1.00  0.00    -0.262 C  
HETATM   15  N   UNL     1      -9.309  18.606  68.618  1.00  0.00    -0.344 NA 
HETATM   16  C   UNL     1      -7.110  19.532  65.933  1.00  0.00    -0.289 A  
HETATM   17  C   UNL     1      -8.477  18.531  67.629  1.00  0.00    -0.263 A  
ENDBRANCH   7   8
ENDBRANCH   4   7
ENDBRANCH   2   4
BRANCH   3  18
HETATM   18  C   UNL     1     -12.047  13.404  66.865  1.00  0.00    -0.406 C  
BRANCH  18  19
HETATM   19  C   UNL     1     -11.825  11.882  67.218  1.00  0.00    -0.148 C  
BRANCH  19  20
HETATM   20  O   UNL     1     -11.057  11.608  68.449  1.00  0.00    -0.200 OA 
HETATM   21  O   UNL     1     -12.000  12.344  70.321  1.00  0.00    -0.349 OA 
HETATM   22  O   UNL     1     -10.579  10.366  70.265  1.00  0.00    -0.262 OA 
HETATM   23  P   UNL     1     -12.023  10.848  69.666  1.00  0.00    -0.296 P  
HETATM   24  O   UNL     1     -12.887  10.167  70.755  1.00  0.00    -0.342 OA 
ENDBRANCH  19  20
ENDBRANCH  18  19
ENDBRANCH   3  18
BRANCH   3  25
HETATM   25  S   UNL     1     -11.334  15.808  68.281  1.00  0.00    -0.328 SA 
BRANCH  25  26
HETATM   26  C   UNL     1     -10.940  15.542  70.029  1.00  0.00    -0.319 C  
HETATM   27  O   UNL     1      -9.802  15.251  70.382  1.00  0.00    -0.029 OA 
BRANCH  26  28
HETATM   28  C   UNL     1     -12.061  15.586  71.093  1.00  0.00    -0.433 A  
HETATM   29  C   UNL     1     -12.698  16.054  73.454  1.00  0.00    -0.668 A  
HETATM   30  C   UNL     1     -11.734  15.958  72.426  1.00  0.00    -0.582 A  
HETATM   31  C   UNL     1     -13.419  15.358  70.856  1.00  0.00    -0.427 A  
HETATM   32  C   UNL     1     -14.035  15.802  73.171  1.00  0.00    -0.200 A  
HETATM   33  C   UNL     1     -14.393  15.461  71.866  1.00  0.00    -0.649 A  
ENDBRANCH  26  28
ENDBRANCH  25  26
ENDBRANCH   3  25
TORSDOF 9
ENDMDL
MODEL      242
REMARK 921   NORMALIZED FREE ENERGY PREDICTED BY IDOCK:   -4.73 KCAL/MOL
REMARK 922        TOTAL FREE ENERGY PREDICTED BY IDOCK:   -8.73 KCAL/MOL
REMARK 923 INTER-LIGAND FREE ENERGY PREDICTED BY IDOCK:   -7.27 KCAL/MOL
REMARK 924 INTRA-LIGAND FREE ENERGY PREDICTED BY IDOCK:   -1.46 KCAL/MOL
REMARK 927      BINDING AFFINITY PREDICTED BY RF-SCORE:    0.00 PKD
ROOT
HETATM    1  C   UNL     1      -7.507  10.972  68.330  1.00  0.00    -0.092 C  
HETATM    2  C   UNL     1      -8.019   9.667  67.697  1.00  0.00    -0.106 C  
HETATM    3  C   UNL     1      -8.332   8.617  68.514  1.00  0.00    -0.123 C  
ENDROOT
BRANCH   2   4
HETATM    4  N   UNL     1      -8.156   9.745  66.298  1.00  0.00    -0.112 N  
HETATM    5  C   UNL     1      -7.094  10.180  65.489  1.00  0.00    -0.138 C  
HETATM    6  O   UNL     1      -7.184  10.555  64.329  1.00  0.00    -0.036 OA 
BRANCH   4   7
HETATM    7  C   UNL     1      -9.498   9.894  65.695  1.00  0.00    -0.235 C  
BRANCH   7   8
HETATM    8  C   UNL     1     -10.151  11.239  65.956  1.00  0.00    -0.283 A  
HETATM    9  H2  UNL     1     -11.221   9.365  67.377  1.00  0.00     0.000 HD 
HETATM   10  C   UNL     1     -10.044  12.399  65.274  1.00  0.00    -0.265 A  
HETATM   11  N   UNL     1     -11.392  12.615  67.545  1.00  0.00    -0.288 NA 
HETATM   12  N   UNL     1     -10.364  13.666  65.726  1.00  0.00    -0.291 NA 
HETATM   13  H1  UNL     1     -12.106  10.362  68.537  1.00  0.00     0.000 HD 
HETATM   14  C   UNL     1     -11.090  15.080  67.543  1.00  0.00    -0.317 C  
HETATM   15  N   UNL     1     -11.491  10.284  67.727  1.00  0.00    -0.296 NA 
HETATM   16  C   UNL     1     -10.965  13.734  66.877  1.00  0.00    -0.290 A  
HETATM   17  C   UNL     1     -11.053  11.353  67.143  1.00  0.00    -0.305 A  
ENDBRANCH   7   8
ENDBRANCH   4   7
ENDBRANCH   2   4
BRANCH   3  18
HETATM   18  C   UNL     1      -8.502   8.856  70.079  1.00  0.00    -0.141 C  
BRANCH  18  19
HETATM   19  C   UNL     1      -9.774   9.667  70.543  1.00  0.00    -0.217 C  
BRANCH  19  20
HETATM   20  O   UNL     1     -10.366   9.260  71.834  1.00  0.00    -0.286 OA 
HETATM   21  O   UNL     1     -12.509   9.788  72.085  1.00  0.00    -0.336 OA 
HETATM   22  O   UNL     1     -11.516   7.827  73.135  1.00  0.00    -0.330 OA 
HETATM   23  P   UNL     1     -11.837   8.372  71.627  1.00  0.00    -0.350 P  
HETATM   24  O   UNL     1     -13.152   7.577  71.442  1.00  0.00    -0.351 OA 
ENDBRANCH  19  20
ENDBRANCH  18  19
ENDBRANCH   3  18
BRANCH   3  25
HETATM   25  S   UNL     1      -8.620   6.898  67.971  1.00  0.00    -0.122 SA 
BRANCH  25  26
HETATM   26  C   UNL     1     -10.110   6.161  68.694  1.00  0.00    -0.162 C  
HETATM   27  O   UNL     1     -11.224   6.587  68.412  1.00  0.00    -0.283 OA 
BRANCH  26  28
HETATM   28  C   UNL     1      -9.986   5.041  69.753  1.00  0.00    -0.319 A  
HETATM   29  C   UNL     1      -9.237   2.726  70.283  1.00  0.00    -0.207 A  
HETATM   30  C   UNL     1      -9.417   3.794  69.375  1.00  0.00    -0.257 A  
HETATM   31  C   UNL     1     -10.323   5.155  71.104  1.00  0.00    -0.276 A  
HETATM   32  C   UNL     1      -9.603   2.885  71.614  1.00  0.00    -0.222 A  
HETATM   33  C   UNL     1     -10.140   4.106  72.023  1.00  0.00    -0.234 A  
ENDBRANCH  26  28
ENDBRANCH  25  26
ENDBRANCH   3  25
TORSDOF 9
ENDMDL
MODEL      243
REMARK 921   NORMALIZED FREE ENERGY PREDICTED BY IDOCK:   -4.72 KCAL/MOL
REMARK 922        TOTAL FREE ENERGY PREDICTED BY IDOCK:   -8.71 KCAL/MOL
REMARK 923 INTER-LIGAND FREE ENERGY PREDICTED BY IDOCK:   -6.62 KCAL/MOL
REMARK 924 INTRA-LIGAND FREE ENERGY PREDICTED BY IDOCK:   -2.09 KCAL/MOL
REMARK 927      BINDING AFFINITY PREDICTED BY RF-SCORE:    0.00 PKD
ROOT
HETATM    1  C   UNL     1      -9.604   4.491  68.473  1.00  0.00    -0.212 C  
HETATM    2  C   UNL     1      -9.060   5.742  69.185  1.00  0.00    -0.117 C  
HETATM    3  C   UNL     1      -8.785   6.856  68.442  1.00  0.00    -0.124 C  
ENDROOT
BRANCH   2   4
HETATM    4  N   UNL     1      -8.963   5.588  70.581  1.00  0.00    -0.142 N  
HETATM    5  C   UNL     1      -7.718   5.402  71.204  1.00  0.00    -0.102 C  
HETATM    6  O   UNL     1      -7.540   4.979  72.337  1.00  0.00    -0.091 OA 
BRANCH   4   7
HETATM    7  C   UNL     1     -10.124   5.093  71.352  1.00  0.00    -0.200 C  
BRANCH   7   8
HETATM    8  C   UNL     1     -11.155   6.158  71.675  1.00  0.00    -0.330 A  
HETATM    9  H2  UNL     1      -9.569   5.727  73.668  1.00  0.00     0.000 HD 
HETATM   10  C   UNL     1     -12.276   6.509  71.008  1.00  0.00    -0.177 A  
HETATM   11  N   UNL     1     -11.688   8.119  73.029  1.00  0.00    -0.217 NA 
HETATM   12  N   UNL     1     -12.989   7.687  71.133  1.00  0.00    -0.222 NA 
HETATM   13  H1  UNL     1      -9.943   7.155  74.640  1.00  0.00     0.000 HD 
HETATM   14  C   UNL     1     -13.173   9.886  72.113  1.00  0.00    -0.511 C  
HETATM   15  N   UNL     1     -10.090   6.593  73.801  1.00  0.00    -0.266 NA 
HETATM   16  C   UNL     1     -12.626   8.482  72.096  1.00  0.00    -0.377 A  
HETATM   17  C   UNL     1     -10.940   6.981  72.905  1.00  0.00    -0.302 A  
ENDBRANCH   7   8
ENDBRANCH   4   7
ENDBRANCH   2   4
BRANCH   3  18
HETATM   18  C   UNL     1      -9.344   6.973  66.955  1.00  0.00    -0.174 C  
BRANCH  18  19
HETATM   19  C   UNL     1     -10.301   8.189  66.646  1.00  0.00    -0.213 C  
BRANCH  19  20
HETATM   20  O   UNL     1      -9.910   9.048  65.509  1.00  0.00    -0.159 OA 
HETATM   21  O   UNL     1      -7.913  10.002  65.703  1.00  0.00    -0.128 OA 
HETATM   22  O   UNL     1      -8.869   9.402  63.544  1.00  0.00    -0.223 OA 
HETATM   23  P   UNL     1      -8.342   8.648  64.897  1.00  0.00    -0.119 P  
HETATM   24  O   UNL     1      -6.940   8.289  64.348  1.00  0.00    -0.071 OA 
ENDBRANCH  19  20
ENDBRANCH  18  19
ENDBRANCH   3  18
BRANCH   3  25
HETATM   25  S   UNL     1      -7.829   8.303  69.012  1.00  0.00    -0.105 SA 
BRANCH  25  26
HETATM   26  C   UNL     1      -8.816   9.477  69.976  1.00  0.00    -0.223 C  
HETATM   27  O   UNL     1      -8.808   9.449  71.201  1.00  0.00    -0.272 OA 
BRANCH  26  28
HETATM   28  C   UNL     1      -9.757  10.472  69.259  1.00  0.00    -0.215 A  
HETATM   29  C   UNL     1     -12.097  11.189  68.798  1.00  0.00    -0.232 A  
HETATM   30  C   UNL     1     -11.164  10.311  69.392  1.00  0.00    -0.292 A  
HETATM   31  C   UNL     1      -9.355  11.592  68.526  1.00  0.00    -0.171 A  
HETATM   32  C   UNL     1     -11.646  12.280  68.066  1.00  0.00    -0.408 A  
HETATM   33  C   UNL     1     -10.271  12.482  67.937  1.00  0.00    -0.219 A  
ENDBRANCH  26  28
ENDBRANCH  25  26
ENDBRANCH   3  25
TORSDOF 9
ENDMDL
MODEL      244
REMARK 921   NORMALIZED FREE ENERGY PREDICTED BY IDOCK:   -4.71 KCAL/MOL
REMARK 922        TOTAL FREE ENERGY PREDICTED BY IDOCK:   -8.70 KCAL/MOL
REMARK 923 INTER-LIGAND FREE ENERGY PREDICTED BY IDOCK:   -7.12 KCAL/MOL
REMARK 924 INTRA-LIGAND FREE ENERGY PREDICTED BY IDOCK:   -1.58 KCAL/MOL
REMARK 927      BINDING AFFINITY PREDICTED BY RF-SCORE:    0.00 PKD
ROOT
HETATM    1  C   UNL     1      -7.975   9.418  69.872  1.00  0.00    -0.132 C  
HETATM    2  C   UNL     1      -8.568   9.085  68.493  1.00  0.00    -0.129 C  
HETATM    3  C   UNL     1      -9.598   9.847  68.017  1.00  0.00    -0.138 C  
ENDROOT
BRANCH   2   4
HETATM    4  N   UNL     1      -7.907   8.023  67.846  1.00  0.00    -0.124 N  
HETATM    5  C   UNL     1      -6.833   8.262  66.973  1.00  0.00    -0.070 C  
HETATM    6  O   UNL     1      -6.385   7.472  66.155  1.00  0.00    -0.041 OA 
BRANCH   4   7
HETATM    7  C   UNL     1      -8.609   6.738  67.632  1.00  0.00    -0.121 C  
BRANCH   7   8
HETATM    8  C   UNL     1      -9.514   6.326  68.778  1.00  0.00    -0.124 A  
HETATM    9  H2  UNL     1      -7.083   5.532  69.146  1.00  0.00     0.000 HD 
HETATM   10  C   UNL     1     -10.861   6.346  68.866  1.00  0.00    -0.325 A  
HETATM   11  N   UNL     1      -9.650   5.741  71.144  1.00  0.00    -0.165 NA 
HETATM   12  N   UNL     1     -11.624   6.299  70.019  1.00  0.00    -0.401 NA 
HETATM   13  H1  UNL     1      -7.178   5.124  70.864  1.00  0.00     0.000 HD 
HETATM   14  C   UNL     1     -11.705   6.273  72.432  1.00  0.00    -0.301 C  
HETATM   15  N   UNL     1      -7.621   5.467  70.011  1.00  0.00    -0.076 NA 
HETATM   16  C   UNL     1     -10.982   6.065  71.127  1.00  0.00    -0.278 A  
HETATM   17  C   UNL     1      -8.865   5.822  70.027  1.00  0.00    -0.135 A  
ENDBRANCH   7   8
ENDBRANCH   4   7
ENDBRANCH   2   4
BRANCH   3  18
HETATM   18  C   UNL     1      -9.930  11.245  68.703  1.00  0.00    -0.210 C  
BRANCH  18  19
HETATM   19  C   UNL     1     -11.423  11.481  69.156  1.00  0.00    -0.297 C  
BRANCH  19  20
HETATM   20  O   UNL     1     -11.994  12.807  68.841  1.00  0.00    -0.300 OA 
HETATM   21  O   UNL     1     -12.950  13.843  70.558  1.00  0.00    -0.240 OA 
HETATM   22  O   UNL     1     -11.876  15.053  68.736  1.00  0.00    -0.324 OA 
HETATM   23  P   UNL     1     -11.450  14.029  69.938  1.00  0.00    -0.101 P  
HETATM   24  O   UNL     1     -10.963  15.123  70.919  1.00  0.00    -0.283 OA 
ENDBRANCH  19  20
ENDBRANCH  18  19
ENDBRANCH   3  18
BRANCH   3  25
HETATM   25  S   UNL     1     -10.660   9.427  66.592  1.00  0.00    -0.020 SA 
BRANCH  25  26
HETATM   26  C   UNL     1     -10.406  10.516  65.166  1.00  0.00    -0.240 C  
HETATM   27  O   UNL     1      -9.781  10.133  64.183  1.00  0.00    -0.307 OA 
BRANCH  26  28
HETATM   28  C   UNL     1     -10.896  11.982  65.212  1.00  0.00    -0.340 A  
HETATM   29  C   UNL     1     -10.299  14.398  65.169  1.00  0.00    -0.447 A  
HETATM   30  C   UNL     1      -9.940  13.032  65.163  1.00  0.00    -0.170 A  
HETATM   31  C   UNL     1     -12.231  12.395  65.228  1.00  0.00    -0.418 A  
HETATM   32  C   UNL     1     -11.640  14.758  65.200  1.00  0.00    -0.358 A  
HETATM   33  C   UNL     1     -12.606  13.751  65.222  1.00  0.00    -0.510 A  
ENDBRANCH  26  28
ENDBRANCH  25  26
ENDBRANCH   3  25
TORSDOF 9
ENDMDL
MODEL      245
REMARK 921   NORMALIZED FREE ENERGY PREDICTED BY IDOCK:   -4.69 KCAL/MOL
REMARK 922        TOTAL FREE ENERGY PREDICTED BY IDOCK:   -8.67 KCAL/MOL
REMARK 923 INTER-LIGAND FREE ENERGY PREDICTED BY IDOCK:   -7.24 KCAL/MOL
REMARK 924 INTRA-LIGAND FREE ENERGY PREDICTED BY IDOCK:   -1.43 KCAL/MOL
REMARK 927      BINDING AFFINITY PREDICTED BY RF-SCORE:    0.00 PKD
ROOT
HETATM    1  C   UNL     1      -7.777  10.044  69.999  1.00  0.00    -0.181 C  
HETATM    2  C   UNL     1      -9.025   9.644  69.194  1.00  0.00    -0.154 C  
HETATM    3  C   UNL     1      -8.883   9.326  67.872  1.00  0.00    -0.124 C  
ENDROOT
BRANCH   2   4
HETATM    4  N   UNL     1     -10.198   9.602  69.973  1.00  0.00    -0.237 N  
HETATM    5  C   UNL     1     -11.195  10.581  69.833  1.00  0.00    -0.307 C  
HETATM    6  O   UNL     1     -12.092  10.809  70.631  1.00  0.00    -0.308 OA 
BRANCH   4   7
HETATM    7  C   UNL     1     -10.197   8.897  71.272  1.00  0.00    -0.291 C  
BRANCH   7   8
HETATM    8  C   UNL     1      -9.981   7.398  71.166  1.00  0.00    -0.188 A  
HETATM    9  H2  UNL     1     -12.485   8.017  71.021  1.00  0.00     0.000 HD 
HETATM   10  C   UNL     1      -8.876   6.663  71.415  1.00  0.00    -0.139 A  
HETATM   11  N   UNL     1     -10.858   5.278  70.331  1.00  0.00    -0.151 NA 
HETATM   12  N   UNL     1      -8.613   5.376  70.982  1.00  0.00    -0.123 NA 
HETATM   13  H1  UNL     1     -13.117   6.486  70.401  1.00  0.00     0.000 HD 
HETATM   14  C   UNL     1      -9.292   3.470  69.664  1.00  0.00    -0.244 C  
HETATM   15  N   UNL     1     -12.330   7.057  70.712  1.00  0.00    -0.322 NA 
HETATM   16  C   UNL     1      -9.592   4.753  70.394  1.00  0.00    -0.197 A  
HETATM   17  C   UNL     1     -11.134   6.562  70.712  1.00  0.00    -0.300 A  
ENDBRANCH   7   8
ENDBRANCH   4   7
ENDBRANCH   2   4
BRANCH   3  18
HETATM   18  C   UNL     1      -7.434   9.033  67.281  1.00  0.00    -0.084 C  
BRANCH  18  19
HETATM   19  C   UNL     1      -7.075   7.526  66.983  1.00  0.00    -0.084 C  
BRANCH  19  20
HETATM   20  O   UNL     1      -7.663   6.950  65.757  1.00  0.00    -0.090 OA 
HETATM   21  O   UNL     1      -6.332   5.561  64.646  1.00  0.00    -0.028 OA 
HETATM   22  O   UNL     1      -8.756   5.327  64.643  1.00  0.00    -0.149 OA 
HETATM   23  P   UNL     1      -7.523   5.226  65.712  1.00  0.00    -0.083 P  
HETATM   24  O   UNL     1      -7.398   3.683  65.673  1.00  0.00    -0.073 OA 
ENDBRANCH  19  20
ENDBRANCH  18  19
ENDBRANCH   3  18
BRANCH   3  25
HETATM   25  S   UNL     1     -10.244   9.162  66.667  1.00  0.00    -0.228 SA 
BRANCH  25  26
HETATM   26  C   UNL     1      -9.996  10.150  65.169  1.00  0.00    -0.309 C  
HETATM   27  O   UNL     1      -9.204   9.795  64.304  1.00  0.00    -0.249 OA 
BRANCH  26  28
HETATM   28  C   UNL     1     -10.716  11.509  65.008  1.00  0.00    -0.350 A  
HETATM   29  C   UNL     1     -12.071  13.008  63.553  1.00  0.00    -0.617 A  
HETATM   30  C   UNL     1     -11.364  11.806  63.778  1.00  0.00    -0.524 A  
HETATM   31  C   UNL     1     -10.860  12.479  66.003  1.00  0.00    -0.309 A  
HETATM   32  C   UNL     1     -12.172  13.948  64.571  1.00  0.00    -0.451 A  
HETATM   33  C   UNL     1     -11.570  13.676  65.800  1.00  0.00    -0.349 A  
ENDBRANCH  26  28
ENDBRANCH  25  26
ENDBRANCH   3  25
TORSDOF 9
ENDMDL
MODEL      246
REMARK 921   NORMALIZED FREE ENERGY PREDICTED BY IDOCK:   -4.69 KCAL/MOL
REMARK 922        TOTAL FREE ENERGY PREDICTED BY IDOCK:   -8.67 KCAL/MOL
REMARK 923 INTER-LIGAND FREE ENERGY PREDICTED BY IDOCK:   -8.97 KCAL/MOL
REMARK 924 INTRA-LIGAND FREE ENERGY PREDICTED BY IDOCK:    0.30 KCAL/MOL
REMARK 927      BINDING AFFINITY PREDICTED BY RF-SCORE:    0.00 PKD
ROOT
HETATM    1  C   UNL     1     -10.415  18.357  65.977  1.00  0.00    -0.400 C  
HETATM    2  C   UNL     1      -9.721  17.192  66.703  1.00  0.00    -0.276 C  
HETATM    3  C   UNL     1     -10.415  16.031  66.900  1.00  0.00    -0.306 C  
ENDROOT
BRANCH   2   4
HETATM    4  N   UNL     1      -8.382  17.467  67.041  1.00  0.00    -0.209 N  
HETATM    5  C   UNL     1      -7.324  17.001  66.244  1.00  0.00    -0.259 C  
HETATM    6  O   UNL     1      -6.151  16.928  66.581  1.00  0.00    -0.194 OA 
BRANCH   4   7
HETATM    7  C   UNL     1      -8.020  17.763  68.444  1.00  0.00    -0.293 C  
BRANCH   7   8
HETATM    8  C   UNL     1      -7.228  16.663  69.127  1.00  0.00    -0.220 A  
HETATM    9  H2  UNL     1      -5.878  18.860  68.974  1.00  0.00     0.000 HD 
HETATM   10  C   UNL     1      -7.476  15.338  69.205  1.00  0.00    -0.179 A  
HETATM   11  N   UNL     1      -5.440  16.132  70.703  1.00  0.00    -0.142 NA 
HETATM   12  N   UNL     1      -6.940  14.439  70.108  1.00  0.00     0.002 NA 
HETATM   13  H1  UNL     1      -4.593  18.482  70.127  1.00  0.00     0.000 HD 
HETATM   14  C   UNL     1      -5.558  14.049  72.049  1.00  0.00    -0.191 C  
HETATM   15  N   UNL     1      -5.445  18.215  69.634  1.00  0.00    -0.199 NA 
HETATM   16  C   UNL     1      -5.987  14.887  70.873  1.00  0.00    -0.013 A  
HETATM   17  C   UNL     1      -5.978  17.055  69.849  1.00  0.00    -0.219 A  
ENDBRANCH   7   8
ENDBRANCH   4   7
ENDBRANCH   2   4
BRANCH   3  18
HETATM   18  C   UNL     1     -11.761  15.768  66.090  1.00  0.00     0.579 C  
BRANCH  18  19
HETATM   19  C   UNL     1     -11.614  15.201  64.625  1.00  0.00    -0.357 C  
BRANCH  19  20
HETATM   20  O   UNL     1     -11.023  13.852  64.509  1.00  0.00    -0.388 OA 
HETATM   21  O   UNL     1     -12.290  12.206  65.296  1.00  0.00    -0.513 OA 
HETATM   22  O   UNL     1     -10.736  11.887  63.447  1.00  0.00    -0.401 OA 
HETATM   23  P   UNL     1     -12.104  12.728  63.759  1.00  0.00    -0.538 P  
HETATM   24  O   UNL     1     -13.070  11.722  63.088  1.00  0.00    -0.568 OA 
ENDBRANCH  19  20
ENDBRANCH  18  19
ENDBRANCH   3  18
BRANCH   3  25
HETATM   25  S   UNL     1      -9.921  14.674  68.017  1.00  0.00    -0.224 SA 
BRANCH  25  26
HETATM   26  C   UNL     1     -11.315  13.945  68.916  1.00  0.00    -0.282 C  
HETATM   27  O   UNL     1     -11.950  13.009  68.444  1.00  0.00    -0.336 OA 
BRANCH  26  28
HETATM   28  C   UNL     1     -11.781  14.561  70.256  1.00  0.00    -0.356 A  
HETATM   29  C   UNL     1     -13.071  14.268  72.365  1.00  0.00    -0.519 A  
HETATM   30  C   UNL     1     -12.622  13.798  71.111  1.00  0.00    -0.452 A  
HETATM   31  C   UNL     1     -11.392  15.804  70.761  1.00  0.00    -0.419 A  
HETATM   32  C   UNL     1     -12.667  15.519  72.816  1.00  0.00    -0.532 A  
HETATM   33  C   UNL     1     -11.820  16.283  72.013  1.00  0.00    -0.568 A  
ENDBRANCH  26  28
ENDBRANCH  25  26
ENDBRANCH   3  25
TORSDOF 9
ENDMDL
MODEL      247
REMARK 921   NORMALIZED FREE ENERGY PREDICTED BY IDOCK:   -4.69 KCAL/MOL
REMARK 922        TOTAL FREE ENERGY PREDICTED BY IDOCK:   -8.66 KCAL/MOL
REMARK 923 INTER-LIGAND FREE ENERGY PREDICTED BY IDOCK:   -8.02 KCAL/MOL
REMARK 924 INTRA-LIGAND FREE ENERGY PREDICTED BY IDOCK:   -0.65 KCAL/MOL
REMARK 927      BINDING AFFINITY PREDICTED BY RF-SCORE:    0.00 PKD
ROOT
HETATM    1  C   UNL     1     -10.610  11.003  68.376  1.00  0.00    -0.224 C  
HETATM    2  C   UNL     1      -9.703  12.228  68.171  1.00  0.00    -0.213 C  
HETATM    3  C   UNL     1     -10.275  13.468  68.106  1.00  0.00    -0.249 C  
ENDROOT
BRANCH   2   4
HETATM    4  N   UNL     1      -8.333  11.905  68.128  1.00  0.00    -0.154 N  
HETATM    5  C   UNL     1      -7.436  12.424  69.075  1.00  0.00     0.075 C  
HETATM    6  O   UNL     1      -6.219  12.450  68.970  1.00  0.00    -0.070 OA 
BRANCH   4   7
HETATM    7  C   UNL     1      -7.715  11.480  66.853  1.00  0.00    -0.157 C  
BRANCH   7   8
HETATM    8  C   UNL     1      -7.922  10.014  66.520  1.00  0.00    -0.115 A  
HETATM    9  H2  UNL     1      -5.969  10.352  68.177  1.00  0.00     0.000 HD 
HETATM   10  C   UNL     1      -8.668   9.444  65.550  1.00  0.00    -0.163 A  
HETATM   11  N   UNL     1      -7.641   7.706  67.266  1.00  0.00    -0.106 NA 
HETATM   12  N   UNL     1      -9.105   8.133  65.492  1.00  0.00    -0.039 NA 
HETATM   13  H1  UNL     1      -5.777   8.683  68.729  1.00  0.00     0.000 HD 
HETATM   14  C   UNL     1      -9.269   5.971  66.555  1.00  0.00    -0.158 C  
HETATM   15  N   UNL     1      -6.254   9.373  68.148  1.00  0.00    -0.053 NA 
HETATM   16  C   UNL     1      -8.630   7.326  66.395  1.00  0.00    -0.138 A  
HETATM   17  C   UNL     1      -7.222   9.004  67.372  1.00  0.00    -0.083 A  
ENDBRANCH   7   8
ENDBRANCH   4   7
ENDBRANCH   2   4
BRANCH   3  18
HETATM   18  C   UNL     1     -11.781  13.670  68.584  1.00  0.00    -0.389 C  
BRANCH  18  19
HETATM   19  C   UNL     1     -12.075  13.465  70.121  1.00  0.00    -0.344 C  
BRANCH  19  20
HETATM   20  O   UNL     1     -13.268  14.157  70.651  1.00  0.00    -0.254 OA 
HETATM   21  O   UNL     1     -14.002  13.392  72.602  1.00  0.00    -0.755 OA 
HETATM   22  O   UNL     1     -14.259  15.721  71.932  1.00  0.00    -0.404 OA 
HETATM   23  P   UNL     1     -13.048  14.680  72.285  1.00  0.00    -0.439 P  
HETATM   24  O   UNL     1     -12.851  15.148  73.748  1.00  0.00    -0.520 OA 
ENDBRANCH  19  20
ENDBRANCH  18  19
ENDBRANCH   3  18
BRANCH   3  25
HETATM   25  S   UNL     1      -9.447  14.992  67.535  1.00  0.00    -0.205 SA 
BRANCH  25  26
HETATM   26  C   UNL     1      -9.806  16.432  68.574  1.00  0.00    -0.231 C  
HETATM   27  O   UNL     1     -10.059  16.303  69.766  1.00  0.00    -0.225 OA 
BRANCH  26  28
HETATM   28  C   UNL     1      -9.891  17.842  67.943  1.00  0.00    -0.306 A  
HETATM   29  C   UNL     1      -9.307  20.256  68.113  1.00  0.00    -0.222 A  
HETATM   30  C   UNL     1      -9.304  18.941  68.628  1.00  0.00    -0.415 A  
HETATM   31  C   UNL     1     -10.442  18.146  66.696  1.00  0.00    -0.354 A  
HETATM   32  C   UNL     1      -9.881  20.509  66.873  1.00  0.00    -0.506 A  
HETATM   33  C   UNL     1     -10.443  19.448  66.163  1.00  0.00    -0.600 A  
ENDBRANCH  26  28
ENDBRANCH  25  26
ENDBRANCH   3  25
TORSDOF 9
ENDMDL
MODEL      248
REMARK 921   NORMALIZED FREE ENERGY PREDICTED BY IDOCK:   -4.67 KCAL/MOL
REMARK 922        TOTAL FREE ENERGY PREDICTED BY IDOCK:   -8.64 KCAL/MOL
REMARK 923 INTER-LIGAND FREE ENERGY PREDICTED BY IDOCK:   -7.27 KCAL/MOL
REMARK 924 INTRA-LIGAND FREE ENERGY PREDICTED BY IDOCK:   -1.37 KCAL/MOL
REMARK 927      BINDING AFFINITY PREDICTED BY RF-SCORE:    0.00 PKD
ROOT
HETATM    1  C   UNL     1      -7.846  10.841  66.007  1.00  0.00    -0.149 C  
HETATM    2  C   UNL     1      -9.167  10.079  66.206  1.00  0.00    -0.162 C  
HETATM    3  C   UNL     1      -9.215   9.074  67.132  1.00  0.00    -0.134 C  
ENDROOT
BRANCH   2   4
HETATM    4  N   UNL     1     -10.219  10.573  65.411  1.00  0.00    -0.286 N  
HETATM    5  C   UNL     1     -10.093  10.659  64.015  1.00  0.00    -0.310 C  
HETATM    6  O   UNL     1     -10.801  11.321  63.270  1.00  0.00    -0.326 OA 
BRANCH   4   7
HETATM    7  C   UNL     1     -11.227  11.480  66.001  1.00  0.00    -0.178 C  
BRANCH   7   8
HETATM    8  C   UNL     1     -10.741  12.903  66.205  1.00  0.00    -0.290 A  
HETATM    9  H2  UNL     1     -11.060  11.670  68.453  1.00  0.00     0.000 HD 
HETATM   10  C   UNL     1     -10.667  13.926  65.327  1.00  0.00    -0.345 A  
HETATM   11  N   UNL     1      -9.539  14.445  67.668  1.00  0.00    -0.211 NA 
HETATM   12  N   UNL     1      -9.910  15.078  65.447  1.00  0.00    -0.324 NA 
HETATM   13  H1  UNL     1     -10.177  12.779  69.509  1.00  0.00     0.000 HD 
HETATM   14  C   UNL     1      -8.270  16.341  66.689  1.00  0.00    -0.316 C  
HETATM   15  N   UNL     1     -10.514  12.522  68.581  1.00  0.00    -0.224 NA 
HETATM   16  C   UNL     1      -9.318  15.263  66.590  1.00  0.00    -0.260 A  
HETATM   17  C   UNL     1     -10.247  13.279  67.565  1.00  0.00    -0.222 A  
ENDBRANCH   7   8
ENDBRANCH   4   7
ENDBRANCH   2   4
BRANCH   3  18
HETATM   18  C   UNL     1      -8.054   8.939  68.213  1.00  0.00    -0.109 C  
BRANCH  18  19
HETATM   19  C   UNL     1      -7.912  10.114  69.258  1.00  0.00    -0.138 C  
BRANCH  19  20
HETATM   20  O   UNL     1      -7.920   9.719  70.681  1.00  0.00    -0.272 OA 
HETATM   21  O   UNL     1      -7.631   7.547  71.050  1.00  0.00    -0.082 OA 
HETATM   22  O   UNL     1      -6.885   9.249  72.625  1.00  0.00    -0.256 OA 
HETATM   23  P   UNL     1      -6.541   8.763  71.102  1.00  0.00    -0.084 P  
HETATM   24  O   UNL     1      -5.307   7.907  71.479  1.00  0.00    -0.034 OA 
ENDBRANCH  19  20
ENDBRANCH  18  19
ENDBRANCH   3  18
BRANCH   3  25
HETATM   25  S   UNL     1     -10.548   7.836  67.287  1.00  0.00    -0.262 SA 
BRANCH  25  26
HETATM   26  C   UNL     1     -10.408   6.819  68.780  1.00  0.00    -0.196 C  
HETATM   27  O   UNL     1     -10.012   5.660  68.718  1.00  0.00    -0.144 OA 
BRANCH  26  28
HETATM   28  C   UNL     1     -10.878   7.374  70.144  1.00  0.00    -0.270 A  
HETATM   29  C   UNL     1     -11.621   9.351  71.463  1.00  0.00    -0.467 A  
HETATM   30  C   UNL     1     -11.158   8.763  70.265  1.00  0.00    -0.240 A  
HETATM   31  C   UNL     1     -11.132   6.616  71.290  1.00  0.00    -0.312 A  
HETATM   32  C   UNL     1     -11.843   8.555  72.580  1.00  0.00    -0.398 A  
HETATM   33  C   UNL     1     -11.604   7.184  72.487  1.00  0.00    -0.265 A  
ENDBRANCH  26  28
ENDBRANCH  25  26
ENDBRANCH   3  25
TORSDOF 9
ENDMDL
MODEL      249
REMARK 921   NORMALIZED FREE ENERGY PREDICTED BY IDOCK:   -4.67 KCAL/MOL
REMARK 922        TOTAL FREE ENERGY PREDICTED BY IDOCK:   -8.64 KCAL/MOL
REMARK 923 INTER-LIGAND FREE ENERGY PREDICTED BY IDOCK:   -6.91 KCAL/MOL
REMARK 924 INTRA-LIGAND FREE ENERGY PREDICTED BY IDOCK:   -1.73 KCAL/MOL
REMARK 927      BINDING AFFINITY PREDICTED BY RF-SCORE:    0.00 PKD
ROOT
HETATM    1  C   UNL     1      -8.190  10.249  69.435  1.00  0.00    -0.171 C  
HETATM    2  C   UNL     1      -9.196   9.347  68.699  1.00  0.00    -0.131 C  
HETATM    3  C   UNL     1      -9.731   8.278  69.363  1.00  0.00    -0.177 C  
ENDROOT
BRANCH   2   4
HETATM    4  N   UNL     1      -9.489   9.791  67.395  1.00  0.00    -0.150 N  
HETATM    5  C   UNL     1      -8.464  10.063  66.475  1.00  0.00    -0.126 C  
HETATM    6  O   UNL     1      -8.579  10.710  65.445  1.00  0.00    -0.177 OA 
BRANCH   4   7
HETATM    7  C   UNL     1     -10.770  10.476  67.120  1.00  0.00    -0.265 C  
BRANCH   7   8
HETATM    8  C   UNL     1     -10.735  11.976  67.347  1.00  0.00    -0.266 A  
HETATM    9  H2  UNL     1     -12.088  11.361  65.235  1.00  0.00     0.000 HD 
HETATM   10  C   UNL     1      -9.970  12.706  68.187  1.00  0.00    -0.225 A  
HETATM   11  N   UNL     1     -11.858  14.111  66.969  1.00  0.00    -0.410 NA 
HETATM   12  N   UNL     1     -10.200  14.000  68.616  1.00  0.00    -0.239 NA 
HETATM   13  H1  UNL     1     -12.913  12.902  64.971  1.00  0.00     0.000 HD 
HETATM   14  C   UNL     1     -11.652  15.929  68.647  1.00  0.00    -0.383 C  
HETATM   15  N   UNL     1     -12.269  12.326  65.513  1.00  0.00    -0.578 NA 
HETATM   16  C   UNL     1     -11.180  14.634  68.040  1.00  0.00    -0.293 A  
HETATM   17  C   UNL     1     -11.680  12.820  66.553  1.00  0.00    -0.400 A  
ENDBRANCH   7   8
ENDBRANCH   4   7
ENDBRANCH   2   4
BRANCH   3  18
HETATM   18  C   UNL     1      -9.593   8.181  70.946  1.00  0.00    -0.187 C  
BRANCH  18  19
HETATM   19  C   UNL     1     -10.718   8.880  71.805  1.00  0.00    -0.362 C  
BRANCH  19  20
HETATM   20  O   UNL     1     -11.964   9.220  71.087  1.00  0.00    -0.293 OA 
HETATM   21  O   UNL     1     -13.309  10.623  72.163  1.00  0.00    -0.444 OA 
HETATM   22  O   UNL     1     -13.186  10.539  69.731  1.00  0.00     0.007 OA 
HETATM   23  P   UNL     1     -12.216  10.929  70.988  1.00  0.00    -0.296 P  
HETATM   24  O   UNL     1     -12.441  12.458  70.900  1.00  0.00    -0.371 OA 
ENDBRANCH  19  20
ENDBRANCH  18  19
ENDBRANCH   3  18
BRANCH   3  25
HETATM   25  S   UNL     1     -10.657   6.905  68.594  1.00  0.00    -0.218 SA 
BRANCH  25  26
HETATM   26  C   UNL     1      -9.592   5.720  67.730  1.00  0.00    -0.115 C  
HETATM   27  O   UNL     1      -9.730   4.514  67.894  1.00  0.00    -0.160 OA 
BRANCH  26  28
HETATM   28  C   UNL     1      -8.430   6.224  66.844  1.00  0.00    -0.109 A  
HETATM   29  C   UNL     1      -6.023   6.839  66.688  1.00  0.00    -0.029 A  
HETATM   30  C   UNL     1      -7.147   6.412  67.427  1.00  0.00    -0.077 A  
HETATM   31  C   UNL     1      -8.495   6.456  65.467  1.00  0.00    -0.141 A  
HETATM   32  C   UNL     1      -6.143   7.071  65.323  1.00  0.00    -0.037 A  
HETATM   33  C   UNL     1      -7.382   6.871  64.714  1.00  0.00    -0.088 A  
ENDBRANCH  26  28
ENDBRANCH  25  26
ENDBRANCH   3  25
TORSDOF 9
ENDMDL
MODEL      250
REMARK 921   NORMALIZED FREE ENERGY PREDICTED BY IDOCK:   -4.67 KCAL/MOL
REMARK 922        TOTAL FREE ENERGY PREDICTED BY IDOCK:   -8.64 KCAL/MOL
REMARK 923 INTER-LIGAND FREE ENERGY PREDICTED BY IDOCK:   -8.34 KCAL/MOL
REMARK 924 INTRA-LIGAND FREE ENERGY PREDICTED BY IDOCK:   -0.30 KCAL/MOL
REMARK 927      BINDING AFFINITY PREDICTED BY RF-SCORE:    0.00 PKD
ROOT
HETATM    1  C   UNL     1      -8.428  11.927  68.815  1.00  0.00     0.036 C  
HETATM    2  C   UNL     1      -9.435  12.415  67.760  1.00  0.00    -0.199 C  
HETATM    3  C   UNL     1      -9.813  13.729  67.768  1.00  0.00    -0.234 C  
ENDROOT
BRANCH   2   4
HETATM    4  N   UNL     1      -9.813  11.412  66.847  1.00  0.00    -0.191 N  
HETATM    5  C   UNL     1      -9.522  11.531  65.479  1.00  0.00    -0.212 C  
HETATM    6  O   UNL     1     -10.039  10.887  64.577  1.00  0.00    -0.289 OA 
BRANCH   4   7
HETATM    7  C   UNL     1     -10.941  10.510  67.167  1.00  0.00    -0.228 C  
BRANCH   7   8
HETATM    8  C   UNL     1     -10.996  10.074  68.620  1.00  0.00    -0.247 A  
HETATM    9  H2  UNL     1     -12.294  12.274  68.232  1.00  0.00     0.000 HD 
HETATM   10  C   UNL     1     -10.282   9.128  69.267  1.00  0.00    -0.210 A  
HETATM   11  N   UNL     1     -12.240  10.167  70.718  1.00  0.00    -0.317 NA 
HETATM   12  N   UNL     1     -10.591   8.526  70.472  1.00  0.00    -0.208 NA 
HETATM   13  H1  UNL     1     -13.206  12.332  69.745  1.00  0.00     0.000 HD 
HETATM   14  C   UNL     1     -12.155   8.247  72.291  1.00  0.00    -0.439 C  
HETATM   15  N   UNL     1     -12.533  11.866  69.136  1.00  0.00    -0.003 NA 
HETATM   16  C   UNL     1     -11.602   9.022  71.123  1.00  0.00    -0.306 A  
HETATM   17  C   UNL     1     -11.982  10.757  69.512  1.00  0.00    -0.292 A  
ENDBRANCH   7   8
ENDBRANCH   4   7
ENDBRANCH   2   4
BRANCH   3  18
HETATM   18  C   UNL     1      -8.972  14.788  68.608  1.00  0.00    -0.185 C  
BRANCH  18  19
HETATM   19  C   UNL     1      -9.689  15.445  69.851  1.00  0.00    -0.142 C  
BRANCH  19  20
HETATM   20  O   UNL     1     -11.161  15.321  69.890  1.00  0.00    -0.250 OA 
HETATM   21  O   UNL     1     -11.934  13.830  71.344  1.00  0.00    -0.163 OA 
HETATM   22  O   UNL     1     -13.182  15.834  70.740  1.00  0.00    -0.542 OA 
HETATM   23  P   UNL     1     -11.785  15.450  71.499  1.00  0.00    -0.482 P  
HETATM   24  O   UNL     1     -12.343  15.565  72.938  1.00  0.00    -0.353 OA 
ENDBRANCH  19  20
ENDBRANCH  18  19
ENDBRANCH   3  18
BRANCH   3  25
HETATM   25  S   UNL     1     -11.225  14.433  66.849  1.00  0.00    -0.346 SA 
BRANCH  25  26
HETATM   26  C   UNL     1     -10.728  15.636  65.588  1.00  0.00    -0.364 C  
HETATM   27  O   UNL     1     -10.850  15.385  64.395  1.00  0.00    -0.215 OA 
BRANCH  26  28
HETATM   28  C   UNL     1     -10.052  16.963  66.005  1.00  0.00    -0.336 A  
HETATM   29  C   UNL     1     -10.240  19.436  66.226  1.00  0.00    -0.566 A  
HETATM   30  C   UNL     1     -10.766  18.182  65.844  1.00  0.00    -0.140 A  
HETATM   31  C   UNL     1      -8.798  17.086  66.608  1.00  0.00    -0.282 A  
HETATM   32  C   UNL     1      -8.981  19.506  66.808  1.00  0.00    -0.386 A  
HETATM   33  C   UNL     1      -8.264  18.325  67.005  1.00  0.00    -0.248 A  
ENDBRANCH  26  28
ENDBRANCH  25  26
ENDBRANCH   3  25
TORSDOF 9
ENDMDL
MODEL      251
REMARK 921   NORMALIZED FREE ENERGY PREDICTED BY IDOCK:   -4.64 KCAL/MOL
REMARK 922        TOTAL FREE ENERGY PREDICTED BY IDOCK:   -8.59 KCAL/MOL
REMARK 923 INTER-LIGAND FREE ENERGY PREDICTED BY IDOCK:   -7.81 KCAL/MOL
REMARK 924 INTRA-LIGAND FREE ENERGY PREDICTED BY IDOCK:   -0.79 KCAL/MOL
REMARK 927      BINDING AFFINITY PREDICTED BY RF-SCORE:    0.00 PKD
ROOT
HETATM    1  C   UNL     1      -7.728  12.327  67.129  1.00  0.00    -0.134 C  
HETATM    2  C   UNL     1      -9.185  12.152  67.590  1.00  0.00    -0.181 C  
HETATM    3  C   UNL     1      -9.558  10.965  68.157  1.00  0.00    -0.164 C  
ENDROOT
BRANCH   2   4
HETATM    4  N   UNL     1      -9.968  13.308  67.408  1.00  0.00    -0.230 N  
HETATM    5  C   UNL     1     -11.003  13.630  68.302  1.00  0.00    -0.254 C  
HETATM    6  O   UNL     1     -11.910  14.422  68.092  1.00  0.00    -0.327 OA 
BRANCH   4   7
HETATM    7  C   UNL     1     -10.099  13.906  66.062  1.00  0.00    -0.313 C  
BRANCH   7   8
HETATM    8  C   UNL     1      -9.841  15.401  66.018  1.00  0.00    -0.355 A  
HETATM    9  H2  UNL     1     -11.482  14.658  64.165  1.00  0.00     0.000 HD 
HETATM   10  C   UNL     1      -8.901  16.136  66.650  1.00  0.00    -0.264 A  
HETATM   11  N   UNL     1     -10.706  17.589  65.363  1.00  0.00    -0.586 NA 
HETATM   12  N   UNL     1      -8.911  17.503  66.861  1.00  0.00    -0.243 NA 
HETATM   13  H1  UNL     1     -12.119  16.241  63.703  1.00  0.00     0.000 HD 
HETATM   14  C   UNL     1     -10.083  19.605  66.672  1.00  0.00    -0.555 C  
HETATM   15  N   UNL     1     -11.502  15.672  64.283  1.00  0.00    -0.292 NA 
HETATM   16  C   UNL     1      -9.854  18.172  66.266  1.00  0.00    -0.310 A  
HETATM   17  C   UNL     1     -10.745  16.236  65.168  1.00  0.00    -0.331 A  
ENDBRANCH   7   8
ENDBRANCH   4   7
ENDBRANCH   2   4
BRANCH   3  18
HETATM   18  C   UNL     1      -8.445   9.939  68.649  1.00  0.00    -0.114 C  
BRANCH  18  19
HETATM   19  C   UNL     1      -8.536   8.466  68.092  1.00  0.00    -0.132 C  
BRANCH  19  20
HETATM   20  O   UNL     1      -7.250   7.760  67.914  1.00  0.00    -0.085 OA 
HETATM   21  O   UNL     1      -6.753   6.306  69.518  1.00  0.00    -0.051 OA 
HETATM   22  O   UNL     1      -6.018   6.009  67.215  1.00  0.00    -0.016 OA 
HETATM   23  P   UNL     1      -7.423   6.044  68.052  1.00  0.00    -0.087 P  
HETATM   24  O   UNL     1      -7.577   4.508  68.175  1.00  0.00    -0.075 OA 
ENDBRANCH  19  20
ENDBRANCH  18  19
ENDBRANCH   3  18
BRANCH   3  25
HETATM   25  S   UNL     1     -11.277  10.424  68.454  1.00  0.00    -0.223 SA 
BRANCH  25  26
HETATM   26  C   UNL     1     -11.698  10.318  70.213  1.00  0.00    -0.306 C  
HETATM   27  O   UNL     1     -11.958  11.325  70.861  1.00  0.00    -0.326 OA 
BRANCH  26  28
HETATM   28  C   UNL     1     -11.643   8.956  70.943  1.00  0.00    -0.331 A  
HETATM   29  C   UNL     1     -11.446   6.481  70.758  1.00  0.00    -0.419 A  
HETATM   30  C   UNL     1     -11.533   7.765  70.175  1.00  0.00    -0.055 A  
HETATM   31  C   UNL     1     -11.619   8.773  72.328  1.00  0.00    -0.391 A  
HETATM   32  C   UNL     1     -11.441   6.351  72.141  1.00  0.00    -0.344 A  
HETATM   33  C   UNL     1     -11.521   7.503  72.925  1.00  0.00    -0.311 A  
ENDBRANCH  26  28
ENDBRANCH  25  26
ENDBRANCH   3  25
TORSDOF 9
ENDMDL
MODEL      252
REMARK 921   NORMALIZED FREE ENERGY PREDICTED BY IDOCK:   -4.64 KCAL/MOL
REMARK 922        TOTAL FREE ENERGY PREDICTED BY IDOCK:   -8.59 KCAL/MOL
REMARK 923 INTER-LIGAND FREE ENERGY PREDICTED BY IDOCK:   -7.13 KCAL/MOL
REMARK 924 INTRA-LIGAND FREE ENERGY PREDICTED BY IDOCK:   -1.46 KCAL/MOL
REMARK 927      BINDING AFFINITY PREDICTED BY RF-SCORE:    0.00 PKD
ROOT
HETATM    1  C   UNL     1     -12.156  13.372  66.049  1.00  0.00    -0.487 C  
HETATM    2  C   UNL     1     -11.271  13.473  67.303  1.00  0.00    -0.298 C  
HETATM    3  C   UNL     1     -10.013  13.995  67.182  1.00  0.00    -0.252 C  
ENDROOT
BRANCH   2   4
HETATM    4  N   UNL     1     -11.919  13.043  68.477  1.00  0.00    -0.309 N  
HETATM    5  C   UNL     1     -11.814  13.774  69.672  1.00  0.00    -0.333 C  
HETATM    6  O   UNL     1     -12.081  13.361  70.790  1.00  0.00    -0.342 OA 
BRANCH   4   7
HETATM    7  C   UNL     1     -12.264  11.616  68.650  1.00  0.00     0.069 C  
BRANCH   7   8
HETATM    8  C   UNL     1     -11.063  10.695  68.766  1.00  0.00    -0.316 A  
HETATM    9  H2  UNL     1     -12.209  11.064  71.051  1.00  0.00     0.000 HD 
HETATM   10  C   UNL     1     -10.084  10.434  67.873  1.00  0.00    -0.171 A  
HETATM   11  N   UNL     1     -10.005   8.893  70.027  1.00  0.00    -0.183 NA 
HETATM   12  N   UNL     1      -9.220   9.353  67.872  1.00  0.00    -0.130 NA 
HETATM   13  H1  UNL     1     -11.454   9.749  71.960  1.00  0.00     0.000 HD 
HETATM   14  C   UNL     1      -8.553   7.252  68.857  1.00  0.00    -0.129 C  
HETATM   15  N   UNL     1     -11.568  10.272  71.091  1.00  0.00    -0.343 NA 
HETATM   16  C   UNL     1      -9.260   8.582  68.919  1.00  0.00    -0.146 A  
HETATM   17  C   UNL     1     -10.897   9.929  70.039  1.00  0.00    -0.294 A  
ENDBRANCH   7   8
ENDBRANCH   4   7
ENDBRANCH   2   4
BRANCH   3  18
HETATM   18  C   UNL     1      -9.614  14.798  65.866  1.00  0.00    -0.320 C  
BRANCH  18  19
HETATM   19  C   UNL     1     -10.351  16.171  65.618  1.00  0.00    -0.382 C  
BRANCH  19  20
HETATM   20  O   UNL     1      -9.684  17.372  66.162  1.00  0.00    -0.390 OA 
HETATM   21  O   UNL     1     -11.031  18.789  67.217  1.00  0.00    -0.412 OA 
HETATM   22  O   UNL     1      -8.687  18.516  67.826  1.00  0.00    -0.268 OA 
HETATM   23  P   UNL     1     -10.061  17.627  67.832  1.00  0.00    -0.383 P  
HETATM   24  O   UNL     1     -10.397  17.856  69.325  1.00  0.00    -0.290 OA 
ENDBRANCH  19  20
ENDBRANCH  18  19
ENDBRANCH   3  18
BRANCH   3  25
HETATM   25  S   UNL     1      -8.694  13.892  68.440  1.00  0.00    -0.147 SA 
BRANCH  25  26
HETATM   26  C   UNL     1      -7.065  13.523  67.739  1.00  0.00    -0.159 C  
HETATM   27  O   UNL     1      -6.394  14.400  67.206  1.00  0.00    -0.298 OA 
BRANCH  26  28
HETATM   28  C   UNL     1      -6.538  12.069  67.722  1.00  0.00    -0.093 A  
HETATM   29  C   UNL     1      -5.851  10.069  69.036  1.00  0.00    -0.034 A  
HETATM   30  C   UNL     1      -6.302  11.405  68.957  1.00  0.00    -0.063 A  
HETATM   31  C   UNL     1      -6.330  11.291  66.580  1.00  0.00    -0.135 A  
HETATM   32  C   UNL     1      -5.644   9.342  67.870  1.00  0.00    -0.038 A  
HETATM   33  C   UNL     1      -5.892   9.955  66.642  1.00  0.00    -0.054 A  
ENDBRANCH  26  28
ENDBRANCH  25  26
ENDBRANCH   3  25
TORSDOF 9
ENDMDL
MODEL      253
REMARK 921   NORMALIZED FREE ENERGY PREDICTED BY IDOCK:   -4.64 KCAL/MOL
REMARK 922        TOTAL FREE ENERGY PREDICTED BY IDOCK:   -8.59 KCAL/MOL
REMARK 923 INTER-LIGAND FREE ENERGY PREDICTED BY IDOCK:   -8.22 KCAL/MOL
REMARK 924 INTRA-LIGAND FREE ENERGY PREDICTED BY IDOCK:   -0.37 KCAL/MOL
REMARK 927      BINDING AFFINITY PREDICTED BY RF-SCORE:    0.00 PKD
ROOT
HETATM    1  C   UNL     1      -9.372  11.585  68.241  1.00  0.00    -0.190 C  
HETATM    2  C   UNL     1      -9.291  12.892  67.433  1.00  0.00    -0.194 C  
HETATM    3  C   UNL     1      -8.194  13.693  67.584  1.00  0.00    -0.178 C  
ENDROOT
BRANCH   2   4
HETATM    4  N   UNL     1     -10.383  13.075  66.563  1.00  0.00    -0.269 N  
HETATM    5  C   UNL     1     -10.246  13.810  65.374  1.00  0.00    -0.326 C  
HETATM    6  O   UNL     1     -11.161  14.270  64.706  1.00  0.00    -0.359 OA 
BRANCH   4   7
HETATM    7  C   UNL     1     -11.764  12.985  67.083  1.00  0.00    -0.382 C  
BRANCH   7   8
HETATM    8  C   UNL     1     -11.938  13.537  68.486  1.00  0.00    -0.379 A  
HETATM    9  H2  UNL     1     -11.089  15.344  66.846  1.00  0.00     0.000 HD 
HETATM   10  C   UNL     1     -12.141  12.887  69.652  1.00  0.00    -0.226 A  
HETATM   11  N   UNL     1     -12.349  15.521  69.847  1.00  0.00    -0.334 NA 
HETATM   12  N   UNL     1     -12.635  13.418  70.830  1.00  0.00    -0.323 NA 
HETATM   13  H1  UNL     1     -11.402  16.781  67.826  1.00  0.00     0.000 HD 
HETATM   14  C   UNL     1     -13.569  15.312  72.000  1.00  0.00    -0.571 C  
HETATM   15  N   UNL     1     -11.430  15.768  67.709  1.00  0.00    -0.241 NA 
HETATM   16  C   UNL     1     -12.786  14.709  70.862  1.00  0.00    -0.365 A  
HETATM   17  C   UNL     1     -11.897  15.022  68.657  1.00  0.00    -0.296 A  
ENDBRANCH   7   8
ENDBRANCH   4   7
ENDBRANCH   2   4
BRANCH   3  18
HETATM   18  C   UNL     1      -6.889  13.121  68.294  1.00  0.00    -0.103 C  
BRANCH  18  19
HETATM   19  C   UNL     1      -5.853  12.360  67.378  1.00  0.00    -0.149 C  
BRANCH  19  20
HETATM   20  O   UNL     1      -6.109  10.920  67.169  1.00  0.00    -0.058 OA 
HETATM   21  O   UNL     1      -7.592  10.457  65.581  1.00  0.00    -0.144 OA 
HETATM   22  O   UNL     1      -5.743   8.964  66.116  1.00  0.00    -0.044 OA 
HETATM   23  P   UNL     1      -5.960  10.466  65.506  1.00  0.00    -0.120 P  
HETATM   24  O   UNL     1      -5.827  10.059  64.018  1.00  0.00    -0.109 OA 
ENDBRANCH  19  20
ENDBRANCH  18  19
ENDBRANCH   3  18
BRANCH   3  25
HETATM   25  S   UNL     1      -8.050  15.417  67.001  1.00  0.00    -0.221 SA 
BRANCH  25  26
HETATM   26  C   UNL     1      -7.965  16.624  68.351  1.00  0.00    -0.205 C  
HETATM   27  O   UNL     1      -7.496  16.318  69.441  1.00  0.00    -0.233 OA 
BRANCH  26  28
HETATM   28  C   UNL     1      -8.574  18.033  68.171  1.00  0.00    -0.277 A  
HETATM   29  C   UNL     1      -8.533  20.196  66.938  1.00  0.00    -0.376 A  
HETATM   30  C   UNL     1      -8.022  18.904  67.192  1.00  0.00    -0.254 A  
HETATM   31  C   UNL     1      -9.692  18.531  68.845  1.00  0.00    -0.342 A  
HETATM   32  C   UNL     1      -9.639  20.651  67.646  1.00  0.00    -0.441 A  
HETATM   33  C   UNL     1     -10.221  19.811  68.596  1.00  0.00    -0.515 A  
ENDBRANCH  26  28
ENDBRANCH  25  26
ENDBRANCH   3  25
TORSDOF 9
ENDMDL
MODEL      254
REMARK 921   NORMALIZED FREE ENERGY PREDICTED BY IDOCK:   -4.62 KCAL/MOL
REMARK 922        TOTAL FREE ENERGY PREDICTED BY IDOCK:   -8.55 KCAL/MOL
REMARK 923 INTER-LIGAND FREE ENERGY PREDICTED BY IDOCK:   -7.20 KCAL/MOL
REMARK 924 INTRA-LIGAND FREE ENERGY PREDICTED BY IDOCK:   -1.35 KCAL/MOL
REMARK 927      BINDING AFFINITY PREDICTED BY RF-SCORE:    0.00 PKD
ROOT
HETATM    1  C   UNL     1      -9.212   8.468  72.572  1.00  0.00    -0.303 C  
HETATM    2  C   UNL     1     -10.191   8.574  71.390  1.00  0.00    -0.235 C  
HETATM    3  C   UNL     1      -9.738   9.076  70.202  1.00  0.00    -0.188 C  
ENDROOT
BRANCH   2   4
HETATM    4  N   UNL     1     -11.472   8.068  71.683  1.00  0.00    -0.257 N  
HETATM    5  C   UNL     1     -12.469   8.892  72.230  1.00  0.00    -0.369 C  
HETATM    6  O   UNL     1     -13.491   8.511  72.781  1.00  0.00    -0.207 OA 
BRANCH   4   7
HETATM    7  C   UNL     1     -11.655   6.622  71.932  1.00  0.00    -0.303 C  
BRANCH   7   8
HETATM    8  C   UNL     1     -10.775   5.727  71.078  1.00  0.00    -0.326 A  
HETATM    9  H2  UNL     1     -10.022   5.730  73.549  1.00  0.00     0.000 HD 
HETATM   10  C   UNL     1     -10.692   5.625  69.734  1.00  0.00    -0.331 A  
HETATM   11  N   UNL     1      -9.289   3.790  71.034  1.00  0.00    -0.134 NA 
HETATM   12  N   UNL     1     -10.150   4.580  69.007  1.00  0.00    -0.075 NA 
HETATM   13  H1  UNL     1      -8.959   4.318  73.520  1.00  0.00     0.000 HD 
HETATM   14  C   UNL     1      -9.162   2.377  68.996  1.00  0.00    -0.205 C  
HETATM   15  N   UNL     1      -9.591   4.958  73.039  1.00  0.00    -0.135 NA 
HETATM   16  C   UNL     1      -9.527   3.664  69.689  1.00  0.00    -0.175 A  
HETATM   17  C   UNL     1      -9.848   4.790  71.782  1.00  0.00    -0.180 A  
ENDBRANCH   7   8
ENDBRANCH   4   7
ENDBRANCH   2   4
BRANCH   3  18
HETATM   18  C   UNL     1      -8.172   9.207  69.945  1.00  0.00    -0.137 C  
BRANCH  18  19
HETATM   19  C   UNL     1      -7.448   7.965  69.294  1.00  0.00    -0.092 C  
BRANCH  19  20
HETATM   20  O   UNL     1      -8.086   7.403  68.086  1.00  0.00    -0.121 OA 
HETATM   21  O   UNL     1      -7.838   8.622  66.246  1.00  0.00    -0.098 OA 
HETATM   22  O   UNL     1      -8.040   6.195  66.186  1.00  0.00    -0.108 OA 
HETATM   23  P   UNL     1      -6.992   7.319  66.749  1.00  0.00    -0.077 P  
HETATM   24  O   UNL     1      -6.013   7.243  65.552  1.00  0.00    -0.036 OA 
ENDBRANCH  19  20
ENDBRANCH  18  19
ENDBRANCH   3  18
BRANCH   3  25
HETATM   25  S   UNL     1     -10.786   9.602  68.803  1.00  0.00    -0.175 SA 
BRANCH  25  26
HETATM   26  C   UNL     1     -10.124  11.036  67.913  1.00  0.00    -0.178 C  
HETATM   27  O   UNL     1      -9.274  11.756  68.424  1.00  0.00    -0.183 OA 
BRANCH  26  28
HETATM   28  C   UNL     1     -10.695  11.422  66.530  1.00  0.00    -0.325 A  
HETATM   29  C   UNL     1     -12.191  12.920  65.220  1.00  0.00    -0.524 A  
HETATM   30  C   UNL     1     -11.640  12.480  66.444  1.00  0.00    -0.449 A  
HETATM   31  C   UNL     1     -10.314  10.867  65.305  1.00  0.00    -0.334 A  
HETATM   32  C   UNL     1     -11.790  12.325  64.030  1.00  0.00    -0.530 A  
HETATM   33  C   UNL     1     -10.844  11.301  64.077  1.00  0.00    -0.414 A  
ENDBRANCH  26  28
ENDBRANCH  25  26
ENDBRANCH   3  25
TORSDOF 9
ENDMDL
MODEL      255
REMARK 921   NORMALIZED FREE ENERGY PREDICTED BY IDOCK:   -4.61 KCAL/MOL
REMARK 922        TOTAL FREE ENERGY PREDICTED BY IDOCK:   -8.55 KCAL/MOL
REMARK 923 INTER-LIGAND FREE ENERGY PREDICTED BY IDOCK:   -6.80 KCAL/MOL
REMARK 924 INTRA-LIGAND FREE ENERGY PREDICTED BY IDOCK:   -1.75 KCAL/MOL
REMARK 927      BINDING AFFINITY PREDICTED BY RF-SCORE:    0.00 PKD
ROOT
HETATM    1  C   UNL     1      -7.375  10.013  70.147  1.00  0.00    -0.171 C  
HETATM    2  C   UNL     1      -8.658   9.505  69.469  1.00  0.00    -0.169 C  
HETATM    3  C   UNL     1      -8.862   9.788  68.147  1.00  0.00    -0.119 C  
ENDROOT
BRANCH   2   4
HETATM    4  N   UNL     1      -9.470   8.733  70.323  1.00  0.00    -0.166 N  
HETATM    5  C   UNL     1     -10.436   9.336  71.144  1.00  0.00    -0.331 C  
HETATM    6  O   UNL     1     -10.980   8.819  72.109  1.00  0.00    -0.356 OA 
BRANCH   4   7
HETATM    7  C   UNL     1      -9.006   7.405  70.780  1.00  0.00    -0.151 C  
BRANCH   7   8
HETATM    8  C   UNL     1      -9.105   6.316  69.728  1.00  0.00    -0.143 A  
HETATM    9  H2  UNL     1      -6.665   7.091  70.074  1.00  0.00     0.000 HD 
HETATM   10  C   UNL     1     -10.192   5.810  69.107  1.00  0.00    -0.223 A  
HETATM   11  N   UNL     1      -7.952   4.496  68.579  1.00  0.00    -0.079 NA 
HETATM   12  N   UNL     1     -10.284   4.608  68.430  1.00  0.00    -0.001 NA 
HETATM   13  H1  UNL     1      -5.831   5.765  69.255  1.00  0.00     0.000 HD 
HETATM   14  C   UNL     1      -9.240   2.532  67.772  1.00  0.00    -0.240 C  
HETATM   15  N   UNL     1      -6.697   6.212  69.557  1.00  0.00    -0.050 NA 
HETATM   16  C   UNL     1      -9.171   3.959  68.250  1.00  0.00    -0.155 A  
HETATM   17  C   UNL     1      -7.836   5.662  69.285  1.00  0.00    -0.089 A  
ENDBRANCH   7   8
ENDBRANCH   4   7
ENDBRANCH   2   4
BRANCH   3  18
HETATM   18  C   UNL     1      -7.651  10.312  67.255  1.00  0.00    -0.095 C  
BRANCH  18  19
HETATM   19  C   UNL     1      -7.532  11.873  67.059  1.00  0.00    -0.126 C  
BRANCH  19  20
HETATM   20  O   UNL     1      -8.353  12.704  67.963  1.00  0.00    -0.156 OA 
HETATM   21  O   UNL     1      -7.370  14.568  68.667  1.00  0.00    -0.113 OA 
HETATM   22  O   UNL     1      -9.782  14.397  68.366  1.00  0.00    -0.214 OA 
HETATM   23  P   UNL     1      -8.431  14.353  67.444  1.00  0.00    -0.213 P  
HETATM   24  O   UNL     1      -8.502  15.828  66.980  1.00  0.00    -0.182 OA 
ENDBRANCH  19  20
ENDBRANCH  18  19
ENDBRANCH   3  18
BRANCH   3  25
HETATM   25  S   UNL     1     -10.438   9.588  67.248  1.00  0.00    -0.247 SA 
BRANCH  25  26
HETATM   26  C   UNL     1     -10.409  10.306  65.585  1.00  0.00    -0.162 C  
HETATM   27  O   UNL     1      -9.792   9.764  64.675  1.00  0.00    -0.228 OA 
BRANCH  26  28
HETATM   28  C   UNL     1     -11.089  11.668  65.316  1.00  0.00    -0.298 A  
HETATM   29  C   UNL     1     -11.829  13.350  63.636  1.00  0.00    -0.451 A  
HETATM   30  C   UNL     1     -11.197  12.133  63.977  1.00  0.00    -0.458 A  
HETATM   31  C   UNL     1     -11.689  12.485  66.278  1.00  0.00    -0.462 A  
HETATM   32  C   UNL     1     -12.398  14.134  64.632  1.00  0.00    -0.432 A  
HETATM   33  C   UNL     1     -12.331  13.693  65.954  1.00  0.00    -0.516 A  
ENDBRANCH  26  28
ENDBRANCH  25  26
ENDBRANCH   3  25
TORSDOF 9
ENDMDL
MODEL      256
REMARK 921   NORMALIZED FREE ENERGY PREDICTED BY IDOCK:   -4.60 KCAL/MOL
REMARK 922        TOTAL FREE ENERGY PREDICTED BY IDOCK:   -8.53 KCAL/MOL
REMARK 923 INTER-LIGAND FREE ENERGY PREDICTED BY IDOCK:   -7.91 KCAL/MOL
REMARK 924 INTRA-LIGAND FREE ENERGY PREDICTED BY IDOCK:   -0.62 KCAL/MOL
REMARK 927      BINDING AFFINITY PREDICTED BY RF-SCORE:    0.00 PKD
ROOT
HETATM    1  C   UNL     1     -11.432  10.793  67.478  1.00  0.00    -0.174 C  
HETATM    2  C   UNL     1     -10.157  11.594  67.167  1.00  0.00    -0.204 C  
HETATM    3  C   UNL     1     -10.200  12.959  67.243  1.00  0.00    -0.234 C  
ENDROOT
BRANCH   2   4
HETATM    4  N   UNL     1      -9.044  10.779  66.883  1.00  0.00    -0.148 N  
HETATM    5  C   UNL     1      -8.178  11.081  65.819  1.00  0.00    -0.064 C  
HETATM    6  O   UNL     1      -7.374  10.313  65.310  1.00  0.00    -0.141 OA 
BRANCH   4   7
HETATM    7  C   UNL     1      -9.040   9.362  67.306  1.00  0.00    -0.133 C  
BRANCH   7   8
HETATM    8  C   UNL     1      -8.311   9.105  68.612  1.00  0.00    -0.126 A  
HETATM    9  H2  UNL     1      -7.489   7.533  66.733  1.00  0.00     0.000 HD 
HETATM   10  C   UNL     1      -8.590   9.542  69.859  1.00  0.00    -0.204 A  
HETATM   11  N   UNL     1      -6.274   8.270  69.667  1.00  0.00    -0.032 NA 
HETATM   12  N   UNL     1      -7.732   9.580  70.943  1.00  0.00    -0.319 NA 
HETATM   13  H1  UNL     1      -6.006   6.942  67.491  1.00  0.00     0.000 HD 
HETATM   14  C   UNL     1      -5.507   9.247  71.817  1.00  0.00    -0.071 C  
HETATM   15  N   UNL     1      -6.843   7.524  67.523  1.00  0.00    -0.069 NA 
HETATM   16  C   UNL     1      -6.577   9.003  70.786  1.00  0.00    -0.063 A  
HETATM   17  C   UNL     1      -7.085   8.251  68.566  1.00  0.00    -0.077 A  
ENDBRANCH   7   8
ENDBRANCH   4   7
ENDBRANCH   2   4
BRANCH   3  18
HETATM   18  C   UNL     1     -11.423  13.670  67.975  1.00  0.00    -0.345 C  
BRANCH  18  19
HETATM   19  C   UNL     1     -11.688  13.267  69.477  1.00  0.00    -0.322 C  
BRANCH  19  20
HETATM   20  O   UNL     1     -11.611  14.363  70.465  1.00  0.00    -0.271 OA 
HETATM   21  O   UNL     1     -13.507  15.477  70.775  1.00  0.00    -0.475 OA 
HETATM   22  O   UNL     1     -11.856  15.192  72.544  1.00  0.00    -0.390 OA 
HETATM   23  P   UNL     1     -12.863  14.260  71.654  1.00  0.00    -0.377 P  
HETATM   24  O   UNL     1     -13.984  14.168  72.718  1.00  0.00    -0.638 OA 
ENDBRANCH  19  20
ENDBRANCH  18  19
ENDBRANCH   3  18
BRANCH   3  25
HETATM   25  S   UNL     1      -8.931  14.100  66.596  1.00  0.00    -0.108 SA 
BRANCH  25  26
HETATM   26  C   UNL     1      -9.619  15.660  65.982  1.00  0.00    -0.351 C  
HETATM   27  O   UNL     1     -10.169  15.719  64.888  1.00  0.00    -0.449 OA 
BRANCH  26  28
HETATM   28  C   UNL     1      -9.436  16.962  66.795  1.00  0.00    -0.269 A  
HETATM   29  C   UNL     1     -10.337  19.203  67.401  1.00  0.00    -0.522 A  
HETATM   30  C   UNL     1     -10.407  17.994  66.674  1.00  0.00    -0.375 A  
HETATM   31  C   UNL     1      -8.419  17.210  67.720  1.00  0.00    -0.207 A  
HETATM   32  C   UNL     1      -9.296  19.408  68.298  1.00  0.00    -0.414 A  
HETATM   33  C   UNL     1      -8.341  18.404  68.461  1.00  0.00    -0.344 A  
ENDBRANCH  26  28
ENDBRANCH  25  26
ENDBRANCH   3  25
TORSDOF 9
ENDMDL
MODEL      257
REMARK 921   NORMALIZED FREE ENERGY PREDICTED BY IDOCK:   -4.60 KCAL/MOL
REMARK 922        TOTAL FREE ENERGY PREDICTED BY IDOCK:   -8.53 KCAL/MOL
REMARK 923 INTER-LIGAND FREE ENERGY PREDICTED BY IDOCK:   -6.82 KCAL/MOL
REMARK 924 INTRA-LIGAND FREE ENERGY PREDICTED BY IDOCK:   -1.70 KCAL/MOL
REMARK 927      BINDING AFFINITY PREDICTED BY RF-SCORE:    0.00 PKD
ROOT
HETATM    1  C   UNL     1     -11.081   7.672  67.699  1.00  0.00     0.115 C  
HETATM    2  C   UNL     1      -9.906   8.279  68.484  1.00  0.00    -0.176 C  
HETATM    3  C   UNL     1      -9.826   8.054  69.830  1.00  0.00    -0.186 C  
ENDROOT
BRANCH   2   4
HETATM    4  N   UNL     1      -8.993   8.975  67.668  1.00  0.00    -0.124 N  
HETATM    5  C   UNL     1      -7.702   8.475  67.435  1.00  0.00    -0.098 C  
HETATM    6  O   UNL     1      -6.755   9.112  66.998  1.00  0.00    -0.070 OA 
BRANCH   4   7
HETATM    7  C   UNL     1      -9.139  10.434  67.477  1.00  0.00    -0.134 C  
BRANCH   7   8
HETATM    8  C   UNL     1     -10.096  10.824  66.365  1.00  0.00    -0.278 A  
HETATM    9  H2  UNL     1     -11.173  11.106  68.696  1.00  0.00     0.000 HD 
HETATM   10  C   UNL     1     -10.006  10.616  65.034  1.00  0.00    -0.305 A  
HETATM   11  N   UNL     1     -12.034  12.169  65.738  1.00  0.00    -0.550 NA 
HETATM   12  N   UNL     1     -10.701  11.274  64.036  1.00  0.00    -0.372 NA 
HETATM   13  H1  UNL     1     -12.568  12.093  68.244  1.00  0.00     0.000 HD 
HETATM   14  C   UNL     1     -12.246  13.023  63.416  1.00  0.00    -0.552 C  
HETATM   15  N   UNL     1     -11.720  11.589  67.983  1.00  0.00    -0.541 NA 
HETATM   16  C   UNL     1     -11.645  12.080  64.426  1.00  0.00    -0.336 A  
HETATM   17  C   UNL     1     -11.338  11.562  66.747  1.00  0.00    -0.238 A  
ENDBRANCH   7   8
ENDBRANCH   4   7
ENDBRANCH   2   4
BRANCH   3  18
HETATM   18  C   UNL     1     -10.714   6.912  70.495  1.00  0.00    -0.267 C  
BRANCH  18  19
HETATM   19  C   UNL     1     -11.599   7.326  71.734  1.00  0.00    -0.275 C  
BRANCH  19  20
HETATM   20  O   UNL     1     -12.950   7.836  71.424  1.00  0.00    -0.328 OA 
HETATM   21  O   UNL     1     -13.920   8.969  73.071  1.00  0.00    -0.367 OA 
HETATM   22  O   UNL     1     -14.359   9.446  70.722  1.00  0.00     0.124 OA 
HETATM   23  P   UNL     1     -13.105   9.525  71.769  1.00  0.00    -0.473 P  
HETATM   24  O   UNL     1     -13.244  11.036  72.077  1.00  0.00    -0.499 OA 
ENDBRANCH  19  20
ENDBRANCH  18  19
ENDBRANCH   3  18
BRANCH   3  25
HETATM   25  S   UNL     1      -8.735   8.943  70.993  1.00  0.00    -0.233 SA 
BRANCH  25  26
HETATM   26  C   UNL     1      -7.377   7.922  71.622  1.00  0.00    -0.070 C  
HETATM   27  O   UNL     1      -6.242   8.374  71.724  1.00  0.00    -0.045 OA 
BRANCH  26  28
HETATM   28  C   UNL     1      -7.616   6.430  71.951  1.00  0.00    -0.095 A  
HETATM   29  C   UNL     1      -8.456   4.748  73.583  1.00  0.00    -0.105 A  
HETATM   30  C   UNL     1      -8.175   6.081  73.210  1.00  0.00    -0.115 A  
HETATM   31  C   UNL     1      -7.397   5.358  71.082  1.00  0.00    -0.083 A  
HETATM   32  C   UNL     1      -8.206   3.715  72.688  1.00  0.00    -0.081 A  
HETATM   33  C   UNL     1      -7.682   4.026  71.433  1.00  0.00    -0.064 A  
ENDBRANCH  26  28
ENDBRANCH  25  26
ENDBRANCH   3  25
TORSDOF 9
ENDMDL
MODEL      258
REMARK 921   NORMALIZED FREE ENERGY PREDICTED BY IDOCK:   -4.59 KCAL/MOL
REMARK 922        TOTAL FREE ENERGY PREDICTED BY IDOCK:   -8.51 KCAL/MOL
REMARK 923 INTER-LIGAND FREE ENERGY PREDICTED BY IDOCK:   -7.40 KCAL/MOL
REMARK 924 INTRA-LIGAND FREE ENERGY PREDICTED BY IDOCK:   -1.11 KCAL/MOL
REMARK 927      BINDING AFFINITY PREDICTED BY RF-SCORE:    0.00 PKD
ROOT
HETATM    1  C   UNL     1     -11.462  15.890  64.326  1.00  0.00    -0.197 C  
HETATM    2  C   UNL     1     -11.090  15.290  65.693  1.00  0.00    -0.308 C  
HETATM    3  C   UNL     1     -10.297  16.017  66.538  1.00  0.00    -0.299 C  
ENDROOT
BRANCH   2   4
HETATM    4  N   UNL     1     -11.684  14.035  65.929  1.00  0.00    -0.352 N  
HETATM    5  C   UNL     1     -12.182  13.259  64.871  1.00  0.00    -0.420 C  
HETATM    6  O   UNL     1     -12.955  12.318  64.974  1.00  0.00    -0.582 OA 
BRANCH   4   7
HETATM    7  C   UNL     1     -12.274  13.736  67.252  1.00  0.00    -0.278 C  
BRANCH   7   8
HETATM    8  C   UNL     1     -11.581  12.615  68.003  1.00  0.00    -0.394 A  
HETATM    9  H2  UNL     1     -12.514  14.410  69.610  1.00  0.00     0.000 HD 
HETATM   10  C   UNL     1     -10.786  11.626  67.542  1.00  0.00    -0.237 A  
HETATM   11  N   UNL     1     -11.419  11.380  70.103  1.00  0.00    -0.262 NA 
HETATM   12  N   UNL     1     -10.464  10.444  68.183  1.00  0.00    -0.175 NA 
HETATM   13  H1  UNL     1     -12.410  13.509  71.128  1.00  0.00     0.000 HD 
HETATM   14  C   UNL     1     -10.776   8.981  70.079  1.00  0.00    -0.247 C  
HETATM   15  N   UNL     1     -12.271  13.559  70.118  1.00  0.00    -0.340 NA 
HETATM   16  C   UNL     1     -10.851  10.334  69.420  1.00  0.00    -0.245 A  
HETATM   17  C   UNL     1     -11.785  12.542  69.483  1.00  0.00    -0.309 A  
ENDBRANCH   7   8
ENDBRANCH   4   7
ENDBRANCH   2   4
BRANCH   3  18
HETATM   18  C   UNL     1     -10.068  17.569  66.267  1.00  0.00    -0.341 C  
BRANCH  18  19
HETATM   19  C   UNL     1      -9.271  18.375  67.365  1.00  0.00    -0.271 C  
BRANCH  19  20
HETATM   20  O   UNL     1      -8.201  19.264  66.867  1.00  0.00    -0.261 OA 
HETATM   21  O   UNL     1      -6.588  19.696  68.332  1.00  0.00    -0.252 OA 
HETATM   22  O   UNL     1      -6.186  19.627  65.930  1.00  0.00    -0.178 OA 
HETATM   23  P   UNL     1      -6.625  18.598  67.123  1.00  0.00    -0.196 P  
HETATM   24  O   UNL     1      -5.215  18.001  67.352  1.00  0.00    -0.133 OA 
ENDBRANCH  19  20
ENDBRANCH  18  19
ENDBRANCH   3  18
BRANCH   3  25
HETATM   25  S   UNL     1      -9.465  15.373  68.030  1.00  0.00    -0.202 SA 
BRANCH  25  26
HETATM   26  C   UNL     1      -7.804  14.729  67.700  1.00  0.00    -0.175 C  
HETATM   27  O   UNL     1      -7.169  15.097  66.719  1.00  0.00    -0.055 OA 
BRANCH  26  28
HETATM   28  C   UNL     1      -7.203  13.631  68.607  1.00  0.00    -0.110 A  
HETATM   29  C   UNL     1      -5.754  13.077  70.555  1.00  0.00    -0.173 A  
HETATM   30  C   UNL     1      -6.325  14.008  69.659  1.00  0.00    -0.130 A  
HETATM   31  C   UNL     1      -7.498  12.267  68.542  1.00  0.00    -0.113 A  
HETATM   32  C   UNL     1      -6.068  11.728  70.438  1.00  0.00    -0.057 A  
HETATM   33  C   UNL     1      -6.948  11.327  69.432  1.00  0.00    -0.109 A  
ENDBRANCH  26  28
ENDBRANCH  25  26
ENDBRANCH   3  25
TORSDOF 9
ENDMDL
MODEL      259
REMARK 921   NORMALIZED FREE ENERGY PREDICTED BY IDOCK:   -4.58 KCAL/MOL
REMARK 922        TOTAL FREE ENERGY PREDICTED BY IDOCK:   -8.50 KCAL/MOL
REMARK 923 INTER-LIGAND FREE ENERGY PREDICTED BY IDOCK:   -8.36 KCAL/MOL
REMARK 924 INTRA-LIGAND FREE ENERGY PREDICTED BY IDOCK:   -0.14 KCAL/MOL
REMARK 927      BINDING AFFINITY PREDICTED BY RF-SCORE:    0.00 PKD
ROOT
HETATM    1  C   UNL     1      -9.314  14.319  66.542  1.00  0.00    -0.292 C  
HETATM    2  C   UNL     1     -10.062  13.392  67.515  1.00  0.00    -0.227 C  
HETATM    3  C   UNL     1     -10.209  12.073  67.187  1.00  0.00    -0.202 C  
ENDROOT
BRANCH   2   4
HETATM    4  N   UNL     1     -10.472  14.040  68.696  1.00  0.00    -0.244 N  
HETATM    5  C   UNL     1     -11.833  14.181  69.010  1.00  0.00    -0.348 C  
HETATM    6  O   UNL     1     -12.303  14.954  69.832  1.00  0.00    -0.314 OA 
BRANCH   4   7
HETATM    7  C   UNL     1      -9.578  15.023  69.346  1.00  0.00    -0.139 C  
BRANCH   7   8
HETATM    8  C   UNL     1      -9.663  16.422  68.762  1.00  0.00    -0.250 A  
HETATM    9  H2  UNL     1      -7.383  15.997  69.900  1.00  0.00     0.000 HD 
HETATM   10  C   UNL     1     -10.733  17.101  68.295  1.00  0.00    -0.363 A  
HETATM   11  N   UNL     1      -8.422  18.323  67.867  1.00  0.00    -0.249 NA 
HETATM   12  N   UNL     1     -10.724  18.208  67.467  1.00  0.00    -0.397 NA 
HETATM   13  H1  UNL     1      -6.480  17.365  69.239  1.00  0.00     0.000 HD 
HETATM   14  C   UNL     1      -9.453  19.764  66.127  1.00  0.00    -0.464 C  
HETATM   15  N   UNL     1      -7.345  16.830  69.312  1.00  0.00    -0.213 NA 
HETATM   16  C   UNL     1      -9.561  18.739  67.227  1.00  0.00    -0.303 A  
HETATM   17  C   UNL     1      -8.396  17.207  68.656  1.00  0.00    -0.257 A  
ENDBRANCH   7   8
ENDBRANCH   4   7
ENDBRANCH   2   4
BRANCH   3  18
HETATM   18  C   UNL     1      -9.329  11.446  66.017  1.00  0.00    -0.235 C  
BRANCH  18  19
HETATM   19  C   UNL     1      -9.793  11.741  64.538  1.00  0.00    -0.202 C  
BRANCH  19  20
HETATM   20  O   UNL     1     -11.235  11.569  64.265  1.00  0.00    -0.338 OA 
HETATM   21  O   UNL     1     -12.553  13.078  65.224  1.00  0.00    -0.486 OA 
HETATM   22  O   UNL     1     -13.110  12.017  63.102  1.00  0.00    -0.624 OA 
HETATM   23  P   UNL     1     -11.971  13.028  63.698  1.00  0.00    -0.461 P  
HETATM   24  O   UNL     1     -12.630  14.334  63.191  1.00  0.00    -0.615 OA 
ENDBRANCH  19  20
ENDBRANCH  18  19
ENDBRANCH   3  18
BRANCH   3  25
HETATM   25  S   UNL     1     -11.335  10.893  68.008  1.00  0.00    -0.286 SA 
BRANCH  25  26
HETATM   26  C   UNL     1     -10.467   9.534  68.833  1.00  0.00    -0.216 C  
HETATM   27  O   UNL     1     -11.087   8.642  69.402  1.00  0.00    -0.086 OA 
BRANCH  26  28
HETATM   28  C   UNL     1      -8.923   9.533  68.911  1.00  0.00    -0.141 A  
HETATM   29  C   UNL     1      -6.871  10.511  69.927  1.00  0.00    -0.149 A  
HETATM   30  C   UNL     1      -8.274  10.461  69.771  1.00  0.00    -0.037 A  
HETATM   31  C   UNL     1      -8.073   8.638  68.255  1.00  0.00    -0.118 A  
HETATM   32  C   UNL     1      -6.068   9.608  69.240  1.00  0.00    -0.037 A  
HETATM   33  C   UNL     1      -6.675   8.667  68.408  1.00  0.00    -0.064 A  
ENDBRANCH  26  28
ENDBRANCH  25  26
ENDBRANCH   3  25
TORSDOF 9
ENDMDL
MODEL      260
REMARK 921   NORMALIZED FREE ENERGY PREDICTED BY IDOCK:   -4.58 KCAL/MOL
REMARK 922        TOTAL FREE ENERGY PREDICTED BY IDOCK:   -8.50 KCAL/MOL
REMARK 923 INTER-LIGAND FREE ENERGY PREDICTED BY IDOCK:   -6.73 KCAL/MOL
REMARK 924 INTRA-LIGAND FREE ENERGY PREDICTED BY IDOCK:   -1.77 KCAL/MOL
REMARK 927      BINDING AFFINITY PREDICTED BY RF-SCORE:    0.00 PKD
ROOT
HETATM    1  C   UNL     1      -7.262   9.146  71.101  1.00  0.00    -0.091 C  
HETATM    2  C   UNL     1      -7.964   9.356  69.749  1.00  0.00    -0.119 C  
HETATM    3  C   UNL     1      -9.329   9.302  69.699  1.00  0.00    -0.179 C  
ENDROOT
BRANCH   2   4
HETATM    4  N   UNL     1      -7.071   9.642  68.698  1.00  0.00    -0.071 N  
HETATM    5  C   UNL     1      -7.260  10.761  67.871  1.00  0.00    -0.087 C  
HETATM    6  O   UNL     1      -6.736  10.944  66.782  1.00  0.00    -0.102 OA 
BRANCH   4   7
HETATM    7  C   UNL     1      -6.261   8.558  68.102  1.00  0.00    -0.051 C  
BRANCH   7   8
HETATM    8  C   UNL     1      -7.077   7.478  67.414  1.00  0.00    -0.085 A  
HETATM    9  H2  UNL     1      -5.809   6.557  69.468  1.00  0.00     0.000 HD 
HETATM   10  C   UNL     1      -7.688   7.490  66.210  1.00  0.00    -0.089 A  
HETATM   11  N   UNL     1      -8.243   5.348  67.668  1.00  0.00    -0.100 NA 
HETATM   12  N   UNL     1      -8.692   6.646  65.774  1.00  0.00    -0.144 NA 
HETATM   13  H1  UNL     1      -6.665   5.022  69.661  1.00  0.00     0.000 HD 
HETATM   14  C   UNL     1     -10.236   4.857  66.270  1.00  0.00    -0.312 C  
HETATM   15  N   UNL     1      -6.530   5.902  69.163  1.00  0.00    -0.040 NA 
HETATM   16  C   UNL     1      -8.982   5.643  66.550  1.00  0.00    -0.126 A  
HETATM   17  C   UNL     1      -7.274   6.188  68.144  1.00  0.00    -0.084 A  
ENDBRANCH   7   8
ENDBRANCH   4   7
ENDBRANCH   2   4
BRANCH   3  18
HETATM   18  C   UNL     1     -10.173   9.378  71.047  1.00  0.00    -0.369 C  
BRANCH  18  19
HETATM   19  C   UNL     1     -11.005   8.097  71.442  1.00  0.00    -0.237 C  
BRANCH  19  20
HETATM   20  O   UNL     1     -10.262   6.820  71.452  1.00  0.00    -0.197 OA 
HETATM   21  O   UNL     1      -8.899   6.547  73.185  1.00  0.00    -0.128 OA 
HETATM   22  O   UNL     1      -9.997   4.674  72.079  1.00  0.00    -0.174 OA 
HETATM   23  P   UNL     1     -10.417   5.986  72.960  1.00  0.00    -0.254 P  
HETATM   24  O   UNL     1     -10.556   5.240  74.309  1.00  0.00    -0.281 OA 
ENDBRANCH  19  20
ENDBRANCH  18  19
ENDBRANCH   3  18
BRANCH   3  25
HETATM   25  S   UNL     1     -10.332   9.181  68.178  1.00  0.00    -0.212 SA 
BRANCH  25  26
HETATM   26  C   UNL     1     -11.283  10.683  67.827  1.00  0.00    -0.313 C  
HETATM   27  O   UNL     1     -12.079  11.131  68.645  1.00  0.00    -0.556 OA 
BRANCH  26  28
HETATM   28  C   UNL     1     -11.168  11.369  66.446  1.00  0.00    -0.250 A  
HETATM   29  C   UNL     1     -10.232  11.302  64.140  1.00  0.00    -0.391 A  
HETATM   30  C   UNL     1     -10.369  10.763  65.439  1.00  0.00    -0.315 A  
HETATM   31  C   UNL     1     -11.847  12.524  66.050  1.00  0.00    -0.478 A  
HETATM   32  C   UNL     1     -10.916  12.463  63.800  1.00  0.00    -0.501 A  
HETATM   33  C   UNL     1     -11.730  13.068  64.758  1.00  0.00    -0.389 A  
ENDBRANCH  26  28
ENDBRANCH  25  26
ENDBRANCH   3  25
TORSDOF 9
ENDMDL
MODEL      261
REMARK 921   NORMALIZED FREE ENERGY PREDICTED BY IDOCK:   -4.58 KCAL/MOL
REMARK 922        TOTAL FREE ENERGY PREDICTED BY IDOCK:   -8.49 KCAL/MOL
REMARK 923 INTER-LIGAND FREE ENERGY PREDICTED BY IDOCK:   -7.27 KCAL/MOL
REMARK 924 INTRA-LIGAND FREE ENERGY PREDICTED BY IDOCK:   -1.23 KCAL/MOL
REMARK 927      BINDING AFFINITY PREDICTED BY RF-SCORE:    0.00 PKD
ROOT
HETATM    1  C   UNL     1      -7.583  10.384  66.264  1.00  0.00    -0.127 C  
HETATM    2  C   UNL     1      -8.911   9.608  66.269  1.00  0.00    -0.151 C  
HETATM    3  C   UNL     1      -9.052   8.549  67.122  1.00  0.00    -0.140 C  
ENDROOT
BRANCH   2   4
HETATM    4  N   UNL     1      -9.872  10.147  65.392  1.00  0.00    -0.289 N  
HETATM    5  C   UNL     1      -9.520  10.565  64.099  1.00  0.00    -0.293 C  
HETATM    6  O   UNL     1     -10.184  11.294  63.376  1.00  0.00    -0.346 OA 
BRANCH   4   7
HETATM    7  C   UNL     1     -11.098  10.771  65.936  1.00  0.00     0.189 C  
BRANCH   7   8
HETATM    8  C   UNL     1     -10.915  12.206  66.395  1.00  0.00    -0.327 A  
HETATM    9  H2  UNL     1     -12.650  12.026  64.489  1.00  0.00     0.000 HD 
HETATM   10  C   UNL     1      -9.966  12.746  67.190  1.00  0.00    -0.218 A  
HETATM   11  N   UNL     1     -11.927  14.421  66.579  1.00  0.00    -0.406 NA 
HETATM   12  N   UNL     1     -10.024  13.955  67.858  1.00  0.00    -0.236 NA 
HETATM   13  H1  UNL     1     -13.393  13.624  64.634  1.00  0.00     0.000 HD 
HETATM   14  C   UNL     1     -11.304  15.910  68.466  1.00  0.00    -0.374 C  
HETATM   15  N   UNL     1     -12.709  12.935  64.949  1.00  0.00    -0.701 NA 
HETATM   16  C   UNL     1     -11.039  14.720  67.581  1.00  0.00    -0.306 A  
HETATM   17  C   UNL     1     -11.917  13.215  65.933  1.00  0.00    -0.427 A  
ENDBRANCH   7   8
ENDBRANCH   4   7
ENDBRANCH   2   4
BRANCH   3  18
HETATM   18  C   UNL     1      -8.016   8.351  68.315  1.00  0.00    -0.119 C  
BRANCH  18  19
HETATM   19  C   UNL     1      -8.575   8.526  69.781  1.00  0.00    -0.131 C  
BRANCH  19  20
HETATM   20  O   UNL     1      -9.913   9.141  69.895  1.00  0.00    -0.180 OA 
HETATM   21  O   UNL     1     -11.516   7.765  70.582  1.00  0.00    -0.279 OA 
HETATM   22  O   UNL     1     -11.548  10.152  71.067  1.00  0.00    -0.349 OA 
HETATM   23  P   UNL     1     -10.638   8.844  71.438  1.00  0.00    -0.356 P  
HETATM   24  O   UNL     1     -11.287   8.580  72.818  1.00  0.00    -0.286 OA 
ENDBRANCH  19  20
ENDBRANCH  18  19
ENDBRANCH   3  18
BRANCH   3  25
HETATM   25  S   UNL     1     -10.382   7.300  67.053  1.00  0.00    -0.312 SA 
BRANCH  25  26
HETATM   26  C   UNL     1      -9.763   5.597  67.024  1.00  0.00    -0.143 C  
HETATM   27  O   UNL     1      -9.539   4.990  68.065  1.00  0.00    -0.129 OA 
BRANCH  26  28
HETATM   28  C   UNL     1      -9.419   4.920  65.677  1.00  0.00    -0.168 A  
HETATM   29  C   UNL     1      -7.684   4.412  63.965  1.00  0.00    -0.079 A  
HETATM   30  C   UNL     1      -8.095   5.024  65.170  1.00  0.00    -0.112 A  
HETATM   31  C   UNL     1     -10.285   4.131  64.916  1.00  0.00    -0.218 A  
HETATM   32  C   UNL     1      -8.588   3.650  63.236  1.00  0.00    -0.091 A  
HETATM   33  C   UNL     1      -9.889   3.506  63.720  1.00  0.00    -0.166 A  
ENDBRANCH  26  28
ENDBRANCH  25  26
ENDBRANCH   3  25
TORSDOF 9
ENDMDL
MODEL      262
REMARK 921   NORMALIZED FREE ENERGY PREDICTED BY IDOCK:   -4.56 KCAL/MOL
REMARK 922        TOTAL FREE ENERGY PREDICTED BY IDOCK:   -8.46 KCAL/MOL
REMARK 923 INTER-LIGAND FREE ENERGY PREDICTED BY IDOCK:   -7.22 KCAL/MOL
REMARK 924 INTRA-LIGAND FREE ENERGY PREDICTED BY IDOCK:   -1.25 KCAL/MOL
REMARK 927      BINDING AFFINITY PREDICTED BY RF-SCORE:    0.00 PKD
ROOT
HETATM    1  C   UNL     1     -10.648   7.882  67.219  1.00  0.00    -0.365 C  
HETATM    2  C   UNL     1      -9.430   8.661  67.743  1.00  0.00    -0.142 C  
HETATM    3  C   UNL     1      -8.767   9.501  66.891  1.00  0.00    -0.128 C  
ENDROOT
BRANCH   2   4
HETATM    4  N   UNL     1      -9.174   8.439  69.110  1.00  0.00    -0.150 N  
HETATM    5  C   UNL     1      -9.257   9.487  70.042  1.00  0.00    -0.234 C  
HETATM    6  O   UNL     1      -8.788   9.480  71.170  1.00  0.00    -0.249 OA 
BRANCH   4   7
HETATM    7  C   UNL     1      -8.328   7.301  69.527  1.00  0.00    -0.133 C  
BRANCH   7   8
HETATM    8  C   UNL     1      -9.034   6.292  70.414  1.00  0.00    -0.154 A  
HETATM    9  H2  UNL     1      -6.478   5.916  70.386  1.00  0.00     0.000 HD 
HETATM   10  C   UNL     1     -10.350   6.008  70.524  1.00  0.00    -0.221 A  
HETATM   11  N   UNL     1      -8.841   4.792  72.330  1.00  0.00    -0.119 NA 
HETATM   12  N   UNL     1     -10.979   5.351  71.565  1.00  0.00    -0.155 NA 
HETATM   13  H1  UNL     1      -6.337   4.842  71.783  1.00  0.00     0.000 HD 
HETATM   14  C   UNL     1     -10.825   4.343  73.754  1.00  0.00    -0.362 C  
HETATM   15  N   UNL     1      -6.912   5.405  71.155  1.00  0.00    -0.058 NA 
HETATM   16  C   UNL     1     -10.205   4.825  72.468  1.00  0.00    -0.190 A  
HETATM   17  C   UNL     1      -8.192   5.468  71.334  1.00  0.00    -0.118 A  
ENDBRANCH   7   8
ENDBRANCH   4   7
ENDBRANCH   2   4
BRANCH   3  18
HETATM   18  C   UNL     1      -9.447   9.928  65.516  1.00  0.00    -0.313 C  
BRANCH  18  19
HETATM   19  C   UNL     1     -10.775  10.777  65.609  1.00  0.00    -0.072 C  
BRANCH  19  20
HETATM   20  O   UNL     1     -10.899  11.893  64.649  1.00  0.00    -0.287 OA 
HETATM   21  O   UNL     1     -12.931  12.169  63.797  1.00  0.00    -0.753 OA 
HETATM   22  O   UNL     1     -11.392  14.027  64.128  1.00  0.00    -0.300 OA 
HETATM   23  P   UNL     1     -12.214  12.947  65.041  1.00  0.00    -0.489 P  
HETATM   24  O   UNL     1     -13.390  13.891  65.391  1.00  0.00    -0.710 OA 
ENDBRANCH  19  20
ENDBRANCH  18  19
ENDBRANCH   3  18
BRANCH   3  25
HETATM   25  S   UNL     1      -7.127  10.243  67.193  1.00  0.00    -0.091 SA 
BRANCH  25  26
HETATM   26  C   UNL     1      -7.185  11.680  68.295  1.00  0.00    -0.085 C  
HETATM   27  O   UNL     1      -6.587  11.678  69.365  1.00  0.00    -0.099 OA 
BRANCH  26  28
HETATM   28  C   UNL     1      -8.070  12.896  67.939  1.00  0.00    -0.161 A  
HETATM   29  C   UNL     1     -10.323  13.953  68.034  1.00  0.00    -0.245 A  
HETATM   30  C   UNL     1      -9.447  12.875  68.292  1.00  0.00    -0.206 A  
HETATM   31  C   UNL     1      -7.628  14.083  67.348  1.00  0.00    -0.167 A  
HETATM   32  C   UNL     1      -9.836  15.106  67.430  1.00  0.00    -0.224 A  
HETATM   33  C   UNL     1      -8.483  15.170  67.094  1.00  0.00    -0.238 A  
ENDBRANCH  26  28
ENDBRANCH  25  26
ENDBRANCH   3  25
TORSDOF 9
ENDMDL
MODEL      263
REMARK 921   NORMALIZED FREE ENERGY PREDICTED BY IDOCK:   -4.55 KCAL/MOL
REMARK 922        TOTAL FREE ENERGY PREDICTED BY IDOCK:   -8.46 KCAL/MOL
REMARK 923 INTER-LIGAND FREE ENERGY PREDICTED BY IDOCK:   -6.56 KCAL/MOL
REMARK 924 INTRA-LIGAND FREE ENERGY PREDICTED BY IDOCK:   -1.90 KCAL/MOL
REMARK 927      BINDING AFFINITY PREDICTED BY RF-SCORE:    0.00 PKD
ROOT
HETATM    1  C   UNL     1      -8.914   8.691  65.586  1.00  0.00    -0.231 C  
HETATM    2  C   UNL     1      -8.783   8.115  67.006  1.00  0.00    -0.131 C  
HETATM    3  C   UNL     1      -7.934   8.723  67.888  1.00  0.00    -0.107 C  
ENDROOT
BRANCH   2   4
HETATM    4  N   UNL     1      -9.633   7.017  67.240  1.00  0.00    -0.135 N  
HETATM    5  C   UNL     1     -10.744   7.130  68.091  1.00  0.00    -0.160 C  
HETATM    6  O   UNL     1     -11.365   6.200  68.586  1.00  0.00    -0.319 OA 
BRANCH   4   7
HETATM    7  C   UNL     1      -9.126   5.639  67.058  1.00  0.00    -0.113 C  
BRANCH   7   8
HETATM    8  C   UNL     1      -9.428   5.040  65.697  1.00  0.00    -0.153 A  
HETATM    9  H2  UNL     1      -7.100   6.160  65.755  1.00  0.00     0.000 HD 
HETATM   10  C   UNL     1     -10.592   4.576  65.194  1.00  0.00    -0.100 A  
HETATM   11  N   UNL     1      -8.496   4.109  63.641  1.00  0.00    -0.096 NA 
HETATM   12  N   UNL     1     -10.757   3.735  64.109  1.00  0.00    -0.272 NA 
HETATM   13  H1  UNL     1      -6.421   5.473  64.274  1.00  0.00     0.000 HD 
HETATM   14  C   UNL     1      -9.749   2.363  62.397  1.00  0.00    -0.088 C  
HETATM   15  N   UNL     1      -7.194   5.561  64.934  1.00  0.00    -0.061 NA 
HETATM   16  C   UNL     1      -9.691   3.476  63.411  1.00  0.00    -0.132 A  
HETATM   17  C   UNL     1      -8.295   4.912  64.730  1.00  0.00    -0.136 A  
ENDBRANCH   7   8
ENDBRANCH   4   7
ENDBRANCH   2   4
BRANCH   3  18
HETATM   18  C   UNL     1      -7.378  10.181  67.573  1.00  0.00    -0.089 C  
BRANCH  18  19
HETATM   19  C   UNL     1      -8.213  11.399  68.128  1.00  0.00    -0.143 C  
BRANCH  19  20
HETATM   20  O   UNL     1      -9.216  11.972  67.206  1.00  0.00    -0.174 OA 
HETATM   21  O   UNL     1     -11.055  10.752  66.953  1.00  0.00    -0.244 OA 
HETATM   22  O   UNL     1     -11.065  13.182  66.776  1.00  0.00    -0.278 OA 
HETATM   23  P   UNL     1     -10.791  12.044  67.918  1.00  0.00    -0.245 P  
HETATM   24  O   UNL     1     -12.201  12.108  68.554  1.00  0.00    -0.293 OA 
ENDBRANCH  19  20
ENDBRANCH  18  19
ENDBRANCH   3  18
BRANCH   3  25
HETATM   25  S   UNL     1      -7.373   8.022  69.478  1.00  0.00    -0.088 SA 
BRANCH  25  26
HETATM   26  C   UNL     1      -7.930   8.974  70.915  1.00  0.00    -0.164 C  
HETATM   27  O   UNL     1      -7.150   9.681  71.543  1.00  0.00    -0.306 OA 
BRANCH  26  28
HETATM   28  C   UNL     1      -9.383   8.832  71.425  1.00  0.00    -0.328 A  
HETATM   29  C   UNL     1     -11.752   9.578  71.250  1.00  0.00    -0.444 A  
HETATM   30  C   UNL     1     -10.395   9.660  70.867  1.00  0.00    -0.334 A  
HETATM   31  C   UNL     1      -9.832   7.894  72.359  1.00  0.00    -0.287 A  
HETATM   32  C   UNL     1     -12.145   8.638  72.195  1.00  0.00    -0.451 A  
HETATM   33  C   UNL     1     -11.181   7.791  72.743  1.00  0.00    -0.456 A  
ENDBRANCH  26  28
ENDBRANCH  25  26
ENDBRANCH   3  25
TORSDOF 9
ENDMDL
MODEL      264
REMARK 921   NORMALIZED FREE ENERGY PREDICTED BY IDOCK:   -4.54 KCAL/MOL
REMARK 922        TOTAL FREE ENERGY PREDICTED BY IDOCK:   -8.43 KCAL/MOL
REMARK 923 INTER-LIGAND FREE ENERGY PREDICTED BY IDOCK:   -7.25 KCAL/MOL
REMARK 924 INTRA-LIGAND FREE ENERGY PREDICTED BY IDOCK:   -1.18 KCAL/MOL
REMARK 927      BINDING AFFINITY PREDICTED BY RF-SCORE:    0.00 PKD
ROOT
HETATM    1  C   UNL     1      -7.394  10.478  66.209  1.00  0.00    -0.133 C  
HETATM    2  C   UNL     1      -8.756   9.764  66.231  1.00  0.00    -0.139 C  
HETATM    3  C   UNL     1      -8.949   8.740  67.116  1.00  0.00    -0.131 C  
ENDROOT
BRANCH   2   4
HETATM    4  N   UNL     1      -9.689  10.319  65.334  1.00  0.00    -0.256 N  
HETATM    5  C   UNL     1      -9.283  10.825  64.088  1.00  0.00    -0.224 C  
HETATM    6  O   UNL     1      -9.934  11.571  63.372  1.00  0.00    -0.343 OA 
BRANCH   4   7
HETATM    7  C   UNL     1     -10.966  10.866  65.842  1.00  0.00     0.016 C  
BRANCH   7   8
HETATM    8  C   UNL     1     -10.859  12.269  66.411  1.00  0.00    -0.299 A  
HETATM    9  H2  UNL     1     -12.492  12.170  64.411  1.00  0.00     0.000 HD 
HETATM   10  C   UNL     1      -9.971  12.780  67.290  1.00  0.00    -0.219 A  
HETATM   11  N   UNL     1     -11.962  14.428  66.702  1.00  0.00    -0.410 NA 
HETATM   12  N   UNL     1     -10.108  13.934  68.040  1.00  0.00    -0.238 NA 
HETATM   13  H1  UNL     1     -13.300  13.726  64.632  1.00  0.00     0.000 HD 
HETATM   14  C   UNL     1     -11.489  15.794  68.721  1.00  0.00    -0.391 C  
HETATM   15  N   UNL     1     -12.607  13.040  64.931  1.00  0.00    -0.633 NA 
HETATM   16  C   UNL     1     -11.136  14.683  67.767  1.00  0.00    -0.298 A  
HETATM   17  C   UNL     1     -11.875  13.274  65.972  1.00  0.00    -0.395 A  
ENDBRANCH   7   8
ENDBRANCH   4   7
ENDBRANCH   2   4
BRANCH   3  18
HETATM   18  C   UNL     1      -7.928   8.532  68.320  1.00  0.00    -0.114 C  
BRANCH  18  19
HETATM   19  C   UNL     1      -8.501   8.706  69.780  1.00  0.00    -0.129 C  
BRANCH  19  20
HETATM   20  O   UNL     1      -9.834   9.336  69.882  1.00  0.00    -0.178 OA 
HETATM   21  O   UNL     1     -11.493   7.938  70.356  1.00  0.00    -0.246 OA 
HETATM   22  O   UNL     1     -11.511  10.271  71.058  1.00  0.00    -0.350 OA 
HETATM   23  P   UNL     1     -10.644   8.916  71.352  1.00  0.00    -0.356 P  
HETATM   24  O   UNL     1     -11.369   8.540  72.667  1.00  0.00    -0.343 OA 
ENDBRANCH  19  20
ENDBRANCH  18  19
ENDBRANCH   3  18
BRANCH   3  25
HETATM   25  S   UNL     1     -10.335   7.552  67.079  1.00  0.00    -0.328 SA 
BRANCH  25  26
HETATM   26  C   UNL     1      -9.795   5.822  67.121  1.00  0.00    -0.146 C  
HETATM   27  O   UNL     1     -10.054   5.059  66.198  1.00  0.00    -0.197 OA 
BRANCH  26  28
HETATM   28  C   UNL     1      -9.078   5.263  68.372  1.00  0.00    -0.125 A  
HETATM   29  C   UNL     1      -9.284   4.134  70.581  1.00  0.00    -0.195 A  
HETATM   30  C   UNL     1      -9.855   4.695  69.417  1.00  0.00    -0.272 A  
HETATM   31  C   UNL     1      -7.694   5.194  68.556  1.00  0.00    -0.079 A  
HETATM   32  C   UNL     1      -7.902   4.102  70.724  1.00  0.00    -0.052 A  
HETATM   33  C   UNL     1      -7.109   4.628  69.703  1.00  0.00    -0.050 A  
ENDBRANCH  26  28
ENDBRANCH  25  26
ENDBRANCH   3  25
TORSDOF 9
ENDMDL
MODEL      265
REMARK 921   NORMALIZED FREE ENERGY PREDICTED BY IDOCK:   -4.53 KCAL/MOL
REMARK 922        TOTAL FREE ENERGY PREDICTED BY IDOCK:   -8.42 KCAL/MOL
REMARK 923 INTER-LIGAND FREE ENERGY PREDICTED BY IDOCK:   -7.21 KCAL/MOL
REMARK 924 INTRA-LIGAND FREE ENERGY PREDICTED BY IDOCK:   -1.22 KCAL/MOL
REMARK 927      BINDING AFFINITY PREDICTED BY RF-SCORE:    0.00 PKD
ROOT
HETATM    1  C   UNL     1     -10.629  14.341  69.402  1.00  0.00    -0.103 C  
HETATM    2  C   UNL     1      -9.790  14.992  68.289  1.00  0.00    -0.219 C  
HETATM    3  C   UNL     1      -8.499  14.580  68.111  1.00  0.00    -0.157 C  
ENDROOT
BRANCH   2   4
HETATM    4  N   UNL     1     -10.511  15.932  67.528  1.00  0.00    -0.292 N  
HETATM    5  C   UNL     1     -10.227  17.304  67.614  1.00  0.00    -0.333 C  
HETATM    6  O   UNL     1     -10.954  18.212  67.236  1.00  0.00    -0.294 OA 
BRANCH   4   7
HETATM    7  C   UNL     1     -11.873  15.607  67.052  1.00  0.00     0.430 C  
BRANCH   7   8
HETATM    8  C   UNL     1     -11.931  14.447  66.074  1.00  0.00    -0.377 A  
HETATM    9  H2  UNL     1     -12.101  16.725  64.867  1.00  0.00     0.000 HD 
HETATM   10  C   UNL     1     -12.096  13.128  66.306  1.00  0.00    -0.397 A  
HETATM   11  N   UNL     1     -11.527  13.705  63.784  1.00  0.00    -0.177 NA 
HETATM   12  N   UNL     1     -11.799  12.085  65.449  1.00  0.00    -0.370 NA 
HETATM   13  H1  UNL     1     -11.793  16.189  63.211  1.00  0.00     0.000 HD 
HETATM   14  C   UNL     1     -10.863  11.353  63.347  1.00  0.00    -0.375 C  
HETATM   15  N   UNL     1     -11.899  15.977  64.204  1.00  0.00    -0.708 NA 
HETATM   16  C   UNL     1     -11.458  12.413  64.237  1.00  0.00    -0.363 A  
HETATM   17  C   UNL     1     -11.776  14.758  64.620  1.00  0.00    -0.422 A  
ENDBRANCH   7   8
ENDBRANCH   4   7
ENDBRANCH   2   4
BRANCH   3  18
HETATM   18  C   UNL     1      -7.998  13.230  68.792  1.00  0.00     0.034 C  
BRANCH  18  19
HETATM   19  C   UNL     1      -8.315  11.886  68.029  1.00  0.00    -0.160 C  
BRANCH  19  20
HETATM   20  O   UNL     1      -8.210  10.647  68.828  1.00  0.00    -0.125 OA 
HETATM   21  O   UNL     1     -10.072  10.059  69.887  1.00  0.00    -0.235 OA 
HETATM   22  O   UNL     1      -8.446   8.425  69.099  1.00  0.00    -0.120 OA 
HETATM   23  P   UNL     1      -9.475   9.525  68.463  1.00  0.00    -0.145 P  
HETATM   24  O   UNL     1     -10.607   8.521  68.137  1.00  0.00    -0.200 OA 
ENDBRANCH  19  20
ENDBRANCH  18  19
ENDBRANCH   3  18
BRANCH   3  25
HETATM   25  S   UNL     1      -7.241  15.436  67.102  1.00  0.00    -0.048 SA 
BRANCH  25  26
HETATM   26  C   UNL     1      -6.375  16.749  68.002  1.00  0.00    -0.143 C  
HETATM   27  O   UNL     1      -5.623  16.485  68.932  1.00  0.00    -0.126 OA 
BRANCH  26  28
HETATM   28  C   UNL     1      -6.650  18.233  67.664  1.00  0.00    -0.201 A  
HETATM   29  C   UNL     1      -6.410  20.618  68.335  1.00  0.00    -0.341 A  
HETATM   30  C   UNL     1      -6.229  19.238  68.576  1.00  0.00    -0.262 A  
HETATM   31  C   UNL     1      -7.227  18.707  66.483  1.00  0.00    -0.252 A  
HETATM   32  C   UNL     1      -7.004  21.038  67.151  1.00  0.00    -0.411 A  
HETATM   33  C   UNL     1      -7.405  20.078  66.222  1.00  0.00    -0.312 A  
ENDBRANCH  26  28
ENDBRANCH  25  26
ENDBRANCH   3  25
TORSDOF 9
ENDMDL
MODEL      266
REMARK 921   NORMALIZED FREE ENERGY PREDICTED BY IDOCK:   -4.53 KCAL/MOL
REMARK 922        TOTAL FREE ENERGY PREDICTED BY IDOCK:   -8.42 KCAL/MOL
REMARK 923 INTER-LIGAND FREE ENERGY PREDICTED BY IDOCK:   -6.84 KCAL/MOL
REMARK 924 INTRA-LIGAND FREE ENERGY PREDICTED BY IDOCK:   -1.58 KCAL/MOL
REMARK 927      BINDING AFFINITY PREDICTED BY RF-SCORE:    0.00 PKD
ROOT
HETATM    1  C   UNL     1     -10.472   8.930  66.995  1.00  0.00    -0.326 C  
HETATM    2  C   UNL     1     -10.314  10.391  66.544  1.00  0.00    -0.224 C  
HETATM    3  C   UNL     1     -11.107  11.347  67.114  1.00  0.00    -0.305 C  
ENDROOT
BRANCH   2   4
HETATM    4  N   UNL     1      -9.288  10.571  65.595  1.00  0.00    -0.188 N  
HETATM    5  C   UNL     1      -9.127   9.678  64.524  1.00  0.00    -0.236 C  
HETATM    6  O   UNL     1      -8.129   9.567  63.827  1.00  0.00    -0.133 OA 
BRANCH   4   7
HETATM    7  C   UNL     1      -8.074  11.333  65.958  1.00  0.00    -0.009 C  
BRANCH   7   8
HETATM    8  C   UNL     1      -7.343  10.796  67.175  1.00  0.00    -0.101 A  
HETATM    9  H2  UNL     1      -8.184  13.210  67.553  1.00  0.00     0.000 HD 
HETATM   10  C   UNL     1      -6.576   9.693  67.307  1.00  0.00    -0.070 A  
HETATM   11  N   UNL     1      -7.070  10.929  69.598  1.00  0.00    -0.136 NA 
HETATM   12  N   UNL     1      -6.222   9.056  68.482  1.00  0.00    -0.049 NA 
HETATM   13  H1  UNL     1      -8.001  13.299  69.309  1.00  0.00     0.000 HD 
HETATM   14  C   UNL     1      -6.433   8.901  70.882  1.00  0.00    -0.058 C  
HETATM   15  N   UNL     1      -7.916  12.777  68.437  1.00  0.00    -0.149 NA 
HETATM   16  C   UNL     1      -6.542   9.663  69.587  1.00  0.00    -0.048 A  
HETATM   17  C   UNL     1      -7.467  11.563  68.453  1.00  0.00    -0.109 A  
ENDBRANCH   7   8
ENDBRANCH   4   7
ENDBRANCH   2   4
BRANCH   3  18
HETATM   18  C   UNL     1     -11.909  11.015  68.449  1.00  0.00    -0.254 C  
BRANCH  18  19
HETATM   19  C   UNL     1     -11.054  10.643  69.722  1.00  0.00    -0.295 C  
BRANCH  19  20
HETATM   20  O   UNL     1     -11.648   9.643  70.633  1.00  0.00    -0.270 OA 
HETATM   21  O   UNL     1     -10.756   7.613  70.499  1.00  0.00    -0.226 OA 
HETATM   22  O   UNL     1     -11.700   8.491  72.567  1.00  0.00    -0.380 OA 
HETATM   23  P   UNL     1     -10.449   8.813  71.564  1.00  0.00    -0.355 P  
HETATM   24  O   UNL     1      -9.376   8.071  72.397  1.00  0.00    -0.166 OA 
ENDBRANCH  19  20
ENDBRANCH  18  19
ENDBRANCH   3  18
BRANCH   3  25
HETATM   25  S   UNL     1     -11.327  13.052  66.498  1.00  0.00    -0.336 SA 
BRANCH  25  26
HETATM   26  C   UNL     1     -11.153  14.308  67.793  1.00  0.00    -0.280 C  
HETATM   27  O   UNL     1     -11.746  14.199  68.860  1.00  0.00    -0.292 OA 
BRANCH  26  28
HETATM   28  C   UNL     1     -10.324  15.586  67.528  1.00  0.00    -0.271 A  
HETATM   29  C   UNL     1      -8.470  16.660  66.259  1.00  0.00    -0.355 A  
HETATM   30  C   UNL     1      -9.260  15.535  66.586  1.00  0.00    -0.299 A  
HETATM   31  C   UNL     1     -10.564  16.844  68.086  1.00  0.00    -0.360 A  
HETATM   32  C   UNL     1      -8.740  17.887  66.853  1.00  0.00    -0.258 A  
HETATM   33  C   UNL     1      -9.794  17.977  67.763  1.00  0.00    -0.306 A  
ENDBRANCH  26  28
ENDBRANCH  25  26
ENDBRANCH   3  25
TORSDOF 9
ENDMDL
MODEL      267
REMARK 921   NORMALIZED FREE ENERGY PREDICTED BY IDOCK:   -4.52 KCAL/MOL
REMARK 922        TOTAL FREE ENERGY PREDICTED BY IDOCK:   -8.40 KCAL/MOL
REMARK 923 INTER-LIGAND FREE ENERGY PREDICTED BY IDOCK:   -6.46 KCAL/MOL
REMARK 924 INTRA-LIGAND FREE ENERGY PREDICTED BY IDOCK:   -1.94 KCAL/MOL
REMARK 927      BINDING AFFINITY PREDICTED BY RF-SCORE:    0.00 PKD
ROOT
HETATM    1  C   UNL     1     -10.402   4.377  65.765  1.00  0.00    -0.246 C  
HETATM    2  C   UNL     1      -9.409   5.515  66.056  1.00  0.00    -0.148 C  
HETATM    3  C   UNL     1      -9.815   6.559  66.841  1.00  0.00    -0.164 C  
ENDROOT
BRANCH   2   4
HETATM    4  N   UNL     1      -8.136   5.299  65.495  1.00  0.00    -0.114 N  
HETATM    5  C   UNL     1      -7.897   5.532  64.131  1.00  0.00    -0.103 C  
HETATM    6  O   UNL     1      -6.943   5.116  63.490  1.00  0.00    -0.044 OA 
BRANCH   4   7
HETATM    7  C   UNL     1      -7.196   4.357  66.140  1.00  0.00    -0.076 C  
BRANCH   7   8
HETATM    8  C   UNL     1      -7.169   4.444  67.655  1.00  0.00    -0.068 A  
HETATM    9  H2  UNL     1      -5.548   6.139  66.571  1.00  0.00     0.000 HD 
HETATM   10  C   UNL     1      -7.684   3.605  68.578  1.00  0.00    -0.056 A  
HETATM   11  N   UNL     1      -6.727   5.857  69.597  1.00  0.00    -0.053 NA 
HETATM   12  N   UNL     1      -7.945   3.883  69.908  1.00  0.00    -0.051 NA 
HETATM   13  H1  UNL     1      -5.241   7.171  67.973  1.00  0.00     0.000 HD 
HETATM   14  C   UNL     1      -8.004   5.504  71.697  1.00  0.00    -0.117 C  
HETATM   15  N   UNL     1      -5.704   6.364  67.554  1.00  0.00    -0.012 NA 
HETATM   16  C   UNL     1      -7.517   5.029  70.353  1.00  0.00    -0.062 A  
HETATM   17  C   UNL     1      -6.490   5.626  68.270  1.00  0.00    -0.043 A  
ENDBRANCH   7   8
ENDBRANCH   4   7
ENDBRANCH   2   4
BRANCH   3  18
HETATM   18  C   UNL     1     -11.141   6.423  67.713  1.00  0.00    -0.376 C  
BRANCH  18  19
HETATM   19  C   UNL     1     -10.959   6.047  69.235  1.00  0.00    -0.366 C  
BRANCH  19  20
HETATM   20  O   UNL     1     -12.009   6.534  70.152  1.00  0.00    -0.383 OA 
HETATM   21  O   UNL     1     -11.673   6.054  72.295  1.00  0.00    -0.310 OA 
HETATM   22  O   UNL     1     -12.862   8.056  71.577  1.00  0.00    -0.319 OA 
HETATM   23  P   UNL     1     -11.353   7.432  71.478  1.00  0.00    -0.277 P  
HETATM   24  O   UNL     1     -10.766   8.235  72.664  1.00  0.00    -0.343 OA 
ENDBRANCH  19  20
ENDBRANCH  18  19
ENDBRANCH   3  18
BRANCH   3  25
HETATM   25  S   UNL     1      -8.939   8.149  67.030  1.00  0.00    -0.146 SA 
BRANCH  25  26
HETATM   26  C   UNL     1      -9.897   9.568  66.436  1.00  0.00    -0.253 C  
HETATM   27  O   UNL     1      -9.935   9.848  65.243  1.00  0.00    -0.318 OA 
BRANCH  26  28
HETATM   28  C   UNL     1     -10.607  10.501  67.444  1.00  0.00    -0.313 A  
HETATM   29  C   UNL     1     -11.714  12.693  67.855  1.00  0.00    -0.412 A  
HETATM   30  C   UNL     1     -11.032  11.787  67.012  1.00  0.00    -0.333 A  
HETATM   31  C   UNL     1     -10.947  10.174  68.759  1.00  0.00    -0.264 A  
HETATM   32  C   UNL     1     -12.016  12.325  69.161  1.00  0.00    -0.303 A  
HETATM   33  C   UNL     1     -11.636  11.059  69.608  1.00  0.00    -0.390 A  
ENDBRANCH  26  28
ENDBRANCH  25  26
ENDBRANCH   3  25
TORSDOF 9
ENDMDL
MODEL      268
REMARK 921   NORMALIZED FREE ENERGY PREDICTED BY IDOCK:   -4.51 KCAL/MOL
REMARK 922        TOTAL FREE ENERGY PREDICTED BY IDOCK:   -8.39 KCAL/MOL
REMARK 923 INTER-LIGAND FREE ENERGY PREDICTED BY IDOCK:   -7.60 KCAL/MOL
REMARK 924 INTRA-LIGAND FREE ENERGY PREDICTED BY IDOCK:   -0.78 KCAL/MOL
REMARK 927      BINDING AFFINITY PREDICTED BY RF-SCORE:    0.00 PKD
ROOT
HETATM    1  C   UNL     1     -12.078  16.452  67.480  1.00  0.00     1.264 C  
HETATM    2  C   UNL     1     -11.218  15.662  68.480  1.00  0.00    -0.342 C  
HETATM    3  C   UNL     1     -10.069  15.067  68.037  1.00  0.00    -0.223 C  
ENDROOT
BRANCH   2   4
HETATM    4  N   UNL     1     -11.719  15.699  69.796  1.00  0.00    -0.337 N  
HETATM    5  C   UNL     1     -10.871  15.941  70.888  1.00  0.00    -0.063 C  
HETATM    6  O   UNL     1     -11.130  15.715  72.061  1.00  0.00    -0.257 OA 
BRANCH   4   7
HETATM    7  C   UNL     1     -12.973  14.989  70.128  1.00  0.00    -0.084 C  
BRANCH   7   8
HETATM    8  C   UNL     1     -12.768  13.604  70.713  1.00  0.00    -0.338 A  
HETATM    9  H2  UNL     1     -13.679  15.260  72.474  1.00  0.00     0.000 HD 
HETATM   10  C   UNL     1     -12.115  12.538  70.203  1.00  0.00    -0.292 A  
HETATM   11  N   UNL     1     -13.444  12.009  72.433  1.00  0.00    -0.219 NA 
HETATM   12  N   UNL     1     -12.241  11.216  70.590  1.00  0.00    -0.370 NA 
HETATM   13  H1  UNL     1     -14.183  14.104  73.713  1.00  0.00     0.000 HD 
HETATM   14  C   UNL     1     -13.358   9.573  71.962  1.00  0.00    -0.535 C  
HETATM   15  N   UNL     1     -13.772  14.298  72.799  1.00  0.00    -0.638 NA 
HETATM   16  C   UNL     1     -12.958  10.992  71.653  1.00  0.00    -0.456 A  
HETATM   17  C   UNL     1     -13.369  13.320  72.052  1.00  0.00    -0.489 A  
ENDBRANCH   7   8
ENDBRANCH   4   7
ENDBRANCH   2   4
BRANCH   3  18
HETATM   18  C   UNL     1      -9.462  15.478  66.624  1.00  0.00    -0.281 C  
BRANCH  18  19
HETATM   19  C   UNL     1     -10.081  14.783  65.350  1.00  0.00    -0.374 C  
BRANCH  19  20
HETATM   20  O   UNL     1     -11.315  14.002  65.574  1.00  0.00    -0.305 OA 
HETATM   21  O   UNL     1     -12.763  14.040  63.890  1.00  0.00    -0.670 OA 
HETATM   22  O   UNL     1     -12.550  12.128  65.385  1.00  0.00    -0.480 OA 
HETATM   23  P   UNL     1     -11.644  12.912  64.271  1.00  0.00    -0.444 P  
HETATM   24  O   UNL     1     -11.938  11.937  63.106  1.00  0.00    -0.370 OA 
ENDBRANCH  19  20
ENDBRANCH  18  19
ENDBRANCH   3  18
BRANCH   3  25
HETATM   25  S   UNL     1      -9.098  13.819  68.949  1.00  0.00     0.253 SA 
BRANCH  25  26
HETATM   26  C   UNL     1      -8.411  12.527  67.881  1.00  0.00    -0.171 C  
HETATM   27  O   UNL     1      -7.412  12.736  67.202  1.00  0.00    -0.126 OA 
BRANCH  26  28
HETATM   28  C   UNL     1      -9.137  11.169  67.741  1.00  0.00    -0.149 A  
HETATM   29  C   UNL     1      -9.931   9.089  68.855  1.00  0.00    -0.197 A  
HETATM   30  C   UNL     1      -9.259  10.331  68.883  1.00  0.00    -0.176 A  
HETATM   31  C   UNL     1      -9.766  10.694  66.587  1.00  0.00    -0.225 A  
HETATM   32  C   UNL     1     -10.528   8.654  67.677  1.00  0.00    -0.311 A  
HETATM   33  C   UNL     1     -10.449   9.466  66.545  1.00  0.00    -0.199 A  
ENDBRANCH  26  28
ENDBRANCH  25  26
ENDBRANCH   3  25
TORSDOF 9
ENDMDL
MODEL      269
REMARK 921   NORMALIZED FREE ENERGY PREDICTED BY IDOCK:   -4.51 KCAL/MOL
REMARK 922        TOTAL FREE ENERGY PREDICTED BY IDOCK:   -8.38 KCAL/MOL
REMARK 923 INTER-LIGAND FREE ENERGY PREDICTED BY IDOCK:   -6.74 KCAL/MOL
REMARK 924 INTRA-LIGAND FREE ENERGY PREDICTED BY IDOCK:   -1.64 KCAL/MOL
REMARK 927      BINDING AFFINITY PREDICTED BY RF-SCORE:    0.00 PKD
ROOT
HETATM    1  C   UNL     1      -8.349   9.297  70.112  1.00  0.00    -0.189 C  
HETATM    2  C   UNL     1      -8.972   8.977  68.743  1.00  0.00    -0.137 C  
HETATM    3  C   UNL     1      -9.472  10.003  67.990  1.00  0.00    -0.137 C  
ENDROOT
BRANCH   2   4
HETATM    4  N   UNL     1      -8.895   7.612  68.403  1.00  0.00    -0.130 N  
HETATM    5  C   UNL     1      -7.829   7.116  67.634  1.00  0.00    -0.113 C  
HETATM    6  O   UNL     1      -7.807   6.044  67.048  1.00  0.00    -0.100 OA 
BRANCH   4   7
HETATM    7  C   UNL     1     -10.125   6.791  68.365  1.00  0.00    -0.162 C  
BRANCH   7   8
HETATM    8  C   UNL     1     -10.555   6.253  69.717  1.00  0.00    -0.323 A  
HETATM    9  H2  UNL     1      -9.496   4.411  68.248  1.00  0.00     0.000 HD 
HETATM   10  C   UNL     1     -11.332   6.819  70.666  1.00  0.00    -0.334 A  
HETATM   11  N   UNL     1     -10.197   4.550  71.429  1.00  0.00    -0.156 NA 
HETATM   12  N   UNL     1     -11.416   6.463  71.999  1.00  0.00    -0.290 NA 
HETATM   13  H1  UNL     1      -9.222   3.184  69.491  1.00  0.00     0.000 HD 
HETATM   14  C   UNL     1     -10.613   5.090  73.816  1.00  0.00    -0.330 C  
HETATM   15  N   UNL     1      -9.558   4.109  69.221  1.00  0.00    -0.189 NA 
HETATM   16  C   UNL     1     -10.789   5.378  72.348  1.00  0.00    -0.241 A  
HETATM   17  C   UNL     1     -10.063   4.898  70.113  1.00  0.00    -0.261 A  
ENDBRANCH   7   8
ENDBRANCH   4   7
ENDBRANCH   2   4
BRANCH   3  18
HETATM   18  C   UNL     1      -9.098  11.507  68.357  1.00  0.00    -0.185 C  
BRANCH  18  19
HETATM   19  C   UNL     1     -10.292  12.466  68.739  1.00  0.00    -0.121 C  
BRANCH  19  20
HETATM   20  O   UNL     1     -10.038  13.912  68.579  1.00  0.00    -0.232 OA 
HETATM   21  O   UNL     1      -8.112  14.621  69.431  1.00  0.00    -0.089 OA 
HETATM   22  O   UNL     1      -9.148  15.671  67.491  1.00  0.00    -0.189 OA 
HETATM   23  P   UNL     1      -8.484  14.230  67.889  1.00  0.00    -0.198 P  
HETATM   24  O   UNL     1      -7.093  14.515  67.270  1.00  0.00    -0.171 OA 
ENDBRANCH  19  20
ENDBRANCH  18  19
ENDBRANCH   3  18
BRANCH   3  25
HETATM   25  S   UNL     1     -10.543   9.820  66.523  1.00  0.00    -0.009 SA 
BRANCH  25  26
HETATM   26  C   UNL     1     -10.156  11.001  65.204  1.00  0.00    -0.289 C  
HETATM   27  O   UNL     1      -9.278  10.764  64.382  1.00  0.00    -0.205 OA 
BRANCH  26  28
HETATM   28  C   UNL     1     -10.870  12.372  65.157  1.00  0.00    -0.333 A  
HETATM   29  C   UNL     1     -10.846  14.724  64.341  1.00  0.00     0.005 A  
HETATM   30  C   UNL     1     -10.253  13.448  64.461  1.00  0.00    -0.321 A  
HETATM   31  C   UNL     1     -12.132  12.654  65.686  1.00  0.00    -0.502 A  
HETATM   32  C   UNL     1     -12.097  14.958  64.898  1.00  0.00    -0.275 A  
HETATM   33  C   UNL     1     -12.742  13.916  65.565  1.00  0.00    -0.536 A  
ENDBRANCH  26  28
ENDBRANCH  25  26
ENDBRANCH   3  25
TORSDOF 9
ENDMDL
MODEL      270
REMARK 921   NORMALIZED FREE ENERGY PREDICTED BY IDOCK:   -4.50 KCAL/MOL
REMARK 922        TOTAL FREE ENERGY PREDICTED BY IDOCK:   -8.38 KCAL/MOL
REMARK 923 INTER-LIGAND FREE ENERGY PREDICTED BY IDOCK:   -7.18 KCAL/MOL
REMARK 924 INTRA-LIGAND FREE ENERGY PREDICTED BY IDOCK:   -1.20 KCAL/MOL
REMARK 927      BINDING AFFINITY PREDICTED BY RF-SCORE:    0.00 PKD
ROOT
HETATM    1  C   UNL     1      -7.370  10.662  65.591  1.00  0.00    -0.087 C  
HETATM    2  C   UNL     1      -8.548  10.659  66.579  1.00  0.00    -0.142 C  
HETATM    3  C   UNL     1      -8.287  10.543  67.916  1.00  0.00    -0.115 C  
ENDROOT
BRANCH   2   4
HETATM    4  N   UNL     1      -9.798  10.838  65.954  1.00  0.00    -0.227 N  
HETATM    5  C   UNL     1      -9.976  10.543  64.593  1.00  0.00    -0.347 C  
HETATM    6  O   UNL     1     -10.903  10.922  63.893  1.00  0.00    -0.283 OA 
BRANCH   4   7
HETATM    7  C   UNL     1     -10.772  11.799  66.515  1.00  0.00    -0.265 C  
BRANCH   7   8
HETATM    8  C   UNL     1     -10.506  13.245  66.140  1.00  0.00    -0.296 A  
HETATM    9  H2  UNL     1     -12.747  12.402  65.170  1.00  0.00     0.000 HD 
HETATM   10  C   UNL     1      -9.376  13.974  66.253  1.00  0.00    -0.175 A  
HETATM   11  N   UNL     1     -11.490  15.389  65.511  1.00  0.00    -0.158 NA 
HETATM   12  N   UNL     1      -9.264  15.353  66.231  1.00  0.00    -0.299 NA 
HETATM   13  H1  UNL     1     -13.465  13.956  64.729  1.00  0.00     0.000 HD 
HETATM   14  C   UNL     1     -10.358  17.504  66.155  1.00  0.00    -0.330 C  
HETATM   15  N   UNL     1     -12.692  13.419  65.123  1.00  0.00    -0.675 NA 
HETATM   16  C   UNL     1     -10.343  16.014  65.928  1.00  0.00    -0.368 A  
HETATM   17  C   UNL     1     -11.640  14.031  65.563  1.00  0.00    -0.332 A  
ENDBRANCH   7   8
ENDBRANCH   4   7
ENDBRANCH   2   4
BRANCH   3  18
HETATM   18  C   UNL     1      -6.805  10.765  68.454  1.00  0.00    -0.068 C  
BRANCH  18  19
HETATM   19  C   UNL     1      -6.308  12.257  68.582  1.00  0.00    -0.071 C  
BRANCH  19  20
HETATM   20  O   UNL     1      -7.243  13.198  69.233  1.00  0.00     0.005 OA 
HETATM   21  O   UNL     1      -6.384  14.341  70.933  1.00  0.00    -0.158 OA 
HETATM   22  O   UNL     1      -8.142  15.244  69.508  1.00  0.00    -0.231 OA 
HETATM   23  P   UNL     1      -6.577  14.788  69.373  1.00  0.00    -0.165 P  
HETATM   24  O   UNL     1      -5.981  16.212  69.498  1.00  0.00    -0.142 OA 
ENDBRANCH  19  20
ENDBRANCH  18  19
ENDBRANCH   3  18
BRANCH   3  25
HETATM   25  S   UNL     1      -9.521  10.177  69.211  1.00  0.00    -0.223 SA 
BRANCH  25  26
HETATM   26  C   UNL     1     -10.452   8.653  68.901  1.00  0.00    -0.192 C  
HETATM   27  O   UNL     1     -10.831   8.366  67.772  1.00  0.00    -0.142 OA 
BRANCH  26  28
HETATM   28  C   UNL     1     -10.860   7.740  70.080  1.00  0.00    -0.248 A  
HETATM   29  C   UNL     1     -12.336   7.397  72.056  1.00  0.00    -0.301 A  
HETATM   30  C   UNL     1     -11.879   8.177  70.971  1.00  0.00    -0.279 A  
HETATM   31  C   UNL     1     -10.365   6.458  70.329  1.00  0.00    -0.252 A  
HETATM   32  C   UNL     1     -11.801   6.133  72.270  1.00  0.00    -0.326 A  
HETATM   33  C   UNL     1     -10.818   5.663  71.398  1.00  0.00    -0.290 A  
ENDBRANCH  26  28
ENDBRANCH  25  26
ENDBRANCH   3  25
TORSDOF 9
ENDMDL
MODEL      271
REMARK 921   NORMALIZED FREE ENERGY PREDICTED BY IDOCK:   -4.50 KCAL/MOL
REMARK 922        TOTAL FREE ENERGY PREDICTED BY IDOCK:   -8.38 KCAL/MOL
REMARK 923 INTER-LIGAND FREE ENERGY PREDICTED BY IDOCK:   -7.24 KCAL/MOL
REMARK 924 INTRA-LIGAND FREE ENERGY PREDICTED BY IDOCK:   -1.14 KCAL/MOL
REMARK 927      BINDING AFFINITY PREDICTED BY RF-SCORE:    0.00 PKD
ROOT
HETATM    1  C   UNL     1      -7.976   8.014  70.787  1.00  0.00    -0.099 C  
HETATM    2  C   UNL     1      -9.265   7.889  69.958  1.00  0.00    -0.153 C  
HETATM    3  C   UNL     1      -9.207   8.114  68.611  1.00  0.00    -0.143 C  
ENDROOT
BRANCH   2   4
HETATM    4  N   UNL     1     -10.379   7.487  70.721  1.00  0.00    -0.202 N  
HETATM    5  C   UNL     1     -11.393   6.694  70.159  1.00  0.00    -0.382 C  
HETATM    6  O   UNL     1     -12.514   6.532  70.620  1.00  0.00    -0.211 OA 
BRANCH   4   7
HETATM    7  C   UNL     1     -10.789   8.277  71.901  1.00  0.00    -0.283 C  
BRANCH   7   8
HETATM    8  C   UNL     1     -11.559   9.542  71.566  1.00  0.00    -0.465 A  
HETATM    9  H2  UNL     1     -12.992   7.883  72.933  1.00  0.00     0.000 HD 
HETATM   10  C   UNL     1     -11.259  10.534  70.701  1.00  0.00    -0.198 A  
HETATM   11  N   UNL     1     -13.377  11.038  72.210  1.00  0.00    -0.235 NA 
HETATM   12  N   UNL     1     -11.789  11.810  70.676  1.00  0.00    -0.218 NA 
HETATM   13  H1  UNL     1     -14.300   8.971  73.412  1.00  0.00     0.000 HD 
HETATM   14  C   UNL     1     -13.222  13.463  71.699  1.00  0.00    -0.449 C  
HETATM   15  N   UNL     1     -13.420   8.809  72.922  1.00  0.00    -0.243 NA 
HETATM   16  C   UNL     1     -12.786  12.037  71.481  1.00  0.00    -0.255 A  
HETATM   17  C   UNL     1     -12.848   9.779  72.285  1.00  0.00    -0.295 A  
ENDBRANCH   7   8
ENDBRANCH   4   7
ENDBRANCH   2   4
BRANCH   3  18
HETATM   18  C   UNL     1      -7.795   8.151  67.876  1.00  0.00    -0.122 C  
BRANCH  18  19
HETATM   19  C   UNL     1      -7.218   6.773  67.368  1.00  0.00    -0.090 C  
BRANCH  19  20
HETATM   20  O   UNL     1      -7.840   5.560  67.939  1.00  0.00    -0.095 OA 
HETATM   21  O   UNL     1      -9.789   4.997  67.034  1.00  0.00    -0.154 OA 
HETATM   22  O   UNL     1      -8.248   3.346  67.948  1.00  0.00    -0.078 OA 
HETATM   23  P   UNL     1      -8.293   4.422  66.717  1.00  0.00    -0.104 P  
HETATM   24  O   UNL     1      -8.698   3.403  65.624  1.00  0.00    -0.113 OA 
ENDBRANCH  19  20
ENDBRANCH  18  19
ENDBRANCH   3  18
BRANCH   3  25
HETATM   25  S   UNL     1     -10.645   8.354  67.511  1.00  0.00    -0.151 SA 
BRANCH  25  26
HETATM   26  C   UNL     1     -10.753  10.031  66.833  1.00  0.00    -0.140 C  
HETATM   27  O   UNL     1     -11.354  10.916  67.432  1.00  0.00    -0.412 OA 
BRANCH  26  28
HETATM   28  C   UNL     1     -10.165  10.343  65.438  1.00  0.00    -0.329 A  
HETATM   29  C   UNL     1      -8.646   9.641  63.595  1.00  0.00    -0.216 A  
HETATM   30  C   UNL     1      -9.212   9.451  64.875  1.00  0.00    -0.246 A  
HETATM   31  C   UNL     1     -10.538  11.409  64.615  1.00  0.00    -0.380 A  
HETATM   32  C   UNL     1      -9.039  10.726  62.821  1.00  0.00    -0.328 A  
HETATM   33  C   UNL     1      -9.993  11.606  63.333  1.00  0.00    -0.447 A  
ENDBRANCH  26  28
ENDBRANCH  25  26
ENDBRANCH   3  25
TORSDOF 9
ENDMDL
MODEL      272
REMARK 921   NORMALIZED FREE ENERGY PREDICTED BY IDOCK:   -4.50 KCAL/MOL
REMARK 922        TOTAL FREE ENERGY PREDICTED BY IDOCK:   -8.37 KCAL/MOL
REMARK 923 INTER-LIGAND FREE ENERGY PREDICTED BY IDOCK:   -8.10 KCAL/MOL
REMARK 924 INTRA-LIGAND FREE ENERGY PREDICTED BY IDOCK:   -0.27 KCAL/MOL
REMARK 927      BINDING AFFINITY PREDICTED BY RF-SCORE:    0.00 PKD
ROOT
HETATM    1  C   UNL     1      -8.151   8.654  65.562  1.00  0.00    -0.114 C  
HETATM    2  C   UNL     1      -8.671   9.262  66.875  1.00  0.00    -0.127 C  
HETATM    3  C   UNL     1      -9.061  10.572  66.887  1.00  0.00    -0.147 C  
ENDROOT
BRANCH   2   4
HETATM    4  N   UNL     1      -8.732   8.332  67.932  1.00  0.00    -0.134 N  
HETATM    5  C   UNL     1      -7.766   8.331  68.952  1.00  0.00    -0.102 C  
HETATM    6  O   UNL     1      -7.554   7.418  69.736  1.00  0.00    -0.090 OA 
BRANCH   4   7
HETATM    7  C   UNL     1      -9.441   7.048  67.745  1.00  0.00    -0.124 C  
BRANCH   7   8
HETATM    8  C   UNL     1      -8.661   6.017  66.950  1.00  0.00    -0.112 A  
HETATM    9  H2  UNL     1     -11.209   5.617  66.795  1.00  0.00     0.000 HD 
HETATM   10  C   UNL     1      -7.339   5.742  66.952  1.00  0.00    -0.079 A  
HETATM   11  N   UNL     1      -8.696   4.449  65.079  1.00  0.00    -0.127 NA 
HETATM   12  N   UNL     1      -6.627   5.056  65.986  1.00  0.00    -0.044 NA 
HETATM   13  H1  UNL     1     -11.235   4.494  65.430  1.00  0.00     0.000 HD 
HETATM   14  C   UNL     1      -6.605   3.972  63.828  1.00  0.00    -0.042 C  
HETATM   15  N   UNL     1     -10.714   5.083  66.081  1.00  0.00    -0.288 NA 
HETATM   16  C   UNL     1      -7.326   4.491  65.045  1.00  0.00    -0.072 A  
HETATM   17  C   UNL     1      -9.424   5.153  65.997  1.00  0.00    -0.160 A  
ENDBRANCH   7   8
ENDBRANCH   4   7
ENDBRANCH   2   4
BRANCH   3  18
HETATM   18  C   UNL     1      -9.305  11.336  65.511  1.00  0.00    -0.243 C  
BRANCH  18  19
HETATM   19  C   UNL     1     -10.606  10.954  64.704  1.00  0.00    -0.262 C  
BRANCH  19  20
HETATM   20  O   UNL     1     -11.181  12.022  63.860  1.00  0.00    -0.350 OA 
HETATM   21  O   UNL     1     -13.401  12.054  63.780  1.00  0.00    -0.681 OA 
HETATM   22  O   UNL     1     -12.057  14.075  63.564  1.00  0.00    -0.460 OA 
HETATM   23  P   UNL     1     -12.383  12.942  64.698  1.00  0.00    -0.410 P  
HETATM   24  O   UNL     1     -13.457  13.766  65.449  1.00  0.00    -0.620 OA 
ENDBRANCH  19  20
ENDBRANCH  18  19
ENDBRANCH   3  18
BRANCH   3  25
HETATM   25  S   UNL     1      -9.377  11.574  68.380  1.00  0.00    -0.182 SA 
BRANCH  25  26
HETATM   26  C   UNL     1     -11.129  11.643  68.837  1.00  0.00    -0.232 C  
HETATM   27  O   UNL     1     -11.893  12.426  68.285  1.00  0.00    -0.326 OA 
BRANCH  26  28
HETATM   28  C   UNL     1     -11.663  10.774  69.999  1.00  0.00    -0.417 A  
HETATM   29  C   UNL     1     -11.381   8.733  71.396  1.00  0.00    -0.364 A  
HETATM   30  C   UNL     1     -10.983   9.571  70.331  1.00  0.00    -0.333 A  
HETATM   31  C   UNL     1     -12.739  11.096  70.830  1.00  0.00    -0.438 A  
HETATM   32  C   UNL     1     -12.468   9.090  72.184  1.00  0.00    -0.450 A  
HETATM   33  C   UNL     1     -13.142  10.279  71.902  1.00  0.00    -0.568 A  
ENDBRANCH  26  28
ENDBRANCH  25  26
ENDBRANCH   3  25
TORSDOF 9
ENDMDL
MODEL      273
REMARK 921   NORMALIZED FREE ENERGY PREDICTED BY IDOCK:   -4.50 KCAL/MOL
REMARK 922        TOTAL FREE ENERGY PREDICTED BY IDOCK:   -8.37 KCAL/MOL
REMARK 923 INTER-LIGAND FREE ENERGY PREDICTED BY IDOCK:   -6.95 KCAL/MOL
REMARK 924 INTRA-LIGAND FREE ENERGY PREDICTED BY IDOCK:   -1.42 KCAL/MOL
REMARK 927      BINDING AFFINITY PREDICTED BY RF-SCORE:    0.00 PKD
ROOT
HETATM    1  C   UNL     1     -10.809   6.140  66.589  1.00  0.00    -0.279 C  
HETATM    2  C   UNL     1      -9.476   6.843  66.891  1.00  0.00    -0.158 C  
HETATM    3  C   UNL     1      -9.119   7.048  68.195  1.00  0.00    -0.128 C  
ENDROOT
BRANCH   2   4
HETATM    4  N   UNL     1      -8.735   7.152  65.733  1.00  0.00    -0.140 N  
HETATM    5  C   UNL     1      -8.212   6.136  64.916  1.00  0.00    -0.125 C  
HETATM    6  O   UNL     1      -7.335   6.274  64.076  1.00  0.00    -0.060 OA 
BRANCH   4   7
HETATM    7  C   UNL     1      -8.047   8.456  65.623  1.00  0.00    -0.125 C  
BRANCH   7   8
HETATM    8  C   UNL     1      -8.931   9.587  65.132  1.00  0.00    -0.253 A  
HETATM    9  H2  UNL     1      -7.061   9.028  63.438  1.00  0.00     0.000 HD 
HETATM   10  C   UNL     1      -9.856  10.313  65.795  1.00  0.00    -0.257 A  
HETATM   11  N   UNL     1      -9.795  10.786  63.188  1.00  0.00    -0.339 NA 
HETATM   12  N   UNL     1     -10.868  11.078  65.246  1.00  0.00    -0.162 NA 
HETATM   13  H1  UNL     1      -7.696   9.883  62.027  1.00  0.00     0.000 HD 
HETATM   14  C   UNL     1     -12.054  11.814  63.276  1.00  0.00    -0.375 C  
HETATM   15  N   UNL     1      -7.782   9.607  63.005  1.00  0.00    -0.121 NA 
HETATM   16  C   UNL     1     -10.842  11.231  63.955  1.00  0.00    -0.354 A  
HETATM   17  C   UNL     1      -8.805   9.992  63.698  1.00  0.00    -0.232 A  
ENDBRANCH   7   8
ENDBRANCH   4   7
ENDBRANCH   2   4
BRANCH   3  18
HETATM   18  C   UNL     1      -9.882   6.268  69.355  1.00  0.00    -0.180 C  
BRANCH  18  19
HETATM   19  C   UNL     1      -9.036   5.878  70.628  1.00  0.00    -0.149 C  
BRANCH  19  20
HETATM   20  O   UNL     1      -9.789   5.757  71.894  1.00  0.00    -0.161 OA 
HETATM   21  O   UNL     1     -10.800   7.618  72.561  1.00  0.00    -0.260 OA 
HETATM   22  O   UNL     1     -11.682   5.403  73.060  1.00  0.00    -0.275 OA 
HETATM   23  P   UNL     1     -11.411   6.340  71.747  1.00  0.00    -0.265 P  
HETATM   24  O   UNL     1     -12.863   6.862  71.616  1.00  0.00    -0.373 OA 
ENDBRANCH  19  20
ENDBRANCH  18  19
ENDBRANCH   3  18
BRANCH   3  25
HETATM   25  S   UNL     1      -7.777   8.145  68.769  1.00  0.00    -0.109 SA 
BRANCH  25  26
HETATM   26  C   UNL     1      -8.348   9.440  69.901  1.00  0.00    -0.167 C  
HETATM   27  O   UNL     1      -7.935   9.497  71.053  1.00  0.00    -0.321 OA 
BRANCH  26  28
HETATM   28  C   UNL     1      -9.441  10.437  69.451  1.00  0.00    -0.204 A  
HETATM   29  C   UNL     1     -11.851  11.060  69.471  1.00  0.00    -0.404 A  
HETATM   30  C   UNL     1     -10.794  10.188  69.812  1.00  0.00    -0.320 A  
HETATM   31  C   UNL     1      -9.221  11.633  68.763  1.00  0.00    -0.042 A  
HETATM   32  C   UNL     1     -11.582  12.230  68.772  1.00  0.00    -0.380 A  
HETATM   33  C   UNL     1     -10.261  12.518  68.426  1.00  0.00    -0.230 A  
ENDBRANCH  26  28
ENDBRANCH  25  26
ENDBRANCH   3  25
TORSDOF 9
ENDMDL
MODEL      274
REMARK 921   NORMALIZED FREE ENERGY PREDICTED BY IDOCK:   -4.49 KCAL/MOL
REMARK 922        TOTAL FREE ENERGY PREDICTED BY IDOCK:   -8.36 KCAL/MOL
REMARK 923 INTER-LIGAND FREE ENERGY PREDICTED BY IDOCK:   -6.59 KCAL/MOL
REMARK 924 INTRA-LIGAND FREE ENERGY PREDICTED BY IDOCK:   -1.78 KCAL/MOL
REMARK 927      BINDING AFFINITY PREDICTED BY RF-SCORE:    0.00 PKD
ROOT
HETATM    1  C   UNL     1      -9.272   4.577  71.140  1.00  0.00    -0.198 C  
HETATM    2  C   UNL     1     -10.158   5.582  70.384  1.00  0.00    -0.230 C  
HETATM    3  C   UNL     1     -10.121   5.596  69.018  1.00  0.00    -0.195 C  
ENDROOT
BRANCH   2   4
HETATM    4  N   UNL     1     -10.970   6.356  71.236  1.00  0.00    -0.259 N  
HETATM    5  C   UNL     1     -12.281   6.703  70.868  1.00  0.00    -0.265 C  
HETATM    6  O   UNL     1     -12.957   7.586  71.375  1.00  0.00    -0.351 OA 
BRANCH   4   7
HETATM    7  C   UNL     1     -10.349   7.247  72.239  1.00  0.00    -0.210 C  
BRANCH   7   8
HETATM    8  C   UNL     1      -9.464   8.329  71.647  1.00  0.00    -0.258 A  
HETATM    9  H2  UNL     1      -8.296   7.098  73.595  1.00  0.00     0.000 HD 
HETATM   10  C   UNL     1      -9.771   9.323  70.787  1.00  0.00    -0.282 A  
HETATM   11  N   UNL     1      -7.177   9.102  71.280  1.00  0.00    -0.257 NA 
HETATM   12  N   UNL     1      -8.894  10.059  70.011  1.00  0.00    -0.155 NA 
HETATM   13  H1  UNL     1      -6.638   7.646  73.319  1.00  0.00     0.000 HD 
HETATM   14  C   UNL     1      -6.631  10.427  69.252  1.00  0.00    -0.056 C  
HETATM   15  N   UNL     1      -7.623   7.643  73.055  1.00  0.00    -0.092 NA 
HETATM   16  C   UNL     1      -7.627   9.872  70.238  1.00  0.00    -0.158 A  
HETATM   17  C   UNL     1      -8.020   8.333  72.034  1.00  0.00    -0.134 A  
ENDBRANCH   7   8
ENDBRANCH   4   7
ENDBRANCH   2   4
BRANCH   3  18
HETATM   18  C   UNL     1      -9.459   4.379  68.232  1.00  0.00    -0.210 C  
BRANCH  18  19
HETATM   19  C   UNL     1      -9.725   4.304  66.679  1.00  0.00    -0.219 C  
BRANCH  19  20
HETATM   20  O   UNL     1      -8.541   4.055  65.830  1.00  0.00    -0.109 OA 
HETATM   21  O   UNL     1      -8.902   4.241  63.646  1.00  0.00    -0.118 OA 
HETATM   22  O   UNL     1      -6.746   4.749  64.661  1.00  0.00    -0.042 OA 
HETATM   23  P   UNL     1      -8.274   5.330  64.691  1.00  0.00    -0.135 P  
HETATM   24  O   UNL     1      -8.036   6.470  63.671  1.00  0.00    -0.116 OA 
ENDBRANCH  19  20
ENDBRANCH  18  19
ENDBRANCH   3  18
BRANCH   3  25
HETATM   25  S   UNL     1     -10.811   6.907  67.950  1.00  0.00    -0.193 SA 
BRANCH  25  26
HETATM   26  C   UNL     1      -9.549   8.020  67.278  1.00  0.00    -0.162 C  
HETATM   27  O   UNL     1      -8.356   7.783  67.428  1.00  0.00    -0.121 OA 
BRANCH  26  28
HETATM   28  C   UNL     1      -9.966   9.337  66.585  1.00  0.00    -0.333 A  
HETATM   29  C   UNL     1     -10.014  10.684  64.492  1.00  0.00    -0.410 A  
HETATM   30  C   UNL     1      -9.646   9.527  65.213  1.00  0.00    -0.314 A  
HETATM   31  C   UNL     1     -10.711  10.366  67.168  1.00  0.00    -0.316 A  
HETATM   32  C   UNL     1     -10.742  11.686  65.122  1.00  0.00    -0.351 A  
HETATM   33  C   UNL     1     -11.095  11.520  66.461  1.00  0.00    -0.341 A  
ENDBRANCH  26  28
ENDBRANCH  25  26
ENDBRANCH   3  25
TORSDOF 9
ENDMDL
MODEL      275
REMARK 921   NORMALIZED FREE ENERGY PREDICTED BY IDOCK:   -4.49 KCAL/MOL
REMARK 922        TOTAL FREE ENERGY PREDICTED BY IDOCK:   -8.35 KCAL/MOL
REMARK 923 INTER-LIGAND FREE ENERGY PREDICTED BY IDOCK:   -7.29 KCAL/MOL
REMARK 924 INTRA-LIGAND FREE ENERGY PREDICTED BY IDOCK:   -1.06 KCAL/MOL
REMARK 927      BINDING AFFINITY PREDICTED BY RF-SCORE:    0.00 PKD
ROOT
HETATM    1  C   UNL     1     -10.103   8.321  67.073  1.00  0.00    -0.353 C  
HETATM    2  C   UNL     1     -10.208   9.570  67.964  1.00  0.00    -0.201 C  
HETATM    3  C   UNL     1      -9.522  10.697  67.602  1.00  0.00    -0.153 C  
ENDROOT
BRANCH   2   4
HETATM    4  N   UNL     1     -11.079   9.402  69.057  1.00  0.00    -0.061 N  
HETATM    5  C   UNL     1     -11.725  10.502  69.644  1.00  0.00    -0.256 C  
HETATM    6  O   UNL     1     -12.257  10.517  70.745  1.00  0.00    -0.306 OA 
BRANCH   4   7
HETATM    7  C   UNL     1     -10.940   8.220  69.935  1.00  0.00    -0.166 C  
BRANCH   7   8
HETATM    8  C   UNL     1      -9.625   8.156  70.690  1.00  0.00    -0.179 A  
HETATM    9  H2  UNL     1     -10.777   5.846  70.578  1.00  0.00     0.000 HD 
HETATM   10  C   UNL     1      -8.844   9.155  71.154  1.00  0.00    -0.164 A  
HETATM   11  N   UNL     1      -7.750   6.753  71.379  1.00  0.00    -0.092 NA 
HETATM   12  N   UNL     1      -7.512   9.076  71.517  1.00  0.00    -0.306 NA 
HETATM   13  H1  UNL     1      -9.414   4.829  71.062  1.00  0.00     0.000 HD 
HETATM   14  C   UNL     1      -5.496   7.755  71.666  1.00  0.00    -0.035 C  
HETATM   15  N   UNL     1      -9.802   5.752  70.865  1.00  0.00    -0.173 NA 
HETATM   16  C   UNL     1      -6.993   7.884  71.550  1.00  0.00    -0.060 A  
HETATM   17  C   UNL     1      -9.056   6.804  70.979  1.00  0.00    -0.156 A  
ENDBRANCH   7   8
ENDBRANCH   4   7
ENDBRANCH   2   4
BRANCH   3  18
HETATM   18  C   UNL     1      -8.929  10.822  66.130  1.00  0.00    -0.192 C  
BRANCH  18  19
HETATM   19  C   UNL     1      -9.704  11.762  65.126  1.00  0.00    -0.203 C  
BRANCH  19  20
HETATM   20  O   UNL     1     -11.153  11.509  64.989  1.00  0.00    -0.275 OA 
HETATM   21  O   UNL     1     -12.447  12.771  66.280  1.00  0.00    -0.477 OA 
HETATM   22  O   UNL     1     -13.177  11.947  64.107  1.00  0.00    -0.645 OA 
HETATM   23  P   UNL     1     -12.046  12.964  64.708  1.00  0.00    -0.471 P  
HETATM   24  O   UNL     1     -12.845  14.265  64.457  1.00  0.00    -0.637 OA 
ENDBRANCH  19  20
ENDBRANCH  18  19
ENDBRANCH   3  18
BRANCH   3  25
HETATM   25  S   UNL     1      -9.230  12.150  68.667  1.00  0.00     0.069 SA 
BRANCH  25  26
HETATM   26  C   UNL     1      -8.050  13.330  67.960  1.00  0.00    -0.157 C  
HETATM   27  O   UNL     1      -6.873  13.027  67.803  1.00  0.00    -0.110 OA 
BRANCH  26  28
HETATM   28  C   UNL     1      -8.499  14.772  67.630  1.00  0.00    -0.185 A  
HETATM   29  C   UNL     1      -9.748  16.284  66.096  1.00  0.00    -0.357 A  
HETATM   30  C   UNL     1      -9.270  15.005  66.459  1.00  0.00    -0.320 A  
HETATM   31  C   UNL     1      -8.275  15.898  68.427  1.00  0.00    -0.161 A  
HETATM   32  C   UNL     1      -9.486  17.375  66.915  1.00  0.00    -0.275 A  
HETATM   33  C   UNL     1      -8.753  17.177  68.086  1.00  0.00    -0.232 A  
ENDBRANCH  26  28
ENDBRANCH  25  26
ENDBRANCH   3  25
TORSDOF 9
ENDMDL
MODEL      276
REMARK 921   NORMALIZED FREE ENERGY PREDICTED BY IDOCK:   -4.47 KCAL/MOL
REMARK 922        TOTAL FREE ENERGY PREDICTED BY IDOCK:   -8.32 KCAL/MOL
REMARK 923 INTER-LIGAND FREE ENERGY PREDICTED BY IDOCK:   -7.38 KCAL/MOL
REMARK 924 INTRA-LIGAND FREE ENERGY PREDICTED BY IDOCK:   -0.95 KCAL/MOL
REMARK 927      BINDING AFFINITY PREDICTED BY RF-SCORE:    0.00 PKD
ROOT
HETATM    1  C   UNL     1      -7.453   7.924  69.730  1.00  0.00    -0.088 C  
HETATM    2  C   UNL     1      -8.669   8.346  68.889  1.00  0.00    -0.136 C  
HETATM    3  C   UNL     1      -8.544   8.398  67.528  1.00  0.00    -0.129 C  
ENDROOT
BRANCH   2   4
HETATM    4  N   UNL     1      -9.823   8.584  69.661  1.00  0.00    -0.180 N  
HETATM    5  C   UNL     1      -9.807   9.503  70.722  1.00  0.00    -0.239 C  
HETATM    6  O   UNL     1     -10.635   9.577  71.619  1.00  0.00    -0.291 OA 
BRANCH   4   7
HETATM    7  C   UNL     1     -10.879   7.552  69.747  1.00  0.00    -0.225 C  
BRANCH   7   8
HETATM    8  C   UNL     1     -10.772   6.653  70.966  1.00  0.00    -0.278 A  
HETATM    9  H2  UNL     1     -12.946   8.050  70.994  1.00  0.00     0.000 HD 
HETATM   10  C   UNL     1      -9.718   5.952  71.434  1.00  0.00    -0.166 A  
HETATM   11  N   UNL     1     -11.986   5.449  72.708  1.00  0.00    -0.138 NA 
HETATM   12  N   UNL     1      -9.747   4.892  72.322  1.00  0.00    -0.155 NA 
HETATM   13  H1  UNL     1     -13.830   7.167  72.244  1.00  0.00     0.000 HD 
HETATM   14  C   UNL     1     -11.054   3.340  73.630  1.00  0.00    -0.316 C  
HETATM   15  N   UNL     1     -12.995   7.289  71.671  1.00  0.00    -0.371 NA 
HETATM   16  C   UNL     1     -10.895   4.634  72.876  1.00  0.00    -0.221 A  
HETATM   17  C   UNL     1     -11.997   6.476  71.805  1.00  0.00    -0.344 A  
ENDBRANCH   7   8
ENDBRANCH   4   7
ENDBRANCH   2   4
BRANCH   3  18
HETATM   18  C   UNL     1      -7.298   7.702  66.822  1.00  0.00    -0.089 C  
BRANCH  18  19
HETATM   19  C   UNL     1      -7.582   6.371  66.022  1.00  0.00    -0.087 C  
BRANCH  19  20
HETATM   20  O   UNL     1      -8.335   5.327  66.748  1.00  0.00    -0.108 OA 
HETATM   21  O   UNL     1     -10.413   5.008  66.032  1.00  0.00    -0.260 OA 
HETATM   22  O   UNL     1      -9.075   3.216  66.999  1.00  0.00    -0.151 OA 
HETATM   23  P   UNL     1      -9.054   4.176  65.675  1.00  0.00    -0.158 P  
HETATM   24  O   UNL     1      -9.696   3.145  64.715  1.00  0.00    -0.156 OA 
ENDBRANCH  19  20
ENDBRANCH  18  19
ENDBRANCH   3  18
BRANCH   3  25
HETATM   25  S   UNL     1      -9.726   9.187  66.382  1.00  0.00    -0.281 SA 
BRANCH  25  26
HETATM   26  C   UNL     1      -9.596  10.994  66.354  1.00  0.00    -0.198 C  
HETATM   27  O   UNL     1      -8.771  11.577  67.048  1.00  0.00    -0.157 OA 
BRANCH  26  28
HETATM   28  C   UNL     1     -10.592  11.831  65.518  1.00  0.00    -0.323 A  
HETATM   29  C   UNL     1     -12.035  13.855  65.381  1.00  0.00    -0.393 A  
HETATM   30  C   UNL     1     -11.142  13.014  66.082  1.00  0.00    -0.311 A  
HETATM   31  C   UNL     1     -10.966  11.573  64.197  1.00  0.00    -0.434 A  
HETATM   32  C   UNL     1     -12.388  13.547  64.073  1.00  0.00    -0.391 A  
HETATM   33  C   UNL     1     -11.845  12.406  63.481  1.00  0.00    -0.605 A  
ENDBRANCH  26  28
ENDBRANCH  25  26
ENDBRANCH   3  25
TORSDOF 9
ENDMDL
MODEL      277
REMARK 921   NORMALIZED FREE ENERGY PREDICTED BY IDOCK:   -4.46 KCAL/MOL
REMARK 922        TOTAL FREE ENERGY PREDICTED BY IDOCK:   -8.32 KCAL/MOL
REMARK 923 INTER-LIGAND FREE ENERGY PREDICTED BY IDOCK:   -6.55 KCAL/MOL
REMARK 924 INTRA-LIGAND FREE ENERGY PREDICTED BY IDOCK:   -1.77 KCAL/MOL
REMARK 927      BINDING AFFINITY PREDICTED BY RF-SCORE:    0.00 PKD
ROOT
HETATM    1  C   UNL     1     -10.199   4.580  65.875  1.00  0.00    -0.289 C  
HETATM    2  C   UNL     1      -9.306   5.812  66.098  1.00  0.00    -0.144 C  
HETATM    3  C   UNL     1      -9.817   6.882  66.778  1.00  0.00    -0.181 C  
ENDROOT
BRANCH   2   4
HETATM    4  N   UNL     1      -8.000   5.650  65.595  1.00  0.00    -0.106 N  
HETATM    5  C   UNL     1      -7.744   5.696  64.216  1.00  0.00    -0.098 C  
HETATM    6  O   UNL     1      -6.733   5.291  63.661  1.00  0.00    -0.039 OA 
BRANCH   4   7
HETATM    7  C   UNL     1      -6.989   4.923  66.392  1.00  0.00    -0.067 C  
BRANCH   7   8
HETATM    8  C   UNL     1      -6.856   5.410  67.824  1.00  0.00    -0.060 A  
HETATM    9  H2  UNL     1      -5.191   6.604  66.249  1.00  0.00     0.000 HD 
HETATM   10  C   UNL     1      -7.369   4.898  68.963  1.00  0.00    -0.054 A  
HETATM   11  N   UNL     1      -6.187   7.247  69.286  1.00  0.00    -0.034 NA 
HETATM   12  N   UNL     1      -7.521   5.544  70.176  1.00  0.00    -0.068 NA 
HETATM   13  H1  UNL     1      -4.719   7.943  67.303  1.00  0.00     0.000 HD 
HETATM   14  C   UNL     1      -7.345   7.584  71.456  1.00  0.00    -0.075 C  
HETATM   15  N   UNL     1      -5.266   7.097  67.139  1.00  0.00    -0.013 NA 
HETATM   16  C   UNL     1      -6.983   6.725  70.272  1.00  0.00    -0.066 A  
HETATM   17  C   UNL     1      -6.055   6.649  68.063  1.00  0.00    -0.028 A  
ENDBRANCH   7   8
ENDBRANCH   4   7
ENDBRANCH   2   4
BRANCH   3  18
HETATM   18  C   UNL     1     -11.160   6.717  67.618  1.00  0.00    -0.357 C  
BRANCH  18  19
HETATM   19  C   UNL     1     -11.010   6.251  69.118  1.00  0.00    -0.377 C  
BRANCH  19  20
HETATM   20  O   UNL     1     -11.221   7.293  70.145  1.00  0.00    -0.269 OA 
HETATM   21  O   UNL     1     -12.788   6.822  71.646  1.00  0.00    -0.358 OA 
HETATM   22  O   UNL     1     -10.847   8.197  72.173  1.00  0.00    -0.258 OA 
HETATM   23  P   UNL     1     -11.167   6.650  71.750  1.00  0.00    -0.289 P  
HETATM   24  O   UNL     1     -11.119   6.074  73.186  1.00  0.00    -0.255 OA 
ENDBRANCH  19  20
ENDBRANCH  18  19
ENDBRANCH   3  18
BRANCH   3  25
HETATM   25  S   UNL     1      -9.070   8.546  66.856  1.00  0.00    -0.154 SA 
BRANCH  25  26
HETATM   26  C   UNL     1     -10.288   9.866  67.098  1.00  0.00    -0.243 C  
HETATM   27  O   UNL     1     -10.897   9.975  68.156  1.00  0.00    -0.241 OA 
BRANCH  26  28
HETATM   28  C   UNL     1     -10.642  10.818  65.932  1.00  0.00    -0.216 A  
HETATM   29  C   UNL     1     -10.411  11.348  63.511  1.00  0.00    -0.477 A  
HETATM   30  C   UNL     1     -10.116  10.551  64.639  1.00  0.00    -0.408 A  
HETATM   31  C   UNL     1     -11.511  11.910  66.006  1.00  0.00    -0.344 A  
HETATM   32  C   UNL     1     -11.270  12.433  63.640  1.00  0.00    -0.544 A  
HETATM   33  C   UNL     1     -11.825  12.707  64.890  1.00  0.00    -0.436 A  
ENDBRANCH  26  28
ENDBRANCH  25  26
ENDBRANCH   3  25
TORSDOF 9
ENDMDL
MODEL      278
REMARK 921   NORMALIZED FREE ENERGY PREDICTED BY IDOCK:   -4.44 KCAL/MOL
REMARK 922        TOTAL FREE ENERGY PREDICTED BY IDOCK:   -8.28 KCAL/MOL
REMARK 923 INTER-LIGAND FREE ENERGY PREDICTED BY IDOCK:   -6.61 KCAL/MOL
REMARK 924 INTRA-LIGAND FREE ENERGY PREDICTED BY IDOCK:   -1.68 KCAL/MOL
REMARK 927      BINDING AFFINITY PREDICTED BY RF-SCORE:    0.00 PKD
ROOT
HETATM    1  C   UNL     1      -7.098   7.119  68.169  1.00  0.00    -0.085 C  
HETATM    2  C   UNL     1      -8.277   8.093  68.012  1.00  0.00    -0.129 C  
HETATM    3  C   UNL     1      -9.298   7.763  67.164  1.00  0.00    -0.150 C  
ENDROOT
BRANCH   2   4
HETATM    4  N   UNL     1      -8.175   9.227  68.841  1.00  0.00    -0.110 N  
HETATM    5  C   UNL     1      -7.237  10.238  68.573  1.00  0.00    -0.080 C  
HETATM    6  O   UNL     1      -6.866  11.098  69.359  1.00  0.00    -0.102 OA 
BRANCH   4   7
HETATM    7  C   UNL     1      -8.631   9.158  70.246  1.00  0.00    -0.198 C  
BRANCH   7   8
HETATM    8  C   UNL     1     -10.065   9.608  70.458  1.00  0.00    -0.338 A  
HETATM    9  H2  UNL     1      -9.678   7.206  71.326  1.00  0.00     0.000 HD 
HETATM   10  C   UNL     1     -10.718  10.678  69.957  1.00  0.00    -0.155 A  
HETATM   11  N   UNL     1     -12.099   9.341  71.781  1.00  0.00    -0.369 NA 
HETATM   12  N   UNL     1     -11.888  11.242  70.435  1.00  0.00    -0.348 NA 
HETATM   13  H1  UNL     1     -11.143   7.019  72.297  1.00  0.00     0.000 HD 
HETATM   14  C   UNL     1     -13.615  11.278  72.122  1.00  0.00    -0.077 C  
HETATM   15  N   UNL     1     -10.556   7.584  71.683  1.00  0.00    -0.205 NA 
HETATM   16  C   UNL     1     -12.501  10.588  71.378  1.00  0.00    -0.411 A  
HETATM   17  C   UNL     1     -10.926   8.780  71.357  1.00  0.00    -0.289 A  
ENDBRANCH   7   8
ENDBRANCH   4   7
ENDBRANCH   2   4
BRANCH   3  18
HETATM   18  C   UNL     1      -9.433   6.266  66.636  1.00  0.00    -0.178 C  
BRANCH  18  19
HETATM   19  C   UNL     1     -10.315   5.282  67.499  1.00  0.00    -0.162 C  
BRANCH  19  20
HETATM   20  O   UNL     1      -9.674   4.009  67.887  1.00  0.00    -0.159 OA 
HETATM   21  O   UNL     1      -8.202   4.171  69.543  1.00  0.00    -0.059 OA 
HETATM   22  O   UNL     1      -9.525   2.161  69.165  1.00  0.00    -0.131 OA 
HETATM   23  P   UNL     1      -9.771   3.721  69.590  1.00  0.00     0.169 P  
HETATM   24  O   UNL     1      -9.859   3.463  71.114  1.00  0.00    -0.169 OA 
ENDBRANCH  19  20
ENDBRANCH  18  19
ENDBRANCH   3  18
BRANCH   3  25
HETATM   25  S   UNL     1     -10.599   8.899  66.574  1.00  0.00     0.229 SA 
BRANCH  25  26
HETATM   26  C   UNL     1      -9.947  10.302  65.629  1.00  0.00    -0.280 C  
HETATM   27  O   UNL     1      -8.757  10.374  65.348  1.00  0.00    -0.166 OA 
BRANCH  26  28
HETATM   28  C   UNL     1     -10.876  11.477  65.246  1.00  0.00    -0.319 A  
HETATM   29  C   UNL     1     -12.158  13.473  66.002  1.00  0.00    -0.489 A  
HETATM   30  C   UNL     1     -11.333  12.357  66.265  1.00  0.00    -0.388 A  
HETATM   31  C   UNL     1     -11.270  11.816  63.949  1.00  0.00    -0.493 A  
HETATM   32  C   UNL     1     -12.534  13.759  64.696  1.00  0.00    -0.356 A  
HETATM   33  C   UNL     1     -12.081  12.931  63.669  1.00  0.00    -0.611 A  
ENDBRANCH  26  28
ENDBRANCH  25  26
ENDBRANCH   3  25
TORSDOF 9
ENDMDL
MODEL      279
REMARK 921   NORMALIZED FREE ENERGY PREDICTED BY IDOCK:   -4.44 KCAL/MOL
REMARK 922        TOTAL FREE ENERGY PREDICTED BY IDOCK:   -8.28 KCAL/MOL
REMARK 923 INTER-LIGAND FREE ENERGY PREDICTED BY IDOCK:   -6.97 KCAL/MOL
REMARK 924 INTRA-LIGAND FREE ENERGY PREDICTED BY IDOCK:   -1.31 KCAL/MOL
REMARK 927      BINDING AFFINITY PREDICTED BY RF-SCORE:    0.00 PKD
ROOT
HETATM    1  C   UNL     1     -11.437   6.188  70.365  1.00  0.00    -0.342 C  
HETATM    2  C   UNL     1     -10.814   7.431  69.707  1.00  0.00    -0.234 C  
HETATM    3  C   UNL     1     -10.587   8.539  70.475  1.00  0.00    -0.213 C  
ENDROOT
BRANCH   2   4
HETATM    4  N   UNL     1     -10.494   7.240  68.349  1.00  0.00    -0.199 N  
HETATM    5  C   UNL     1     -11.280   6.414  67.529  1.00  0.00    -0.179 C  
HETATM    6  O   UNL     1     -10.947   5.953  66.447  1.00  0.00    -0.189 OA 
BRANCH   4   7
HETATM    7  C   UNL     1      -9.104   7.437  67.884  1.00  0.00    -0.129 C  
BRANCH   7   8
HETATM    8  C   UNL     1      -8.974   8.355  66.683  1.00  0.00    -0.181 A  
HETATM    9  H2  UNL     1      -7.209   6.469  66.640  1.00  0.00     0.000 HD 
HETATM   10  C   UNL     1      -9.541   9.558  66.448  1.00  0.00    -0.213 A  
HETATM   11  N   UNL     1      -8.231   8.571  64.367  1.00  0.00    -0.162 NA 
HETATM   12  N   UNL     1      -9.680  10.192  65.228  1.00  0.00    -0.279 NA 
HETATM   13  H1  UNL     1      -6.682   6.615  64.959  1.00  0.00     0.000 HD 
HETATM   14  C   UNL     1      -9.414  10.119  62.829  1.00  0.00    -0.287 C  
HETATM   15  N   UNL     1      -7.274   6.926  65.730  1.00  0.00    -0.072 NA 
HETATM   16  C   UNL     1      -9.077   9.639  64.217  1.00  0.00    -0.218 A  
HETATM   17  C   UNL     1      -8.107   7.900  65.553  1.00  0.00    -0.130 A  
ENDBRANCH   7   8
ENDBRANCH   4   7
ENDBRANCH   2   4
BRANCH   3  18
HETATM   18  C   UNL     1     -10.633   8.423  72.063  1.00  0.00    -0.387 C  
BRANCH  18  19
HETATM   19  C   UNL     1      -9.271   8.106  72.795  1.00  0.00    -0.271 C  
BRANCH  19  20
HETATM   20  O   UNL     1      -8.237   7.438  71.978  1.00  0.00    -0.100 OA 
HETATM   21  O   UNL     1      -6.826   6.159  73.121  1.00  0.00    -0.073 OA 
HETATM   22  O   UNL     1      -7.444   5.681  70.814  1.00  0.00    -0.084 OA 
HETATM   23  P   UNL     1      -8.162   5.736  72.282  1.00  0.00    -0.106 P  
HETATM   24  O   UNL     1      -8.095   4.214  72.555  1.00  0.00    -0.091 OA 
ENDBRANCH  19  20
ENDBRANCH  18  19
ENDBRANCH   3  18
BRANCH   3  25
HETATM   25  S   UNL     1     -10.187  10.205  69.845  1.00  0.00    -0.201 SA 
BRANCH  25  26
HETATM   26  C   UNL     1     -11.641  11.273  69.676  1.00  0.00    -0.330 C  
HETATM   27  O   UNL     1     -12.720  10.949  70.157  1.00  0.00    -0.278 OA 
BRANCH  26  28
HETATM   28  C   UNL     1     -11.557  12.570  68.837  1.00  0.00    -0.364 A  
HETATM   29  C   UNL     1     -11.132  15.023  68.801  1.00  0.00    -0.269 A  
HETATM   30  C   UNL     1     -11.258  13.797  69.490  1.00  0.00    -0.221 A  
HETATM   31  C   UNL     1     -11.682  12.652  67.448  1.00  0.00    -0.432 A  
HETATM   32  C   UNL     1     -11.280  15.054  67.419  1.00  0.00    -0.337 A  
HETATM   33  C   UNL     1     -11.548  13.863  66.744  1.00  0.00    -0.398 A  
ENDBRANCH  26  28
ENDBRANCH  25  26
ENDBRANCH   3  25
TORSDOF 9
ENDMDL
MODEL      280
REMARK 921   NORMALIZED FREE ENERGY PREDICTED BY IDOCK:   -4.43 KCAL/MOL
REMARK 922        TOTAL FREE ENERGY PREDICTED BY IDOCK:   -8.27 KCAL/MOL
REMARK 923 INTER-LIGAND FREE ENERGY PREDICTED BY IDOCK:   -7.10 KCAL/MOL
REMARK 924 INTRA-LIGAND FREE ENERGY PREDICTED BY IDOCK:   -1.17 KCAL/MOL
REMARK 927      BINDING AFFINITY PREDICTED BY RF-SCORE:    0.00 PKD
ROOT
HETATM    1  C   UNL     1      -6.327  10.839  65.424  1.00  0.00     0.015 C  
HETATM    2  C   UNL     1      -7.386  10.056  66.220  1.00  0.00    -0.106 C  
HETATM    3  C   UNL     1      -7.289  10.017  67.583  1.00  0.00    -0.089 C  
ENDROOT
BRANCH   2   4
HETATM    4  N   UNL     1      -8.393   9.501  65.407  1.00  0.00    -0.132 N  
HETATM    5  C   UNL     1      -8.140   9.164  64.068  1.00  0.00    -0.151 C  
HETATM    6  O   UNL     1      -8.985   8.956  63.210  1.00  0.00    -0.035 OA 
BRANCH   4   7
HETATM    7  C   UNL     1      -9.816   9.740  65.731  1.00  0.00    -0.290 C  
BRANCH   7   8
HETATM    8  C   UNL     1     -10.332  11.101  65.301  1.00  0.00    -0.336 A  
HETATM    9  H2  UNL     1     -11.704  10.136  67.266  1.00  0.00     0.000 HD 
HETATM   10  C   UNL     1     -10.047  11.825  64.197  1.00  0.00    -0.310 A  
HETATM   11  N   UNL     1     -11.523  13.123  65.975  1.00  0.00    -0.323 NA 
HETATM   12  N   UNL     1     -10.255  13.179  64.009  1.00  0.00    -0.327 NA 
HETATM   13  H1  UNL     1     -12.553  11.604  67.763  1.00  0.00     0.000 HD 
HETATM   14  C   UNL     1     -10.948  15.301  64.930  1.00  0.00    -0.445 C  
HETATM   15  N   UNL     1     -11.894  11.131  67.145  1.00  0.00    -0.357 NA 
HETATM   16  C   UNL     1     -10.926  13.795  64.938  1.00  0.00    -0.375 A  
HETATM   17  C   UNL     1     -11.299  11.794  66.207  1.00  0.00    -0.287 A  
ENDBRANCH   7   8
ENDBRANCH   4   7
ENDBRANCH   2   4
BRANCH   3  18
HETATM   18  C   UNL     1      -6.328  11.038  68.337  1.00  0.00    -0.052 C  
BRANCH  18  19
HETATM   19  C   UNL     1      -6.969  12.396  68.823  1.00  0.00    -0.094 C  
BRANCH  19  20
HETATM   20  O   UNL     1      -7.654  13.196  67.787  1.00  0.00    -0.124 OA 
HETATM   21  O   UNL     1      -9.589  14.083  68.420  1.00  0.00    -0.216 OA 
HETATM   22  O   UNL     1      -8.141  15.148  66.775  1.00  0.00    -0.204 OA 
HETATM   23  P   UNL     1      -8.105  14.763  68.365  1.00  0.00    -0.160 P  
HETATM   24  O   UNL     1      -8.509  16.166  68.881  1.00  0.00    -0.215 OA 
ENDBRANCH  19  20
ENDBRANCH  18  19
ENDBRANCH   3  18
BRANCH   3  25
HETATM   25  S   UNL     1      -8.214   8.888  68.681  1.00  0.00    -0.116 SA 
BRANCH  25  26
HETATM   26  C   UNL     1      -9.658   9.665  69.451  1.00  0.00    -0.191 C  
HETATM   27  O   UNL     1      -9.755  10.884  69.523  1.00  0.00    -0.077 OA 
BRANCH  26  28
HETATM   28  C   UNL     1     -10.747   8.791  70.115  1.00  0.00    -0.239 A  
HETATM   29  C   UNL     1     -11.704   6.515  70.439  1.00  0.00    -0.439 A  
HETATM   30  C   UNL     1     -10.766   7.393  69.853  1.00  0.00    -0.254 A  
HETATM   31  C   UNL     1     -11.704   9.235  71.032  1.00  0.00    -0.378 A  
HETATM   32  C   UNL     1     -12.646   7.010  71.333  1.00  0.00    -0.428 A  
HETATM   33  C   UNL     1     -12.638   8.372  71.633  1.00  0.00    -0.362 A  
ENDBRANCH  26  28
ENDBRANCH  25  26
ENDBRANCH   3  25
TORSDOF 9
ENDMDL
MODEL      281
REMARK 921   NORMALIZED FREE ENERGY PREDICTED BY IDOCK:   -4.42 KCAL/MOL
REMARK 922        TOTAL FREE ENERGY PREDICTED BY IDOCK:   -8.25 KCAL/MOL
REMARK 923 INTER-LIGAND FREE ENERGY PREDICTED BY IDOCK:   -6.66 KCAL/MOL
REMARK 924 INTRA-LIGAND FREE ENERGY PREDICTED BY IDOCK:   -1.58 KCAL/MOL
REMARK 927      BINDING AFFINITY PREDICTED BY RF-SCORE:    0.00 PKD
ROOT
HETATM    1  C   UNL     1      -7.730  11.031  66.143  1.00  0.00    -0.102 C  
HETATM    2  C   UNL     1      -9.128  10.769  66.727  1.00  0.00    -0.154 C  
HETATM    3  C   UNL     1      -9.233  10.349  68.024  1.00  0.00    -0.140 C  
ENDROOT
BRANCH   2   4
HETATM    4  N   UNL     1     -10.171  11.059  65.825  1.00  0.00    -0.252 N  
HETATM    5  C   UNL     1      -9.971  10.981  64.437  1.00  0.00    -0.312 C  
HETATM    6  O   UNL     1     -10.689  11.476  63.581  1.00  0.00    -0.364 OA 
BRANCH   4   7
HETATM    7  C   UNL     1     -11.287  11.934  66.245  1.00  0.00    -0.334 C  
BRANCH   7   8
HETATM    8  C   UNL     1     -10.861  13.330  66.661  1.00  0.00    -0.289 A  
HETATM    9  H2  UNL     1     -12.498  12.283  68.363  1.00  0.00     0.000 HD 
HETATM   10  C   UNL     1     -10.210  14.281  65.957  1.00  0.00    -0.315 A  
HETATM   11  N   UNL     1     -10.536  14.881  68.518  1.00  0.00    -0.236 NA 
HETATM   12  N   UNL     1      -9.541  15.382  66.460  1.00  0.00    -0.256 NA 
HETATM   13  H1  UNL     1     -12.250  13.397  69.713  1.00  0.00     0.000 HD 
HETATM   14  C   UNL     1      -8.759  16.611  68.386  1.00  0.00    -0.225 C  
HETATM   15  N   UNL     1     -12.036  13.101  68.760  1.00  0.00    -0.315 NA 
HETATM   16  C   UNL     1      -9.672  15.604  67.736  1.00  0.00    -0.218 A  
HETATM   17  C   UNL     1     -11.176  13.764  68.056  1.00  0.00    -0.267 A  
ENDBRANCH   7   8
ENDBRANCH   4   7
ENDBRANCH   2   4
BRANCH   3  18
HETATM   18  C   UNL     1      -7.980  10.475  68.998  1.00  0.00    -0.136 C  
BRANCH  18  19
HETATM   19  C   UNL     1      -7.215   9.141  69.352  1.00  0.00    -0.067 C  
BRANCH  19  20
HETATM   20  O   UNL     1      -7.471   7.991  68.461  1.00  0.00    -0.097 OA 
HETATM   21  O   UNL     1      -5.649   6.956  67.723  1.00  0.00    -0.014 OA 
HETATM   22  O   UNL     1      -7.758   5.790  68.080  1.00  0.00    -0.094 OA 
HETATM   23  P   UNL     1      -6.629   6.568  68.971  1.00  0.00    -0.051 P  
HETATM   24  O   UNL     1      -5.876   5.295  69.428  1.00  0.00    -0.018 OA 
ENDBRANCH  19  20
ENDBRANCH  18  19
ENDBRANCH   3  18
BRANCH   3  25
HETATM   25  S   UNL     1     -10.735   9.661  68.800  1.00  0.00    -0.175 SA 
BRANCH  25  26
HETATM   26  C   UNL     1     -10.648   7.870  69.062  1.00  0.00    -0.162 C  
HETATM   27  O   UNL     1     -10.683   7.092  68.116  1.00  0.00    -0.210 OA 
BRANCH  26  28
HETATM   28  C   UNL     1     -10.621   7.296  70.498  1.00  0.00    -0.237 A  
HETATM   29  C   UNL     1     -10.798   7.743  72.940  1.00  0.00    -0.453 A  
HETATM   30  C   UNL     1     -10.779   8.182  71.598  1.00  0.00    -0.299 A  
HETATM   31  C   UNL     1     -10.524   5.944  70.834  1.00  0.00    -0.305 A  
HETATM   32  C   UNL     1     -10.682   6.388  73.224  1.00  0.00    -0.288 A  
HETATM   33  C   UNL     1     -10.552   5.488  72.165  1.00  0.00    -0.280 A  
ENDBRANCH  26  28
ENDBRANCH  25  26
ENDBRANCH   3  25
TORSDOF 9
ENDMDL
MODEL      282
REMARK 921   NORMALIZED FREE ENERGY PREDICTED BY IDOCK:   -4.41 KCAL/MOL
REMARK 922        TOTAL FREE ENERGY PREDICTED BY IDOCK:   -8.24 KCAL/MOL
REMARK 923 INTER-LIGAND FREE ENERGY PREDICTED BY IDOCK:   -6.75 KCAL/MOL
REMARK 924 INTRA-LIGAND FREE ENERGY PREDICTED BY IDOCK:   -1.49 KCAL/MOL
REMARK 927      BINDING AFFINITY PREDICTED BY RF-SCORE:    0.00 PKD
ROOT
HETATM    1  C   UNL     1      -8.893   9.562  70.234  1.00  0.00    -0.281 C  
HETATM    2  C   UNL     1      -8.324   8.207  69.779  1.00  0.00    -0.124 C  
HETATM    3  C   UNL     1      -8.122   7.992  68.444  1.00  0.00    -0.122 C  
ENDROOT
BRANCH   2   4
HETATM    4  N   UNL     1      -8.020   7.344  70.849  1.00  0.00    -0.096 N  
HETATM    5  C   UNL     1      -6.699   7.181  71.296  1.00  0.00    -0.051 C  
HETATM    6  O   UNL     1      -6.288   6.270  71.999  1.00  0.00    -0.044 OA 
BRANCH   4   7
HETATM    7  C   UNL     1      -8.930   6.224  71.175  1.00  0.00    -0.146 C  
BRANCH   7   8
HETATM    8  C   UNL     1     -10.345   6.652  71.517  1.00  0.00    -0.233 A  
HETATM    9  H2  UNL     1      -8.766   6.859  73.551  1.00  0.00     0.000 HD 
HETATM   10  C   UNL     1     -11.490   6.488  70.821  1.00  0.00    -0.360 A  
HETATM   11  N   UNL     1     -11.755   8.020  72.967  1.00  0.00    -0.239 NA 
HETATM   12  N   UNL     1     -12.676   7.180  70.988  1.00  0.00    -0.318 NA 
HETATM   13  H1  UNL     1      -9.781   7.863  74.594  1.00  0.00     0.000 HD 
HETATM   14  C   UNL     1     -13.886   8.951  72.097  1.00  0.00    -0.531 C  
HETATM   15  N   UNL     1      -9.636   7.366  73.715  1.00  0.00    -0.277 NA 
HETATM   16  C   UNL     1     -12.742   7.974  72.016  1.00  0.00    -0.302 A  
HETATM   17  C   UNL     1     -10.557   7.380  72.806  1.00  0.00    -0.297 A  
ENDBRANCH   7   8
ENDBRANCH   4   7
ENDBRANCH   2   4
BRANCH   3  18
HETATM   18  C   UNL     1      -8.137   9.223  67.434  1.00  0.00    -0.110 C  
BRANCH  18  19
HETATM   19  C   UNL     1      -9.433   9.408  66.553  1.00  0.00    -0.190 C  
BRANCH  19  20
HETATM   20  O   UNL     1     -10.354  10.483  66.975  1.00  0.00    -0.215 OA 
HETATM   21  O   UNL     1      -9.547  12.542  66.762  1.00  0.00    -0.218 OA 
HETATM   22  O   UNL     1     -11.923  12.043  66.553  1.00  0.00    -0.616 OA 
HETATM   23  P   UNL     1     -10.532  11.705  65.763  1.00  0.00    -0.281 P  
HETATM   24  O   UNL     1     -10.691  12.797  64.678  1.00  0.00    -0.302 OA 
ENDBRANCH  19  20
ENDBRANCH  18  19
ENDBRANCH   3  18
BRANCH   3  25
HETATM   25  S   UNL     1      -7.789   6.374  67.667  1.00  0.00    -0.107 SA 
BRANCH  25  26
HETATM   26  C   UNL     1      -9.296   5.485  67.194  1.00  0.00    -0.115 C  
HETATM   27  O   UNL     1     -10.147   5.198  68.028  1.00  0.00    -0.157 OA 
BRANCH  26  28
HETATM   28  C   UNL     1      -9.482   4.993  65.740  1.00  0.00    -0.167 A  
HETATM   29  C   UNL     1      -8.532   4.816  63.445  1.00  0.00    -0.120 A  
HETATM   30  C   UNL     1      -8.460   5.254  64.786  1.00  0.00    -0.149 A  
HETATM   31  C   UNL     1     -10.555   4.234  65.266  1.00  0.00    -0.165 A  
HETATM   32  C   UNL     1      -9.629   4.076  63.020  1.00  0.00    -0.143 A  
HETATM   33  C   UNL     1     -10.637   3.781  63.937  1.00  0.00    -0.273 A  
ENDBRANCH  26  28
ENDBRANCH  25  26
ENDBRANCH   3  25
TORSDOF 9
ENDMDL
MODEL      283
REMARK 921   NORMALIZED FREE ENERGY PREDICTED BY IDOCK:   -4.41 KCAL/MOL
REMARK 922        TOTAL FREE ENERGY PREDICTED BY IDOCK:   -8.24 KCAL/MOL
REMARK 923 INTER-LIGAND FREE ENERGY PREDICTED BY IDOCK:   -7.11 KCAL/MOL
REMARK 924 INTRA-LIGAND FREE ENERGY PREDICTED BY IDOCK:   -1.13 KCAL/MOL
REMARK 927      BINDING AFFINITY PREDICTED BY RF-SCORE:    0.00 PKD
ROOT
HETATM    1  C   UNL     1     -12.013  12.468  69.298  1.00  0.00    -0.304 C  
HETATM    2  C   UNL     1     -10.768  13.176  68.737  1.00  0.00    -0.225 C  
HETATM    3  C   UNL     1      -9.862  12.445  68.019  1.00  0.00    -0.205 C  
ENDROOT
BRANCH   2   4
HETATM    4  N   UNL     1     -10.748  14.559  69.002  1.00  0.00    -0.247 N  
HETATM    5  C   UNL     1     -11.042  15.055  70.283  1.00  0.00    -0.229 C  
HETATM    6  O   UNL     1     -11.333  16.211  70.554  1.00  0.00    -0.371 OA 
BRANCH   4   7
HETATM    7  C   UNL     1     -10.948  15.524  67.900  1.00  0.00    -0.316 C  
BRANCH   7   8
HETATM    8  C   UNL     1     -11.431  14.898  66.605  1.00  0.00    -0.297 A  
HETATM    9  H2  UNL     1      -9.330  16.356  66.236  1.00  0.00     0.000 HD 
HETATM   10  C   UNL     1     -12.593  14.269  66.329  1.00  0.00    -0.184 A  
HETATM   11  N   UNL     1     -10.817  14.137  64.368  1.00  0.00    -0.297 NA 
HETATM   12  N   UNL     1     -12.854  13.421  65.268  1.00  0.00    -0.686 NA 
HETATM   13  H1  UNL     1      -8.877  15.792  64.624  1.00  0.00     0.000 HD 
HETATM   14  C   UNL     1     -12.030  12.232  63.335  1.00  0.00    -0.588 C  
HETATM   15  N   UNL     1      -9.502  15.757  65.429  1.00  0.00    -0.302 NA 
HETATM   16  C   UNL     1     -11.927  13.333  64.359  1.00  0.00    -0.406 A  
HETATM   17  C   UNL     1     -10.515  14.951  65.425  1.00  0.00    -0.384 A  
ENDBRANCH   7   8
ENDBRANCH   4   7
ENDBRANCH   2   4
BRANCH   3  18
HETATM   18  C   UNL     1     -10.262  11.001  67.479  1.00  0.00    -0.219 C  
BRANCH  18  19
HETATM   19  C   UNL     1      -9.211  10.269  66.557  1.00  0.00    -0.153 C  
BRANCH  19  20
HETATM   20  O   UNL     1      -9.264  10.606  65.120  1.00  0.00    -0.186 OA 
HETATM   21  O   UNL     1      -7.351  10.333  64.026  1.00  0.00    -0.133 OA 
HETATM   22  O   UNL     1      -9.520  10.054  62.952  1.00  0.00    -0.294 OA 
HETATM   23  P   UNL     1      -8.639   9.334  64.127  1.00  0.00    -0.120 P  
HETATM   24  O   UNL     1      -8.081   8.196  63.239  1.00  0.00    -0.157 OA 
ENDBRANCH  19  20
ENDBRANCH  18  19
ENDBRANCH   3  18
BRANCH   3  25
HETATM   25  S   UNL     1      -8.180  12.990  67.565  1.00  0.00    -0.192 SA 
BRANCH  25  26
HETATM   26  C   UNL     1      -7.023  12.972  68.959  1.00  0.00    -0.056 C  
HETATM   27  O   UNL     1      -6.621  14.017  69.458  1.00  0.00    -0.120 OA 
BRANCH  26  28
HETATM   28  C   UNL     1      -6.453  11.632  69.477  1.00  0.00    -0.122 A  
HETATM   29  C   UNL     1      -6.154   9.190  69.095  1.00  0.00    -0.042 A  
HETATM   30  C   UNL     1      -6.663  10.451  68.714  1.00  0.00    -0.053 A  
HETATM   31  C   UNL     1      -5.667  11.467  70.621  1.00  0.00    -0.119 A  
HETATM   32  C   UNL     1      -5.390   9.076  70.251  1.00  0.00    -0.027 A  
HETATM   33  C   UNL     1      -5.143  10.221  71.009  1.00  0.00    -0.072 A  
ENDBRANCH  26  28
ENDBRANCH  25  26
ENDBRANCH   3  25
TORSDOF 9
ENDMDL
MODEL      284
REMARK 921   NORMALIZED FREE ENERGY PREDICTED BY IDOCK:   -4.40 KCAL/MOL
REMARK 922        TOTAL FREE ENERGY PREDICTED BY IDOCK:   -8.22 KCAL/MOL
REMARK 923 INTER-LIGAND FREE ENERGY PREDICTED BY IDOCK:   -6.10 KCAL/MOL
REMARK 924 INTRA-LIGAND FREE ENERGY PREDICTED BY IDOCK:   -2.13 KCAL/MOL
REMARK 927      BINDING AFFINITY PREDICTED BY RF-SCORE:    0.00 PKD
ROOT
HETATM    1  C   UNL     1      -8.930   4.035  69.007  1.00  0.00    -0.169 C  
HETATM    2  C   UNL     1      -8.629   5.415  69.615  1.00  0.00    -0.103 C  
HETATM    3  C   UNL     1      -8.475   6.485  68.777  1.00  0.00    -0.122 C  
ENDROOT
BRANCH   2   4
HETATM    4  N   UNL     1      -8.602   5.409  71.023  1.00  0.00    -0.123 N  
HETATM    5  C   UNL     1      -7.388   5.329  71.724  1.00  0.00    -0.089 C  
HETATM    6  O   UNL     1      -7.259   5.030  72.902  1.00  0.00    -0.081 OA 
BRANCH   4   7
HETATM    7  C   UNL     1      -9.789   4.958  71.781  1.00  0.00    -0.180 C  
BRANCH   7   8
HETATM    8  C   UNL     1     -10.854   6.024  71.960  1.00  0.00    -0.300 A  
HETATM    9  H2  UNL     1      -9.597   5.549  74.166  1.00  0.00     0.000 HD 
HETATM   10  C   UNL     1     -11.856   6.394  71.134  1.00  0.00    -0.263 A  
HETATM   11  N   UNL     1     -11.583   7.965  73.250  1.00  0.00    -0.108 NA 
HETATM   12  N   UNL     1     -12.576   7.574  71.168  1.00  0.00    -0.295 NA 
HETATM   13  H1  UNL     1     -10.112   6.962  75.094  1.00  0.00     0.000 HD 
HETATM   14  C   UNL     1     -12.901   9.757  72.147  1.00  0.00    -0.448 C  
HETATM   15  N   UNL     1     -10.130   6.416  74.232  1.00  0.00    -0.324 NA 
HETATM   16  C   UNL     1     -12.363   8.351  72.190  1.00  0.00    -0.370 A  
HETATM   17  C   UNL     1     -10.829   6.825  73.223  1.00  0.00    -0.272 A  
ENDBRANCH   7   8
ENDBRANCH   4   7
ENDBRANCH   2   4
BRANCH   3  18
HETATM   18  C   UNL     1      -8.945   6.375  67.260  1.00  0.00    -0.107 C  
BRANCH  18  19
HETATM   19  C   UNL     1      -7.823   6.474  66.155  1.00  0.00    -0.106 C  
BRANCH  19  20
HETATM   20  O   UNL     1      -8.117   5.808  64.870  1.00  0.00    -0.119 OA 
HETATM   21  O   UNL     1      -7.421   3.703  64.728  1.00  0.00    -0.070 OA 
HETATM   22  O   UNL     1      -9.392   4.508  63.545  1.00  0.00    -0.132 OA 
HETATM   23  P   UNL     1      -8.904   4.283  65.090  1.00  0.00    -0.148 P  
HETATM   24  O   UNL     1      -9.609   2.919  65.287  1.00  0.00    -0.104 OA 
ENDBRANCH  19  20
ENDBRANCH  18  19
ENDBRANCH   3  18
BRANCH   3  25
HETATM   25  S   UNL     1      -7.786   8.110  69.244  1.00  0.00    -0.111 SA 
BRANCH  25  26
HETATM   26  C   UNL     1      -9.029   9.247  69.913  1.00  0.00    -0.183 C  
HETATM   27  O   UNL     1      -9.224   9.328  71.120  1.00  0.00    -0.238 OA 
BRANCH  26  28
HETATM   28  C   UNL     1      -9.927  10.064  68.956  1.00  0.00    -0.203 A  
HETATM   29  C   UNL     1     -10.330  10.880  66.639  1.00  0.00    -0.289 A  
HETATM   30  C   UNL     1      -9.554  10.180  67.589  1.00  0.00    -0.170 A  
HETATM   31  C   UNL     1     -11.145  10.662  69.292  1.00  0.00    -0.306 A  
HETATM   32  C   UNL     1     -11.527  11.471  67.026  1.00  0.00    -0.290 A  
HETATM   33  C   UNL     1     -11.935  11.353  68.355  1.00  0.00    -0.270 A  
ENDBRANCH  26  28
ENDBRANCH  25  26
ENDBRANCH   3  25
TORSDOF 9
ENDMDL
MODEL      285
REMARK 921   NORMALIZED FREE ENERGY PREDICTED BY IDOCK:   -4.39 KCAL/MOL
REMARK 922        TOTAL FREE ENERGY PREDICTED BY IDOCK:   -8.21 KCAL/MOL
REMARK 923 INTER-LIGAND FREE ENERGY PREDICTED BY IDOCK:   -9.22 KCAL/MOL
REMARK 924 INTRA-LIGAND FREE ENERGY PREDICTED BY IDOCK:    1.01 KCAL/MOL
REMARK 927      BINDING AFFINITY PREDICTED BY RF-SCORE:    0.00 PKD
ROOT
HETATM    1  C   UNL     1      -9.494  14.425  66.998  1.00  0.00    -0.255 C  
HETATM    2  C   UNL     1     -10.405  13.569  67.894  1.00  0.00    -0.249 C  
HETATM    3  C   UNL     1     -10.552  12.240  67.607  1.00  0.00    -0.215 C  
ENDROOT
BRANCH   2   4
HETATM    4  N   UNL     1     -10.954  14.286  68.975  1.00  0.00    -0.255 N  
HETATM    5  C   UNL     1     -12.267  14.783  68.923  1.00  0.00    -0.121 C  
HETATM    6  O   UNL     1     -12.737  15.642  69.653  1.00  0.00    -0.103 OA 
BRANCH   4   7
HETATM    7  C   UNL     1     -10.062  14.984  69.926  1.00  0.00    -0.044 C  
BRANCH   7   8
HETATM    8  C   UNL     1      -8.952  15.782  69.267  1.00  0.00    -0.266 A  
HETATM    9  H2  UNL     1     -11.273  16.832  68.832  1.00  0.00     0.000 HD 
HETATM   10  C   UNL     1      -7.656  15.460  69.068  1.00  0.00    -0.177 A  
HETATM   11  N   UNL     1      -8.242  17.967  68.441  1.00  0.00    -0.292 NA 
HETATM   12  N   UNL     1      -6.614  16.325  68.789  1.00  0.00    -0.129 NA 
HETATM   13  H1  UNL     1     -10.758  18.419  68.249  1.00  0.00     0.000 HD 
HETATM   14  C   UNL     1      -5.842  18.597  68.517  1.00  0.00    -0.206 C  
HETATM   15  N   UNL     1     -10.528  17.489  68.600  1.00  0.00    -0.358 NA 
HETATM   16  C   UNL     1      -6.937  17.563  68.553  1.00  0.00    -0.214 A  
HETATM   17  C   UNL     1      -9.290  17.145  68.752  1.00  0.00    -0.252 A  
ENDBRANCH   7   8
ENDBRANCH   4   7
ENDBRANCH   2   4
BRANCH   3  18
HETATM   18  C   UNL     1      -9.538  11.532  66.605  1.00  0.00    -0.215 C  
BRANCH  18  19
HETATM   19  C   UNL     1      -9.837  11.681  65.063  1.00  0.00    -0.248 C  
BRANCH  19  20
HETATM   20  O   UNL     1     -11.242  11.479  64.653  1.00  0.00    -0.287 OA 
HETATM   21  O   UNL     1     -12.662  13.018  65.394  1.00  0.00    -0.521 OA 
HETATM   22  O   UNL     1     -12.991  11.847  63.283  1.00  0.00    -0.707 OA 
HETATM   23  P   UNL     1     -11.926  12.899  63.940  1.00  0.00    -0.527 P  
HETATM   24  O   UNL     1     -12.538  14.170  63.302  1.00  0.00    -0.766 OA 
ENDBRANCH  19  20
ENDBRANCH  18  19
ENDBRANCH   3  18
BRANCH   3  25
HETATM   25  S   UNL     1     -11.824  11.136  68.310  1.00  0.00    -0.083 SA 
BRANCH  25  26
HETATM   26  C   UNL     1     -11.826  11.111  70.122  1.00  0.00    -0.365 C  
HETATM   27  O   UNL     1     -12.311  12.035  70.765  1.00  0.00    -0.375 OA 
BRANCH  26  28
HETATM   28  C   UNL     1     -11.129   9.960  70.883  1.00  0.00    -0.418 A  
HETATM   29  C   UNL     1      -9.016   8.726  71.345  1.00  0.00    -0.307 A  
HETATM   30  C   UNL     1      -9.741   9.734  70.671  1.00  0.00    -0.133 A  
HETATM   31  C   UNL     1     -11.725   9.136  71.841  1.00  0.00    -0.436 A  
HETATM   32  C   UNL     1      -9.659   7.922  72.279  1.00  0.00    -0.255 A  
HETATM   33  C   UNL     1     -11.015   8.136  72.530  1.00  0.00    -0.439 A  
ENDBRANCH  26  28
ENDBRANCH  25  26
ENDBRANCH   3  25
TORSDOF 9
ENDMDL
MODEL      286
REMARK 921   NORMALIZED FREE ENERGY PREDICTED BY IDOCK:   -4.39 KCAL/MOL
REMARK 922        TOTAL FREE ENERGY PREDICTED BY IDOCK:   -8.20 KCAL/MOL
REMARK 923 INTER-LIGAND FREE ENERGY PREDICTED BY IDOCK:   -7.63 KCAL/MOL
REMARK 924 INTRA-LIGAND FREE ENERGY PREDICTED BY IDOCK:   -0.57 KCAL/MOL
REMARK 927      BINDING AFFINITY PREDICTED BY RF-SCORE:    0.00 PKD
ROOT
HETATM    1  C   UNL     1      -8.717  13.177  66.484  1.00  0.00     0.077 C  
HETATM    2  C   UNL     1     -10.143  12.839  66.951  1.00  0.00    -0.232 C  
HETATM    3  C   UNL     1     -10.309  11.927  67.955  1.00  0.00    -0.196 C  
ENDROOT
BRANCH   2   4
HETATM    4  N   UNL     1     -11.135  13.588  66.289  1.00  0.00    -0.299 N  
HETATM    5  C   UNL     1     -12.229  12.957  65.675  1.00  0.00    -0.463 C  
HETATM    6  O   UNL     1     -12.975  13.460  64.847  1.00  0.00    -0.717 OA 
BRANCH   4   7
HETATM    7  C   UNL     1     -10.818  14.933  65.764  1.00  0.00    -0.339 C  
BRANCH   7   8
HETATM    8  C   UNL     1     -10.441  15.945  66.831  1.00  0.00    -0.309 A  
HETATM    9  H2  UNL     1      -8.615  15.746  65.015  1.00  0.00     0.000 HD 
HETATM   10  C   UNL     1     -11.000  16.177  68.038  1.00  0.00    -0.338 A  
HETATM   11  N   UNL     1      -9.147  17.946  67.360  1.00  0.00    -0.244 NA 
HETATM   12  N   UNL     1     -10.862  17.310  68.819  1.00  0.00    -0.236 NA 
HETATM   13  H1  UNL     1      -7.687  17.204  65.389  1.00  0.00     0.000 HD 
HETATM   14  C   UNL     1      -9.991  19.549  69.059  1.00  0.00    -0.490 C  
HETATM   15  N   UNL     1      -8.473  16.582  65.582  1.00  0.00    -0.136 NA 
HETATM   16  C   UNL     1      -9.990  18.187  68.415  1.00  0.00    -0.380 A  
HETATM   17  C   UNL     1      -9.290  16.856  66.548  1.00  0.00    -0.270 A  
ENDBRANCH   7   8
ENDBRANCH   4   7
ENDBRANCH   2   4
BRANCH   3  18
HETATM   18  C   UNL     1      -9.063  11.501  68.850  1.00  0.00     0.015 C  
BRANCH  18  19
HETATM   19  C   UNL     1      -8.357  10.137  68.488  1.00  0.00    -0.116 C  
BRANCH  19  20
HETATM   20  O   UNL     1      -7.684   9.439  69.603  1.00  0.00    -0.081 OA 
HETATM   21  O   UNL     1      -7.905   7.229  69.591  1.00  0.00    -0.112 OA 
HETATM   22  O   UNL     1      -5.937   8.339  70.501  1.00  0.00    -0.032 OA 
HETATM   23  P   UNL     1      -6.670   8.151  69.051  1.00  0.00    -0.050 P  
HETATM   24  O   UNL     1      -5.762   6.999  68.557  1.00  0.00    -0.017 OA 
ENDBRANCH  19  20
ENDBRANCH  18  19
ENDBRANCH   3  18
BRANCH   3  25
HETATM   25  S   UNL     1     -11.887  11.136  68.421  1.00  0.00    -0.138 SA 
BRANCH  25  26
HETATM   26  C   UNL     1     -12.001  10.755  70.189  1.00  0.00    -0.349 C  
HETATM   27  O   UNL     1     -12.363  11.605  70.994  1.00  0.00    -0.360 OA 
BRANCH  26  28
HETATM   28  C   UNL     1     -11.551   9.373  70.716  1.00  0.00    -0.364 A  
HETATM   29  C   UNL     1     -11.318   7.844  72.667  1.00  0.00    -0.468 A  
HETATM   30  C   UNL     1     -11.675   9.089  72.103  1.00  0.00    -0.366 A  
HETATM   31  C   UNL     1     -11.083   8.314  69.933  1.00  0.00    -0.100 A  
HETATM   32  C   UNL     1     -10.843   6.828  71.847  1.00  0.00    -0.261 A  
HETATM   33  C   UNL     1     -10.734   7.065  70.477  1.00  0.00    -0.262 A  
ENDBRANCH  26  28
ENDBRANCH  25  26
ENDBRANCH   3  25
TORSDOF 9
ENDMDL
MODEL      287
REMARK 921   NORMALIZED FREE ENERGY PREDICTED BY IDOCK:   -4.38 KCAL/MOL
REMARK 922        TOTAL FREE ENERGY PREDICTED BY IDOCK:   -8.19 KCAL/MOL
REMARK 923 INTER-LIGAND FREE ENERGY PREDICTED BY IDOCK:   -6.17 KCAL/MOL
REMARK 924 INTRA-LIGAND FREE ENERGY PREDICTED BY IDOCK:   -2.02 KCAL/MOL
REMARK 927      BINDING AFFINITY PREDICTED BY RF-SCORE:    0.00 PKD
ROOT
HETATM    1  C   UNL     1     -10.778   8.254  67.420  1.00  0.00    -0.236 C  
HETATM    2  C   UNL     1      -9.422   8.440  68.121  1.00  0.00    -0.138 C  
HETATM    3  C   UNL     1      -9.406   8.790  69.443  1.00  0.00    -0.157 C  
ENDROOT
BRANCH   2   4
HETATM    4  N   UNL     1      -8.322   8.161  67.287  1.00  0.00    -0.120 N  
HETATM    5  C   UNL     1      -7.605   6.960  67.413  1.00  0.00    -0.109 C  
HETATM    6  O   UNL     1      -6.491   6.740  66.960  1.00  0.00    -0.040 OA 
BRANCH   4   7
HETATM    7  C   UNL     1      -7.574   9.270  66.657  1.00  0.00    -0.093 C  
BRANCH   7   8
HETATM    8  C   UNL     1      -8.424  10.180  65.790  1.00  0.00    -0.153 A  
HETATM    9  H2  UNL     1      -7.527   8.157  64.458  1.00  0.00     0.000 HD 
HETATM   10  C   UNL     1      -8.882  11.427  66.035  1.00  0.00    -0.174 A  
HETATM   11  N   UNL     1      -9.856  10.347  63.819  1.00  0.00    -0.296 NA 
HETATM   12  N   UNL     1      -9.920  12.077  65.393  1.00  0.00    -0.253 NA 
HETATM   13  H1  UNL     1      -8.575   8.269  63.038  1.00  0.00     0.000 HD 
HETATM   14  C   UNL     1     -11.713  11.995  63.777  1.00  0.00    -0.575 C  
HETATM   15  N   UNL     1      -8.279   8.622  63.948  1.00  0.00    -0.162 NA 
HETATM   16  C   UNL     1     -10.416  11.481  64.348  1.00  0.00    -0.325 A  
HETATM   17  C   UNL     1      -8.858   9.662  64.456  1.00  0.00    -0.223 A  
ENDBRANCH   7   8
ENDBRANCH   4   7
ENDBRANCH   2   4
BRANCH   3  18
HETATM   18  C   UNL     1     -10.734   8.658  70.312  1.00  0.00    -0.243 C  
BRANCH  18  19
HETATM   19  C   UNL     1     -11.415  10.002  70.784  1.00  0.00    -0.356 C  
BRANCH  19  20
HETATM   20  O   UNL     1     -12.141  10.760  69.744  1.00  0.00    -0.312 OA 
HETATM   21  O   UNL     1     -12.332  12.938  70.140  1.00  0.00    -0.270 OA 
HETATM   22  O   UNL     1     -12.210  12.026  67.884  1.00  0.00    -0.470 OA 
HETATM   23  P   UNL     1     -11.253  12.143  69.205  1.00  0.00    -0.193 P  
HETATM   24  O   UNL     1     -10.458  13.381  68.722  1.00  0.00    -0.242 OA 
ENDBRANCH  19  20
ENDBRANCH  18  19
ENDBRANCH   3  18
BRANCH   3  25
HETATM   25  S   UNL     1      -7.949   9.388  70.366  1.00  0.00    -0.178 SA 
BRANCH  25  26
HETATM   26  C   UNL     1      -7.078   8.073  71.258  1.00  0.00    -0.057 C  
HETATM   27  O   UNL     1      -5.874   8.147  71.473  1.00  0.00    -0.034 OA 
BRANCH  26  28
HETATM   28  C   UNL     1      -7.832   6.790  71.677  1.00  0.00    -0.101 A  
HETATM   29  C   UNL     1      -9.417   5.710  73.265  1.00  0.00    -0.143 A  
HETATM   30  C   UNL     1      -8.668   6.824  72.827  1.00  0.00    -0.131 A  
HETATM   31  C   UNL     1      -7.832   5.579  70.980  1.00  0.00    -0.105 A  
HETATM   32  C   UNL     1      -9.371   4.522  72.545  1.00  0.00    -0.160 A  
HETATM   33  C   UNL     1      -8.581   4.463  71.396  1.00  0.00    -0.125 A  
ENDBRANCH  26  28
ENDBRANCH  25  26
ENDBRANCH   3  25
TORSDOF 9
ENDMDL
MODEL      288
REMARK 921   NORMALIZED FREE ENERGY PREDICTED BY IDOCK:   -4.37 KCAL/MOL
REMARK 922        TOTAL FREE ENERGY PREDICTED BY IDOCK:   -8.17 KCAL/MOL
REMARK 923 INTER-LIGAND FREE ENERGY PREDICTED BY IDOCK:   -6.70 KCAL/MOL
REMARK 924 INTRA-LIGAND FREE ENERGY PREDICTED BY IDOCK:   -1.47 KCAL/MOL
REMARK 927      BINDING AFFINITY PREDICTED BY RF-SCORE:    0.00 PKD
ROOT
HETATM    1  C   UNL     1      -7.838   9.939  63.238  1.00  0.00    -0.146 C  
HETATM    2  C   UNL     1      -8.234   9.291  64.576  1.00  0.00    -0.151 C  
HETATM    3  C   UNL     1      -9.352   9.742  65.221  1.00  0.00    -0.255 C  
ENDROOT
BRANCH   2   4
HETATM    4  N   UNL     1      -7.384   8.234  64.954  1.00  0.00    -0.084 N  
HETATM    5  C   UNL     1      -7.901   7.053  65.511  1.00  0.00    -0.115 C  
HETATM    6  O   UNL     1      -7.263   6.212  66.128  1.00  0.00    -0.072 OA 
BRANCH   4   7
HETATM    7  C   UNL     1      -5.967   8.506  65.278  1.00  0.00    -0.048 C  
BRANCH   7   8
HETATM    8  C   UNL     1      -5.753   9.159  66.632  1.00  0.00    -0.050 A  
HETATM    9  H2  UNL     1      -5.045  10.716  64.696  1.00  0.00     0.000 HD 
HETATM   10  C   UNL     1      -5.782   8.616  67.868  1.00  0.00    -0.039 A  
HETATM   11  N   UNL     1      -5.581  11.259  67.865  1.00  0.00    -0.043 NA 
HETATM   12  N   UNL     1      -5.929   9.284  69.070  1.00  0.00    -0.042 NA 
HETATM   13  H1  UNL     1      -4.936  12.240  65.587  1.00  0.00     0.000 HD 
HETATM   14  C   UNL     1      -6.317  11.363  70.235  1.00  0.00    -0.043 C  
HETATM   15  N   UNL     1      -5.127  11.237  65.570  1.00  0.00    -0.289 NA 
HETATM   16  C   UNL     1      -5.892  10.583  69.018  1.00  0.00    -0.040 A  
HETATM   17  C   UNL     1      -5.473  10.627  66.657  1.00  0.00    -0.060 A  
ENDBRANCH   7   8
ENDBRANCH   4   7
ENDBRANCH   2   4
BRANCH   3  18
HETATM   18  C   UNL     1     -10.402  10.651  64.441  1.00  0.00    -0.347 C  
BRANCH  18  19
HETATM   19  C   UNL     1     -10.049  12.182  64.294  1.00  0.00    -0.290 C  
BRANCH  19  20
HETATM   20  O   UNL     1     -11.047  13.012  63.589  1.00  0.00    -0.383 OA 
HETATM   21  O   UNL     1     -13.151  12.341  63.822  1.00  0.00    -0.780 OA 
HETATM   22  O   UNL     1     -12.555  14.683  63.517  1.00  0.00    -0.705 OA 
HETATM   23  P   UNL     1     -12.338  13.505  64.630  1.00  0.00    -0.319 P  
HETATM   24  O   UNL     1     -13.494  13.945  65.561  1.00  0.00    -0.657 OA 
ENDBRANCH  19  20
ENDBRANCH  18  19
ENDBRANCH   3  18
BRANCH   3  25
HETATM   25  S   UNL     1      -9.806   9.365  66.948  1.00  0.00    -0.219 SA 
BRANCH  25  26
HETATM   26  C   UNL     1     -10.881  10.619  67.694  1.00  0.00    -0.292 C  
HETATM   27  O   UNL     1     -12.072  10.396  67.884  1.00  0.00     0.079 OA 
BRANCH  26  28
HETATM   28  C   UNL     1     -10.326  12.026  68.015  1.00  0.00    -0.206 A  
HETATM   29  C   UNL     1     -10.686  14.219  69.136  1.00  0.00    -0.239 A  
HETATM   30  C   UNL     1     -11.124  12.927  68.771  1.00  0.00    -0.305 A  
HETATM   31  C   UNL     1      -9.051  12.494  67.686  1.00  0.00    -0.187 A  
HETATM   32  C   UNL     1      -9.414  14.644  68.772  1.00  0.00    -0.199 A  
HETATM   33  C   UNL     1      -8.595  13.774  68.052  1.00  0.00    -0.177 A  
ENDBRANCH  26  28
ENDBRANCH  25  26
ENDBRANCH   3  25
TORSDOF 9
ENDMDL
MODEL      289
REMARK 921   NORMALIZED FREE ENERGY PREDICTED BY IDOCK:   -4.32 KCAL/MOL
REMARK 922        TOTAL FREE ENERGY PREDICTED BY IDOCK:   -8.09 KCAL/MOL
REMARK 923 INTER-LIGAND FREE ENERGY PREDICTED BY IDOCK:   -7.56 KCAL/MOL
REMARK 924 INTRA-LIGAND FREE ENERGY PREDICTED BY IDOCK:   -0.53 KCAL/MOL
REMARK 927      BINDING AFFINITY PREDICTED BY RF-SCORE:    0.00 PKD
ROOT
HETATM    1  C   UNL     1      -9.402  13.852  66.395  1.00  0.00    -0.226 C  
HETATM    2  C   UNL     1     -10.262  12.604  66.654  1.00  0.00    -0.236 C  
HETATM    3  C   UNL     1     -10.811  12.427  67.893  1.00  0.00    -0.222 C  
ENDROOT
BRANCH   2   4
HETATM    4  N   UNL     1     -10.424  11.795  65.513  1.00  0.00    -0.257 N  
HETATM    5  C   UNL     1     -11.236  12.206  64.443  1.00  0.00    -0.341 C  
HETATM    6  O   UNL     1     -11.673  11.485  63.557  1.00  0.00    -0.379 OA 
BRANCH   4   7
HETATM    7  C   UNL     1     -10.213  10.334  65.608  1.00  0.00    -0.231 C  
BRANCH   7   8
HETATM    8  C   UNL     1      -9.030   9.824  64.806  1.00  0.00    -0.266 A  
HETATM    9  H2  UNL     1      -8.274  11.043  66.954  1.00  0.00     0.000 HD 
HETATM   10  C   UNL     1      -8.982   9.344  63.545  1.00  0.00    -0.115 A  
HETATM   11  N   UNL     1      -6.702   9.091  64.870  1.00  0.00    -0.069 NA 
HETATM   12  N   UNL     1      -7.979   8.578  62.979  1.00  0.00    -0.156 NA 
HETATM   13  H1  UNL     1      -6.592  10.499  67.009  1.00  0.00     0.000 HD 
HETATM   14  C   UNL     1      -5.898   7.385  63.255  1.00  0.00    -0.045 C  
HETATM   15  N   UNL     1      -7.506  10.502  66.555  1.00  0.00    -0.121 NA 
HETATM   16  C   UNL     1      -6.901   8.421  63.690  1.00  0.00    -0.084 A  
HETATM   17  C   UNL     1      -7.691   9.819  65.471  1.00  0.00    -0.121 A  
ENDBRANCH   7   8
ENDBRANCH   4   7
ENDBRANCH   2   4
BRANCH   3  18
HETATM   18  C   UNL     1     -10.856  13.644  68.919  1.00  0.00    -0.264 C  
BRANCH  18  19
HETATM   19  C   UNL     1     -12.126  14.579  68.862  1.00  0.00    -0.237 C  
BRANCH  19  20
HETATM   20  O   UNL     1     -11.867  16.008  68.588  1.00  0.00    -0.367 OA 
HETATM   21  O   UNL     1     -10.612  17.037  70.105  1.00  0.00    -0.042 OA 
HETATM   22  O   UNL     1     -10.613  17.682  67.756  1.00  0.00    -0.374 OA 
HETATM   23  P   UNL     1     -10.183  16.393  68.667  1.00  0.00    -0.297 P  
HETATM   24  O   UNL     1      -8.675  16.738  68.736  1.00  0.00    -0.252 OA 
ENDBRANCH  19  20
ENDBRANCH  18  19
ENDBRANCH   3  18
BRANCH   3  25
HETATM   25  S   UNL     1     -11.563  10.882  68.512  1.00  0.00    -0.239 SA 
BRANCH  25  26
HETATM   26  C   UNL     1     -11.851  10.894  70.301  1.00  0.00    -0.361 C  
HETATM   27  O   UNL     1     -12.431  11.829  70.839  1.00  0.00    -0.372 OA 
BRANCH  26  28
HETATM   28  C   UNL     1     -11.281   9.761  71.185  1.00  0.00    -0.444 A  
HETATM   29  C   UNL     1      -9.264   8.616  72.089  1.00  0.00    -0.326 A  
HETATM   30  C   UNL     1      -9.872   9.602  71.282  1.00  0.00     0.114 A  
HETATM   31  C   UNL     1     -12.032   8.892  71.982  1.00  0.00    -0.439 A  
HETATM   32  C   UNL     1     -10.055   7.765  72.851  1.00  0.00    -0.363 A  
HETATM   33  C   UNL     1     -11.442   7.912  72.800  1.00  0.00    -0.428 A  
ENDBRANCH  26  28
ENDBRANCH  25  26
ENDBRANCH   3  25
TORSDOF 9
ENDMDL
MODEL      290
REMARK 921   NORMALIZED FREE ENERGY PREDICTED BY IDOCK:   -4.30 KCAL/MOL
REMARK 922        TOTAL FREE ENERGY PREDICTED BY IDOCK:   -8.06 KCAL/MOL
REMARK 923 INTER-LIGAND FREE ENERGY PREDICTED BY IDOCK:   -7.76 KCAL/MOL
REMARK 924 INTRA-LIGAND FREE ENERGY PREDICTED BY IDOCK:   -0.30 KCAL/MOL
REMARK 927      BINDING AFFINITY PREDICTED BY RF-SCORE:    0.00 PKD
ROOT
HETATM    1  C   UNL     1      -7.793   9.208  70.594  1.00  0.00    -0.165 C  
HETATM    2  C   UNL     1      -8.759   8.789  69.473  1.00  0.00    -0.138 C  
HETATM    3  C   UNL     1      -8.498   9.193  68.193  1.00  0.00    -0.125 C  
ENDROOT
BRANCH   2   4
HETATM    4  N   UNL     1      -9.805   7.960  69.921  1.00  0.00    -0.180 N  
HETATM    5  C   UNL     1     -10.572   7.208  69.016  1.00  0.00    -0.210 C  
HETATM    6  O   UNL     1     -11.658   6.696  69.249  1.00  0.00    -0.240 OA 
BRANCH   4   7
HETATM    7  C   UNL     1     -10.467   8.241  71.213  1.00  0.00    -0.211 C  
BRANCH   7   8
HETATM    8  C   UNL     1     -11.447   9.399  71.172  1.00  0.00    -0.422 A  
HETATM    9  H2  UNL     1     -12.567   7.229  72.013  1.00  0.00     0.000 HD 
HETATM   10  C   UNL     1     -11.325  10.615  70.597  1.00  0.00    -0.198 A  
HETATM   11  N   UNL     1     -13.500  10.351  72.087  1.00  0.00    -0.321 NA 
HETATM   12  N   UNL     1     -12.072  11.747  70.870  1.00  0.00    -0.272 NA 
HETATM   13  H1  UNL     1     -14.047   7.921  72.690  1.00  0.00     0.000 HD 
HETATM   14  C   UNL     1     -13.772  12.816  72.209  1.00  0.00    -0.495 C  
HETATM   15  N   UNL     1     -13.152   8.040  72.215  1.00  0.00    -0.186 NA 
HETATM   16  C   UNL     1     -13.093  11.589  71.660  1.00  0.00    -0.373 A  
HETATM   17  C   UNL     1     -12.758   9.224  71.868  1.00  0.00    -0.394 A  
ENDBRANCH   7   8
ENDBRANCH   4   7
ENDBRANCH   2   4
BRANCH   3  18
HETATM   18  C   UNL     1      -7.060   9.770  67.824  1.00  0.00    -0.087 C  
BRANCH  18  19
HETATM   19  C   UNL     1      -6.664  11.159  68.461  1.00  0.00    -0.062 C  
BRANCH  19  20
HETATM   20  O   UNL     1      -7.786  12.048  68.827  1.00  0.00    -0.118 OA 
HETATM   21  O   UNL     1      -7.524  14.173  68.237  1.00  0.00    -0.104 OA 
HETATM   22  O   UNL     1      -9.714  13.115  68.367  1.00  0.00    -0.227 OA 
HETATM   23  P   UNL     1      -8.346  12.980  67.482  1.00  0.00    -0.200 P  
HETATM   24  O   UNL     1      -8.848  13.815  66.278  1.00  0.00     0.013 OA 
ENDBRANCH  19  20
ENDBRANCH  18  19
ENDBRANCH   3  18
BRANCH   3  25
HETATM   25  S   UNL     1      -9.666   9.107  66.792  1.00  0.00    -0.231 SA 
BRANCH  25  26
HETATM   26  C   UNL     1     -10.930  10.404  66.835  1.00  0.00    -0.097 C  
HETATM   27  O   UNL     1     -11.632  10.568  67.826  1.00  0.00    -0.462 OA 
BRANCH  26  28
HETATM   28  C   UNL     1     -11.202  11.264  65.579  1.00  0.00    -0.069 A  
HETATM   29  C   UNL     1     -12.313  13.269  64.607  1.00  0.00    -0.447 A  
HETATM   30  C   UNL     1     -12.035  12.410  65.693  1.00  0.00    -0.449 A  
HETATM   31  C   UNL     1     -10.640  11.063  64.315  1.00  0.00    -0.402 A  
HETATM   32  C   UNL     1     -11.741  13.017  63.366  1.00  0.00    -0.477 A  
HETATM   33  C   UNL     1     -10.897  11.914  63.226  1.00  0.00    -0.408 A  
ENDBRANCH  26  28
ENDBRANCH  25  26
ENDBRANCH   3  25
TORSDOF 9
ENDMDL
MODEL      291
REMARK 921   NORMALIZED FREE ENERGY PREDICTED BY IDOCK:   -4.29 KCAL/MOL
REMARK 922        TOTAL FREE ENERGY PREDICTED BY IDOCK:   -8.06 KCAL/MOL
REMARK 923 INTER-LIGAND FREE ENERGY PREDICTED BY IDOCK:   -6.78 KCAL/MOL
REMARK 924 INTRA-LIGAND FREE ENERGY PREDICTED BY IDOCK:   -1.28 KCAL/MOL
REMARK 927      BINDING AFFINITY PREDICTED BY RF-SCORE:    0.00 PKD
ROOT
HETATM    1  C   UNL     1      -7.524   6.786  68.954  1.00  0.00    -0.096 C  
HETATM    2  C   UNL     1      -7.900   7.906  67.970  1.00  0.00    -0.127 C  
HETATM    3  C   UNL     1      -9.213   8.068  67.626  1.00  0.00    -0.133 C  
ENDROOT
BRANCH   2   4
HETATM    4  N   UNL     1      -6.799   8.691  67.576  1.00  0.00    -0.070 N  
HETATM    5  C   UNL     1      -6.869  10.094  67.586  1.00  0.00    -0.076 C  
HETATM    6  O   UNL     1      -6.106  10.854  67.007  1.00  0.00    -0.061 OA 
BRANCH   4   7
HETATM    7  C   UNL     1      -5.777   8.126  66.669  1.00  0.00    -0.043 C  
BRANCH   7   8
HETATM    8  C   UNL     1      -6.346   7.307  65.524  1.00  0.00    -0.038 A  
HETATM    9  H2  UNL     1      -4.770   5.903  67.015  1.00  0.00     0.000 HD 
HETATM   10  C   UNL     1      -7.012   7.708  64.421  1.00  0.00    -0.060 A  
HETATM   11  N   UNL     1      -6.940   5.077  64.728  1.00  0.00    -0.049 NA 
HETATM   12  N   UNL     1      -7.805   6.932  63.595  1.00  0.00    -0.122 NA 
HETATM   13  H1  UNL     1      -5.212   4.288  66.449  1.00  0.00     0.000 HD 
HETATM   14  C   UNL     1      -8.834   4.794  63.147  1.00  0.00    -0.117 C  
HETATM   15  N   UNL     1      -5.326   5.301  66.408  1.00  0.00    -0.012 NA 
HETATM   16  C   UNL     1      -7.794   5.651  63.822  1.00  0.00    -0.108 A  
HETATM   17  C   UNL     1      -6.178   5.822  65.585  1.00  0.00    -0.037 A  
ENDBRANCH   7   8
ENDBRANCH   4   7
ENDBRANCH   2   4
BRANCH   3  18
HETATM   18  C   UNL     1     -10.349   7.356  68.485  1.00  0.00    -0.221 C  
BRANCH  18  19
HETATM   19  C   UNL     1     -10.780   8.067  69.826  1.00  0.00    -0.231 C  
BRANCH  19  20
HETATM   20  O   UNL     1     -11.761   7.341  70.658  1.00  0.00    -0.303 OA 
HETATM   21  O   UNL     1     -11.757   7.900  72.808  1.00  0.00    -0.364 OA 
HETATM   22  O   UNL     1     -13.769   7.146  71.659  1.00  0.00    -0.376 OA 
HETATM   23  P   UNL     1     -12.735   8.413  71.605  1.00  0.00    -0.317 P  
HETATM   24  O   UNL     1     -13.607   9.372  72.451  1.00  0.00    -0.457 OA 
ENDBRANCH  19  20
ENDBRANCH  18  19
ENDBRANCH   3  18
BRANCH   3  25
HETATM   25  S   UNL     1      -9.830   9.086  66.241  1.00  0.00    -0.270 SA 
BRANCH  25  26
HETATM   26  C   UNL     1     -10.442  10.709  66.766  1.00  0.00    -0.247 C  
HETATM   27  O   UNL     1     -10.426  11.037  67.946  1.00  0.00    -0.178 OA 
BRANCH  26  28
HETATM   28  C   UNL     1     -11.083  11.666  65.734  1.00  0.00    -0.313 A  
HETATM   29  C   UNL     1     -11.500  12.196  63.338  1.00  0.00    -0.501 A  
HETATM   30  C   UNL     1     -10.925  11.394  64.348  1.00  0.00    -0.371 A  
HETATM   31  C   UNL     1     -11.886  12.770  66.035  1.00  0.00    -0.495 A  
HETATM   32  C   UNL     1     -12.279  13.293  63.688  1.00  0.00    -0.522 A  
HETATM   33  C   UNL     1     -12.475  13.572  65.041  1.00  0.00    -0.462 A  
ENDBRANCH  26  28
ENDBRANCH  25  26
ENDBRANCH   3  25
TORSDOF 9
ENDMDL
MODEL      292
REMARK 921   NORMALIZED FREE ENERGY PREDICTED BY IDOCK:   -4.28 KCAL/MOL
REMARK 922        TOTAL FREE ENERGY PREDICTED BY IDOCK:   -8.05 KCAL/MOL
REMARK 923 INTER-LIGAND FREE ENERGY PREDICTED BY IDOCK:   -6.94 KCAL/MOL
REMARK 924 INTRA-LIGAND FREE ENERGY PREDICTED BY IDOCK:   -1.11 KCAL/MOL
REMARK 927      BINDING AFFINITY PREDICTED BY RF-SCORE:    0.00 PKD
ROOT
HETATM    1  C   UNL     1     -11.829  11.935  66.144  1.00  0.00    -0.108 C  
HETATM    2  C   UNL     1     -10.369  11.798  66.608  1.00  0.00    -0.218 C  
HETATM    3  C   UNL     1      -9.941  12.550  67.667  1.00  0.00    -0.201 C  
ENDROOT
BRANCH   2   4
HETATM    4  N   UNL     1      -9.644  10.833  65.883  1.00  0.00    -0.198 N  
HETATM    5  C   UNL     1      -8.756  11.209  64.862  1.00  0.00     0.084 C  
HETATM    6  O   UNL     1      -8.306  10.473  63.996  1.00  0.00    -0.161 OA 
BRANCH   4   7
HETATM    7  C   UNL     1     -10.153   9.448  65.785  1.00  0.00    -0.096 C  
BRANCH   7   8
HETATM    8  C   UNL     1      -9.248   8.406  66.418  1.00  0.00    -0.253 A  
HETATM    9  H2  UNL     1     -10.583   9.721  68.197  1.00  0.00     0.000 HD 
HETATM   10  C   UNL     1      -8.247   7.683  65.871  1.00  0.00    -0.133 A  
HETATM   11  N   UNL     1      -8.865   6.954  68.342  1.00  0.00    -0.124 NA 
HETATM   12  N   UNL     1      -7.689   6.520  66.367  1.00  0.00    -0.097 NA 
HETATM   13  H1  UNL     1     -10.318   8.660  69.586  1.00  0.00     0.000 HD 
HETATM   14  C   UNL     1      -7.715   4.775  68.036  1.00  0.00    -0.082 C  
HETATM   15  N   UNL     1     -10.171   8.879  68.601  1.00  0.00    -0.196 NA 
HETATM   16  C   UNL     1      -8.069   6.159  67.558  1.00  0.00    -0.109 A  
HETATM   17  C   UNL     1      -9.463   8.087  67.862  1.00  0.00    -0.145 A  
ENDBRANCH   7   8
ENDBRANCH   4   7
ENDBRANCH   2   4
BRANCH   3  18
HETATM   18  C   UNL     1     -11.005  13.269  68.607  1.00  0.00    -0.294 C  
BRANCH  18  19
HETATM   19  C   UNL     1     -11.912  12.337  69.501  1.00  0.00    -0.270 C  
BRANCH  19  20
HETATM   20  O   UNL     1     -12.127  12.784  70.893  1.00  0.00    -0.283 OA 
HETATM   21  O   UNL     1     -11.357  14.816  71.351  1.00  0.00    -0.258 OA 
HETATM   22  O   UNL     1     -13.298  13.870  72.480  1.00  0.00    -0.484 OA 
HETATM   23  P   UNL     1     -12.874  14.342  70.972  1.00  0.00    -0.344 P  
HETATM   24  O   UNL     1     -13.543  15.736  71.043  1.00  0.00    -0.568 OA 
ENDBRANCH  19  20
ENDBRANCH  18  19
ENDBRANCH   3  18
BRANCH   3  25
HETATM   25  S   UNL     1      -8.200  12.800  68.157  1.00  0.00    -0.170 SA 
BRANCH  25  26
HETATM   26  C   UNL     1      -7.522  14.386  67.602  1.00  0.00    -0.175 C  
HETATM   27  O   UNL     1      -6.323  14.517  67.381  1.00  0.00    -0.322 OA 
BRANCH  26  28
HETATM   28  C   UNL     1      -8.439  15.625  67.490  1.00  0.00    -0.182 A  
HETATM   29  C   UNL     1      -9.973  16.981  66.073  1.00  0.00    -0.288 A  
HETATM   30  C   UNL     1      -9.095  15.890  66.257  1.00  0.00    -0.379 A  
HETATM   31  C   UNL     1      -8.756  16.503  68.531  1.00  0.00    -0.228 A  
HETATM   32  C   UNL     1     -10.244  17.834  67.136  1.00  0.00    -0.353 A  
HETATM   33  C   UNL     1      -9.638  17.586  68.368  1.00  0.00    -0.303 A  
ENDBRANCH  26  28
ENDBRANCH  25  26
ENDBRANCH   3  25
TORSDOF 9
ENDMDL
MODEL      293
REMARK 921   NORMALIZED FREE ENERGY PREDICTED BY IDOCK:   -4.27 KCAL/MOL
REMARK 922        TOTAL FREE ENERGY PREDICTED BY IDOCK:   -8.02 KCAL/MOL
REMARK 923 INTER-LIGAND FREE ENERGY PREDICTED BY IDOCK:   -6.57 KCAL/MOL
REMARK 924 INTRA-LIGAND FREE ENERGY PREDICTED BY IDOCK:   -1.45 KCAL/MOL
REMARK 927      BINDING AFFINITY PREDICTED BY RF-SCORE:    0.00 PKD
ROOT
HETATM    1  C   UNL     1      -9.869   4.139  70.752  1.00  0.00    -0.248 C  
HETATM    2  C   UNL     1     -10.246   5.610  70.508  1.00  0.00    -0.231 C  
HETATM    3  C   UNL     1      -9.590   6.306  69.532  1.00  0.00    -0.147 C  
ENDROOT
BRANCH   2   4
HETATM    4  N   UNL     1     -11.304   6.055  71.324  1.00  0.00    -0.266 N  
HETATM    5  C   UNL     1     -12.286   6.927  70.827  1.00  0.00    -0.312 C  
HETATM    6  O   UNL     1     -13.061   7.591  71.498  1.00  0.00    -0.349 OA 
BRANCH   4   7
HETATM    7  C   UNL     1     -11.146   6.070  72.794  1.00  0.00    -0.269 C  
BRANCH   7   8
HETATM    8  C   UNL     1      -9.901   6.791  73.278  1.00  0.00    -0.214 A  
HETATM    9  H2  UNL     1     -10.137   4.458  74.363  1.00  0.00     0.000 HD 
HETATM   10  C   UNL     1      -9.538   8.084  73.133  1.00  0.00    -0.274 A  
HETATM   11  N   UNL     1      -7.649   6.557  74.192  1.00  0.00    -0.091 NA 
HETATM   12  N   UNL     1      -8.270   8.617  73.274  1.00  0.00    -0.403 NA 
HETATM   13  H1  UNL     1      -8.502   4.283  75.011  1.00  0.00     0.000 HD 
HETATM   14  C   UNL     1      -5.914   8.248  73.650  1.00  0.00    -0.098 C  
HETATM   15  N   UNL     1      -9.197   4.829  74.500  1.00  0.00    -0.110 NA 
HETATM   16  C   UNL     1      -7.354   7.815  73.734  1.00  0.00    -0.124 A  
HETATM   17  C   UNL     1      -8.883   5.991  74.027  1.00  0.00    -0.126 A  
ENDBRANCH   7   8
ENDBRANCH   4   7
ENDBRANCH   2   4
BRANCH   3  18
HETATM   18  C   UNL     1      -8.723   5.523  68.449  1.00  0.00    -0.105 C  
BRANCH  18  19
HETATM   19  C   UNL     1      -7.180   5.850  68.397  1.00  0.00    -0.083 C  
BRANCH  19  20
HETATM   20  O   UNL     1      -6.617   6.104  67.055  1.00  0.00    -0.054 OA 
HETATM   21  O   UNL     1      -7.930   7.272  65.697  1.00  0.00    -0.107 OA 
HETATM   22  O   UNL     1      -5.499   7.377  65.572  1.00  0.00    -0.028 OA 
HETATM   23  P   UNL     1      -6.684   7.779  66.625  1.00  0.00    -0.068 P  
HETATM   24  O   UNL     1      -6.744   9.277  66.240  1.00  0.00    -0.072 OA 
ENDBRANCH  19  20
ENDBRANCH  18  19
ENDBRANCH   3  18
BRANCH   3  25
HETATM   25  S   UNL     1      -9.631   8.118  69.308  1.00  0.00    -0.165 SA 
BRANCH  25  26
HETATM   26  C   UNL     1     -10.529   8.634  67.821  1.00  0.00    -0.224 C  
HETATM   27  O   UNL     1     -10.851   7.818  66.964  1.00  0.00    -0.316 OA 
BRANCH  26  28
HETATM   28  C   UNL     1     -10.818  10.132  67.570  1.00  0.00    -0.349 A  
HETATM   29  C   UNL     1     -10.681  12.063  66.005  1.00  0.00    -0.317 A  
HETATM   30  C   UNL     1     -10.430  10.712  66.332  1.00  0.00    -0.276 A  
HETATM   31  C   UNL     1     -11.507  10.986  68.436  1.00  0.00    -0.378 A  
HETATM   32  C   UNL     1     -11.357  12.876  66.907  1.00  0.00    -0.358 A  
HETATM   33  C   UNL     1     -11.775  12.330  68.121  1.00  0.00    -0.408 A  
ENDBRANCH  26  28
ENDBRANCH  25  26
ENDBRANCH   3  25
TORSDOF 9
ENDMDL
MODEL      294
REMARK 921   NORMALIZED FREE ENERGY PREDICTED BY IDOCK:   -4.26 KCAL/MOL
REMARK 922        TOTAL FREE ENERGY PREDICTED BY IDOCK:   -8.01 KCAL/MOL
REMARK 923 INTER-LIGAND FREE ENERGY PREDICTED BY IDOCK:   -7.03 KCAL/MOL
REMARK 924 INTRA-LIGAND FREE ENERGY PREDICTED BY IDOCK:   -0.98 KCAL/MOL
REMARK 927      BINDING AFFINITY PREDICTED BY RF-SCORE:    0.00 PKD
ROOT
HETATM    1  C   UNL     1      -7.923   9.688  70.324  1.00  0.00    -0.198 C  
HETATM    2  C   UNL     1      -8.280   9.323  68.873  1.00  0.00    -0.111 C  
HETATM    3  C   UNL     1      -9.488   9.722  68.372  1.00  0.00    -0.140 C  
ENDROOT
BRANCH   2   4
HETATM    4  N   UNL     1      -7.248   8.640  68.202  1.00  0.00    -0.085 N  
HETATM    5  C   UNL     1      -6.574   9.229  67.120  1.00  0.00    -0.068 C  
HETATM    6  O   UNL     1      -5.884   8.642  66.300  1.00  0.00    -0.045 OA 
BRANCH   4   7
HETATM    7  C   UNL     1      -7.197   7.162  68.236  1.00  0.00    -0.091 C  
BRANCH   7   8
HETATM    8  C   UNL     1      -8.236   6.524  69.140  1.00  0.00    -0.116 A  
HETATM    9  H2  UNL     1      -5.880   6.466  70.199  1.00  0.00     0.000 HD 
HETATM   10  C   UNL     1      -9.508   6.160  68.874  1.00  0.00    -0.123 A  
HETATM   11  N   UNL     1      -8.854   5.960  71.434  1.00  0.00    -0.136 NA 
HETATM   12  N   UNL     1     -10.516   5.912  69.788  1.00  0.00    -0.244 NA 
HETATM   13  H1  UNL     1      -6.330   6.073  71.863  1.00  0.00     0.000 HD 
HETATM   14  C   UNL     1     -11.248   5.901  72.089  1.00  0.00    -0.342 C  
HETATM   15  N   UNL     1      -6.596   6.263  70.897  1.00  0.00    -0.051 NA 
HETATM   16  C   UNL     1     -10.166   5.890  71.041  1.00  0.00    -0.211 A  
HETATM   17  C   UNL     1      -7.845   6.246  70.556  1.00  0.00    -0.106 A  
ENDBRANCH   7   8
ENDBRANCH   4   7
ENDBRANCH   2   4
BRANCH   3  18
HETATM   18  C   UNL     1     -10.337  10.828  69.141  1.00  0.00    -0.238 C  
BRANCH  18  19
HETATM   19  C   UNL     1     -11.907  10.740  69.013  1.00  0.00    -0.254 C  
BRANCH  19  20
HETATM   20  O   UNL     1     -12.677  11.101  70.221  1.00  0.00    -0.236 OA 
HETATM   21  O   UNL     1     -14.039   9.514  70.969  1.00  0.00    -0.112 OA 
HETATM   22  O   UNL     1     -12.985  11.134  72.452  1.00  0.00    -0.108 OA 
HETATM   23  P   UNL     1     -12.534   9.909  71.467  1.00  0.00    -0.439 P  
HETATM   24  O   UNL     1     -12.407   8.842  72.581  1.00  0.00    -0.346 OA 
ENDBRANCH  19  20
ENDBRANCH  18  19
ENDBRANCH   3  18
BRANCH   3  25
HETATM   25  S   UNL     1     -10.249   9.117  66.827  1.00  0.00    -0.244 SA 
BRANCH  25  26
HETATM   26  C   UNL     1      -9.831  10.127  65.381  1.00  0.00    -0.307 C  
HETATM   27  O   UNL     1      -8.919   9.804  64.629  1.00  0.00    -0.199 OA 
BRANCH  26  28
HETATM   28  C   UNL     1     -10.564  11.465  65.132  1.00  0.00    -0.352 A  
HETATM   29  C   UNL     1     -11.646  12.993  63.491  1.00  0.00    -0.468 A  
HETATM   30  C   UNL     1     -10.947  11.807  63.806  1.00  0.00    -0.500 A  
HETATM   31  C   UNL     1     -10.964  12.372  66.117  1.00  0.00    -0.321 A  
HETATM   32  C   UNL     1     -12.008  13.870  64.506  1.00  0.00    -0.464 A  
HETATM   33  C   UNL     1     -11.670  13.552  65.822  1.00  0.00    -0.371 A  
ENDBRANCH  26  28
ENDBRANCH  25  26
ENDBRANCH   3  25
TORSDOF 9
ENDMDL
MODEL      295
REMARK 921   NORMALIZED FREE ENERGY PREDICTED BY IDOCK:   -4.26 KCAL/MOL
REMARK 922        TOTAL FREE ENERGY PREDICTED BY IDOCK:   -8.00 KCAL/MOL
REMARK 923 INTER-LIGAND FREE ENERGY PREDICTED BY IDOCK:   -8.30 KCAL/MOL
REMARK 924 INTRA-LIGAND FREE ENERGY PREDICTED BY IDOCK:    0.30 KCAL/MOL
REMARK 927      BINDING AFFINITY PREDICTED BY RF-SCORE:    0.00 PKD
ROOT
HETATM    1  C   UNL     1     -12.317  12.708  70.570  1.00  0.00    -0.350 C  
HETATM    2  C   UNL     1     -11.865  11.448  69.813  1.00  0.00    -0.364 C  
HETATM    3  C   UNL     1     -11.379  11.581  68.542  1.00  0.00    -0.277 C  
ENDROOT
BRANCH   2   4
HETATM    4  N   UNL     1     -11.966  10.272  70.582  1.00  0.00    -0.315 N  
HETATM    5  C   UNL     1     -13.159   9.939  71.243  1.00  0.00    -0.400 C  
HETATM    6  O   UNL     1     -13.274   9.124  72.147  1.00  0.00    -0.390 OA 
BRANCH   4   7
HETATM    7  C   UNL     1     -10.747   9.654  71.148  1.00  0.00    -0.294 C  
BRANCH   7   8
HETATM    8  C   UNL     1     -10.896   8.183  71.487  1.00  0.00    -0.290 A  
HETATM    9  H2  UNL     1     -11.042   8.596  68.941  1.00  0.00     0.000 HD 
HETATM   10  C   UNL     1     -11.098   7.587  72.682  1.00  0.00    -0.347 A  
HETATM   11  N   UNL     1     -10.634   5.885  70.705  1.00  0.00    -0.250 NA 
HETATM   12  N   UNL     1     -10.883   6.259  73.001  1.00  0.00    -0.253 NA 
HETATM   13  H1  UNL     1     -10.836   6.934  68.375  1.00  0.00     0.000 HD 
HETATM   14  C   UNL     1     -10.081   4.085  72.323  1.00  0.00    -0.240 C  
HETATM   15  N   UNL     1     -10.900   7.605  69.141  1.00  0.00    -0.132 NA 
HETATM   16  C   UNL     1     -10.591   5.467  72.011  1.00  0.00    -0.228 A  
HETATM   17  C   UNL     1     -10.802   7.199  70.366  1.00  0.00    -0.246 A  
ENDBRANCH   7   8
ENDBRANCH   4   7
ENDBRANCH   2   4
BRANCH   3  18
HETATM   18  C   UNL     1     -10.961  13.020  68.003  1.00  0.00    -0.274 C  
BRANCH  18  19
HETATM   19  C   UNL     1     -12.122  13.953  67.483  1.00  0.00    -0.331 C  
BRANCH  19  20
HETATM   20  O   UNL     1     -12.848  13.479  66.286  1.00  0.00    -0.214 OA 
HETATM   21  O   UNL     1     -12.406  14.602  64.421  1.00  0.00    -0.553 OA 
HETATM   22  O   UNL     1     -13.005  12.241  64.412  1.00  0.00    -0.719 OA 
HETATM   23  P   UNL     1     -11.785  13.187  64.952  1.00  0.00    -0.390 P  
HETATM   24  O   UNL     1     -10.835  12.926  63.758  1.00  0.00    -0.401 OA 
ENDBRANCH  19  20
ENDBRANCH  18  19
ENDBRANCH   3  18
BRANCH   3  25
HETATM   25  S   UNL     1     -11.116  10.218  67.357  1.00  0.00    -0.062 SA 
BRANCH  25  26
HETATM   26  C   UNL     1      -9.403  10.093  66.780  1.00  0.00    -0.160 C  
HETATM   27  O   UNL     1      -9.134   9.548  65.716  1.00  0.00    -0.168 OA 
BRANCH  26  28
HETATM   28  C   UNL     1      -8.245  10.594  67.674  1.00  0.00    -0.107 A  
HETATM   29  C   UNL     1      -6.364  12.198  67.971  1.00  0.00    -0.068 A  
HETATM   30  C   UNL     1      -7.424  11.658  67.209  1.00  0.00    -0.143 A  
HETATM   31  C   UNL     1      -7.955  10.140  68.963  1.00  0.00    -0.115 A  
HETATM   32  C   UNL     1      -6.106  11.702  69.243  1.00  0.00    -0.078 A  
HETATM   33  C   UNL     1      -6.910  10.675  69.739  1.00  0.00    -0.143 A  
ENDBRANCH  26  28
ENDBRANCH  25  26
ENDBRANCH   3  25
TORSDOF 9
ENDMDL
MODEL      296
REMARK 921   NORMALIZED FREE ENERGY PREDICTED BY IDOCK:   -4.25 KCAL/MOL
REMARK 922        TOTAL FREE ENERGY PREDICTED BY IDOCK:   -8.00 KCAL/MOL
REMARK 923 INTER-LIGAND FREE ENERGY PREDICTED BY IDOCK:   -6.21 KCAL/MOL
REMARK 924 INTRA-LIGAND FREE ENERGY PREDICTED BY IDOCK:   -1.79 KCAL/MOL
REMARK 927      BINDING AFFINITY PREDICTED BY RF-SCORE:    0.00 PKD
ROOT
HETATM    1  C   UNL     1      -8.190   5.595  68.703  1.00  0.00    -0.103 C  
HETATM    2  C   UNL     1      -8.526   6.644  67.630  1.00  0.00    -0.121 C  
HETATM    3  C   UNL     1      -9.578   7.492  67.844  1.00  0.00    -0.143 C  
ENDROOT
BRANCH   2   4
HETATM    4  N   UNL     1      -7.634   6.631  66.541  1.00  0.00    -0.088 N  
HETATM    5  C   UNL     1      -7.813   5.744  65.468  1.00  0.00    -0.102 C  
HETATM    6  O   UNL     1      -6.969   5.447  64.635  1.00  0.00    -0.047 OA 
BRANCH   4   7
HETATM    7  C   UNL     1      -6.251   7.126  66.715  1.00  0.00    -0.039 C  
BRANCH   7   8
HETATM    8  C   UNL     1      -6.148   8.626  66.922  1.00  0.00    -0.058 A  
HETATM    9  H2  UNL     1      -5.998   7.993  64.421  1.00  0.00     0.000 HD 
HETATM   10  C   UNL     1      -5.960   9.332  68.058  1.00  0.00    -0.049 A  
HETATM   11  N   UNL     1      -6.486  10.836  65.940  1.00  0.00    -0.120 NA 
HETATM   12  N   UNL     1      -6.217  10.676  68.258  1.00  0.00    -0.050 NA 
HETATM   13  H1  UNL     1      -6.260   9.591  63.711  1.00  0.00     0.000 HD 
HETATM   14  C   UNL     1      -7.091  12.754  67.396  1.00  0.00    -0.134 C  
HETATM   15  N   UNL     1      -6.171   8.992  64.533  1.00  0.00    -0.070 NA 
HETATM   16  C   UNL     1      -6.538  11.366  67.204  1.00  0.00    -0.118 A  
HETATM   17  C   UNL     1      -6.277   9.502  65.718  1.00  0.00    -0.064 A  
ENDBRANCH   7   8
ENDBRANCH   4   7
ENDBRANCH   2   4
BRANCH   3  18
HETATM   18  C   UNL     1     -10.203   7.624  69.302  1.00  0.00    -0.210 C  
BRANCH  18  19
HETATM   19  C   UNL     1      -9.339   8.383  70.383  1.00  0.00    -0.161 C  
BRANCH  19  20
HETATM   20  O   UNL     1      -9.850   8.339  71.769  1.00  0.00    -0.181 OA 
HETATM   21  O   UNL     1     -11.984   8.910  71.995  1.00  0.00    -0.341 OA 
HETATM   22  O   UNL     1     -10.897   7.309  73.475  1.00  0.00    -0.375 OA 
HETATM   23  P   UNL     1     -11.312   7.424  71.897  1.00  0.00    -0.284 P  
HETATM   24  O   UNL     1     -12.621   6.605  72.012  1.00  0.00    -0.317 OA 
ENDBRANCH  19  20
ENDBRANCH  18  19
ENDBRANCH   3  18
BRANCH   3  25
HETATM   25  S   UNL     1     -10.354   8.561  66.583  1.00  0.00    -0.130 SA 
BRANCH  25  26
HETATM   26  C   UNL     1     -10.219  10.327  66.964  1.00  0.00    -0.228 C  
HETATM   27  O   UNL     1      -9.815  10.708  68.056  1.00  0.00    -0.156 OA 
BRANCH  26  28
HETATM   28  C   UNL     1     -10.705  11.380  65.941  1.00  0.00    -0.311 A  
HETATM   29  C   UNL     1     -12.212  13.304  65.463  1.00  0.00    -0.506 A  
HETATM   30  C   UNL     1     -11.728  12.291  66.321  1.00  0.00    -0.431 A  
HETATM   31  C   UNL     1     -10.177  11.581  64.663  1.00  0.00    -0.334 A  
HETATM   32  C   UNL     1     -11.663  13.453  64.195  1.00  0.00    -0.466 A  
HETATM   33  C   UNL     1     -10.639  12.592  63.801  1.00  0.00    -0.471 A  
ENDBRANCH  26  28
ENDBRANCH  25  26
ENDBRANCH   3  25
TORSDOF 9
ENDMDL
MODEL      297
REMARK 921   NORMALIZED FREE ENERGY PREDICTED BY IDOCK:   -4.25 KCAL/MOL
REMARK 922        TOTAL FREE ENERGY PREDICTED BY IDOCK:   -7.99 KCAL/MOL
REMARK 923 INTER-LIGAND FREE ENERGY PREDICTED BY IDOCK:   -7.42 KCAL/MOL
REMARK 924 INTRA-LIGAND FREE ENERGY PREDICTED BY IDOCK:   -0.57 KCAL/MOL
REMARK 927      BINDING AFFINITY PREDICTED BY RF-SCORE:    0.00 PKD
ROOT
HETATM    1  C   UNL     1      -9.512  13.443  65.429  1.00  0.00     0.234 C  
HETATM    2  C   UNL     1      -9.927  14.470  66.496  1.00  0.00    -0.280 C  
HETATM    3  C   UNL     1     -11.004  14.195  67.292  1.00  0.00    -0.297 C  
ENDROOT
BRANCH   2   4
HETATM    4  N   UNL     1      -9.072  15.587  66.554  1.00  0.00    -0.276 N  
HETATM    5  C   UNL     1      -9.145  16.606  65.590  1.00  0.00     0.249 C  
HETATM    6  O   UNL     1      -8.289  17.452  65.374  1.00  0.00     0.063 OA 
BRANCH   4   7
HETATM    7  C   UNL     1      -7.774  15.488  67.256  1.00  0.00    -0.212 C  
BRANCH   7   8
HETATM    8  C   UNL     1      -7.502  16.624  68.224  1.00  0.00    -0.182 A  
HETATM    9  H2  UNL     1      -6.425  14.413  69.016  1.00  0.00     0.000 HD 
HETATM   10  C   UNL     1      -8.057  17.852  68.295  1.00  0.00    -0.293 A  
HETATM   11  N   UNL     1      -6.008  17.511  69.939  1.00  0.00    -0.245 NA 
HETATM   12  N   UNL     1      -7.553  18.961  68.949  1.00  0.00    -0.324 NA 
HETATM   13  H1  UNL     1      -5.332  15.058  70.247  1.00  0.00     0.000 HD 
HETATM   14  C   UNL     1      -5.753  19.967  70.205  1.00  0.00    -0.324 C  
HETATM   15  N   UNL     1      -6.043  15.207  69.531  1.00  0.00    -0.112 NA 
HETATM   16  C   UNL     1      -6.505  18.766  69.694  1.00  0.00    -0.188 A  
HETATM   17  C   UNL     1      -6.460  16.405  69.274  1.00  0.00    -0.197 A  
ENDBRANCH   7   8
ENDBRANCH   4   7
ENDBRANCH   2   4
BRANCH   3  18
HETATM   18  C   UNL     1     -11.584  12.714  67.353  1.00  0.00    -0.421 C  
BRANCH  18  19
HETATM   19  C   UNL     1     -11.698  12.050  68.781  1.00  0.00    -0.321 C  
BRANCH  19  20
HETATM   20  O   UNL     1     -10.551  11.219  69.202  1.00  0.00    -0.218 OA 
HETATM   21  O   UNL     1     -11.069   9.138  69.779  1.00  0.00    -0.215 OA 
HETATM   22  O   UNL     1      -8.919   9.723  68.795  1.00  0.00    -0.126 OA 
HETATM   23  P   UNL     1     -10.495   9.708  68.360  1.00  0.00    -0.216 P  
HETATM   24  O   UNL     1     -10.445   8.357  67.607  1.00  0.00    -0.243 OA 
ENDBRANCH  19  20
ENDBRANCH  18  19
ENDBRANCH   3  18
BRANCH   3  25
HETATM   25  S   UNL     1     -11.865  15.395  68.365  1.00  0.00    -0.142 SA 
BRANCH  25  26
HETATM   26  C   UNL     1     -11.147  15.513  70.025  1.00  0.00    -0.315 C  
HETATM   27  O   UNL     1      -9.937  15.421  70.196  1.00  0.00    -0.258 OA 
BRANCH  26  28
HETATM   28  C   UNL     1     -12.067  15.640  71.261  1.00  0.00    -0.463 A  
HETATM   29  C   UNL     1     -14.319  15.254  72.250  1.00  0.00    -0.586 A  
HETATM   30  C   UNL     1     -13.417  15.205  71.164  1.00  0.00    -0.533 A  
HETATM   31  C   UNL     1     -11.677  16.087  72.526  1.00  0.00    -0.547 A  
HETATM   32  C   UNL     1     -13.886  15.722  73.485  1.00  0.00     0.248 A  
HETATM   33  C   UNL     1     -12.560  16.132  73.621  1.00  0.00    -0.684 A  
ENDBRANCH  26  28
ENDBRANCH  25  26
ENDBRANCH   3  25
TORSDOF 9
ENDMDL
MODEL      298
REMARK 921   NORMALIZED FREE ENERGY PREDICTED BY IDOCK:   -4.24 KCAL/MOL
REMARK 922        TOTAL FREE ENERGY PREDICTED BY IDOCK:   -7.99 KCAL/MOL
REMARK 923 INTER-LIGAND FREE ENERGY PREDICTED BY IDOCK:   -7.33 KCAL/MOL
REMARK 924 INTRA-LIGAND FREE ENERGY PREDICTED BY IDOCK:   -0.66 KCAL/MOL
REMARK 927      BINDING AFFINITY PREDICTED BY RF-SCORE:    0.00 PKD
ROOT
HETATM    1  C   UNL     1     -12.027  15.147  64.698  1.00  0.00    -0.301 C  
HETATM    2  C   UNL     1     -11.010  14.092  65.163  1.00  0.00    -0.353 C  
HETATM    3  C   UNL     1     -10.068  14.447  66.088  1.00  0.00    -0.309 C  
ENDROOT
BRANCH   2   4
HETATM    4  N   UNL     1     -11.223  12.824  64.588  1.00  0.00    -0.305 N  
HETATM    5  C   UNL     1     -12.062  12.666  63.473  1.00  0.00    -0.561 C  
HETATM    6  O   UNL     1     -12.540  11.612  63.080  1.00  0.00    -0.453 OA 
BRANCH   4   7
HETATM    7  C   UNL     1     -11.034  11.604  65.403  1.00  0.00    -0.270 C  
BRANCH   7   8
HETATM    8  C   UNL     1      -9.855  10.749  64.978  1.00  0.00    -0.346 A  
HETATM    9  H2  UNL     1     -10.984   9.828  67.111  1.00  0.00     0.000 HD 
HETATM   10  C   UNL     1      -8.885  11.001  64.073  1.00  0.00     0.029 A  
HETATM   11  N   UNL     1      -8.835   8.531  65.032  1.00  0.00    -0.095 NA 
HETATM   12  N   UNL     1      -8.047  10.082  63.468  1.00  0.00    -0.153 NA 
HETATM   13  H1  UNL     1     -10.258   8.216  67.140  1.00  0.00     0.000 HD 
HETATM   14  C   UNL     1      -7.426   7.773  63.133  1.00  0.00    -0.115 C  
HETATM   15  N   UNL     1     -10.362   9.131  66.701  1.00  0.00    -0.247 NA 
HETATM   16  C   UNL     1      -8.101   8.865  63.922  1.00  0.00    -0.163 A  
HETATM   17  C   UNL     1      -9.702   9.408  65.622  1.00  0.00    -0.266 A  
ENDBRANCH   7   8
ENDBRANCH   4   7
ENDBRANCH   2   4
BRANCH   3  18
HETATM   18  C   UNL     1     -10.243  15.795  66.917  1.00  0.00    -0.280 C  
BRANCH  18  19
HETATM   19  C   UNL     1      -9.051  16.209  67.865  1.00  0.00    -0.192 C  
BRANCH  19  20
HETATM   20  O   UNL     1      -8.777  17.658  67.966  1.00  0.00    -0.240 OA 
HETATM   21  O   UNL     1      -8.826  18.754  66.035  1.00  0.00    -0.479 OA 
HETATM   22  O   UNL     1      -9.438  19.803  68.147  1.00  0.00    -0.344 OA 
HETATM   23  P   UNL     1      -9.987  18.608  67.174  1.00  0.00    -0.376 P  
HETATM   24  O   UNL     1     -11.070  19.458  66.466  1.00  0.00    -0.273 OA 
ENDBRANCH  19  20
ENDBRANCH  18  19
ENDBRANCH   3  18
BRANCH   3  25
HETATM   25  S   UNL     1      -8.581  13.477  66.515  1.00  0.00     0.365 SA 
BRANCH  25  26
HETATM   26  C   UNL     1      -8.626  12.803  68.196  1.00  0.00    -0.185 C  
HETATM   27  O   UNL     1      -7.596  12.654  68.844  1.00  0.00    -0.062 OA 
BRANCH  26  28
HETATM   28  C   UNL     1      -9.963  12.317  68.802  1.00  0.00    -0.048 A  
HETATM   29  C   UNL     1     -11.270  10.428  69.762  1.00  0.00    -0.353 A  
HETATM   30  C   UNL     1     -10.097  10.952  69.174  1.00  0.00    -0.198 A  
HETATM   31  C   UNL     1     -11.067  13.123  69.094  1.00  0.00    -0.248 A  
HETATM   32  C   UNL     1     -12.346  11.269  70.019  1.00  0.00    -0.330 A  
HETATM   33  C   UNL     1     -12.238  12.620  69.690  1.00  0.00    -0.177 A  
ENDBRANCH  26  28
ENDBRANCH  25  26
ENDBRANCH   3  25
TORSDOF 9
ENDMDL
MODEL      299
REMARK 921   NORMALIZED FREE ENERGY PREDICTED BY IDOCK:   -4.24 KCAL/MOL
REMARK 922        TOTAL FREE ENERGY PREDICTED BY IDOCK:   -7.98 KCAL/MOL
REMARK 923 INTER-LIGAND FREE ENERGY PREDICTED BY IDOCK:   -6.82 KCAL/MOL
REMARK 924 INTRA-LIGAND FREE ENERGY PREDICTED BY IDOCK:   -1.16 KCAL/MOL
REMARK 927      BINDING AFFINITY PREDICTED BY RF-SCORE:    0.00 PKD
ROOT
HETATM    1  C   UNL     1      -7.732  10.054  63.196  1.00  0.00    -0.145 C  
HETATM    2  C   UNL     1      -8.104   9.123  64.362  1.00  0.00    -0.145 C  
HETATM    3  C   UNL     1      -9.272   9.347  65.038  1.00  0.00    -0.218 C  
ENDROOT
BRANCH   2   4
HETATM    4  N   UNL     1      -7.179   8.079  64.557  1.00  0.00    -0.080 N  
HETATM    5  C   UNL     1      -7.599   6.741  64.620  1.00  0.00    -0.105 C  
HETATM    6  O   UNL     1      -6.949   5.805  65.063  1.00  0.00    -0.056 OA 
BRANCH   4   7
HETATM    7  C   UNL     1      -5.883   8.355  65.212  1.00  0.00    -0.044 C  
BRANCH   7   8
HETATM    8  C   UNL     1      -5.988   8.662  66.695  1.00  0.00    -0.053 A  
HETATM    9  H2  UNL     1      -5.590  10.801  65.302  1.00  0.00     0.000 HD 
HETATM   10  C   UNL     1      -5.970   7.826  67.755  1.00  0.00    -0.041 A  
HETATM   11  N   UNL     1      -6.542  10.336  68.385  1.00  0.00    -0.056 NA 
HETATM   12  N   UNL     1      -6.410   8.093  69.038  1.00  0.00    -0.039 NA 
HETATM   13  H1  UNL     1      -6.006  12.012  66.521  1.00  0.00     0.000 HD 
HETATM   14  C   UNL     1      -7.485   9.622  70.567  1.00  0.00    -0.147 C  
HETATM   15  N   UNL     1      -5.897  11.035  66.246  1.00  0.00    -0.138 NA 
HETATM   16  C   UNL     1      -6.746   9.325  69.289  1.00  0.00    -0.049 A  
HETATM   17  C   UNL     1      -6.148  10.093  67.097  1.00  0.00    -0.051 A  
ENDBRANCH   7   8
ENDBRANCH   4   7
ENDBRANCH   2   4
BRANCH   3  18
HETATM   18  C   UNL     1     -10.374  10.311  64.413  1.00  0.00     0.070 C  
BRANCH  18  19
HETATM   19  C   UNL     1      -9.968  11.822  64.210  1.00  0.00    -0.257 C  
BRANCH  19  20
HETATM   20  O   UNL     1     -10.912  12.648  63.428  1.00  0.00    -0.428 OA 
HETATM   21  O   UNL     1     -13.046  12.069  63.630  1.00  0.00    -0.756 OA 
HETATM   22  O   UNL     1     -12.350  14.366  63.212  1.00  0.00    -0.539 OA 
HETATM   23  P   UNL     1     -12.214  13.246  64.397  1.00  0.00    -0.361 P  
HETATM   24  O   UNL     1     -13.379  13.782  65.264  1.00  0.00    -0.710 OA 
ENDBRANCH  19  20
ENDBRANCH  18  19
ENDBRANCH   3  18
BRANCH   3  25
HETATM   25  S   UNL     1      -9.734   8.597  66.637  1.00  0.00    -0.268 SA 
BRANCH  25  26
HETATM   26  C   UNL     1     -10.396   9.796  67.823  1.00  0.00    -0.225 C  
HETATM   27  O   UNL     1     -10.428  10.993  67.559  1.00  0.00    -0.190 OA 
BRANCH  26  28
HETATM   28  C   UNL     1     -10.844   9.331  69.228  1.00  0.00    -0.170 A  
HETATM   29  C   UNL     1     -11.229   7.428  70.786  1.00  0.00    -0.293 A  
HETATM   30  C   UNL     1     -10.863   7.940  69.522  1.00  0.00    -0.141 A  
HETATM   31  C   UNL     1     -11.176  10.168  70.297  1.00  0.00    -0.387 A  
HETATM   32  C   UNL     1     -11.566   8.302  71.813  1.00  0.00    -0.356 A  
HETATM   33  C   UNL     1     -11.532   9.674  71.566  1.00  0.00    -0.439 A  
ENDBRANCH  26  28
ENDBRANCH  25  26
ENDBRANCH   3  25
TORSDOF 9
ENDMDL
MODEL      300
REMARK 921   NORMALIZED FREE ENERGY PREDICTED BY IDOCK:   -4.23 KCAL/MOL
REMARK 922        TOTAL FREE ENERGY PREDICTED BY IDOCK:   -7.97 KCAL/MOL
REMARK 923 INTER-LIGAND FREE ENERGY PREDICTED BY IDOCK:   -6.56 KCAL/MOL
REMARK 924 INTRA-LIGAND FREE ENERGY PREDICTED BY IDOCK:   -1.41 KCAL/MOL
REMARK 927      BINDING AFFINITY PREDICTED BY RF-SCORE:    0.00 PKD
ROOT
HETATM    1  C   UNL     1     -11.940  12.314  67.545  1.00  0.00    -0.210 C  
HETATM    2  C   UNL     1     -11.195  12.928  66.348  1.00  0.00    -0.300 C  
HETATM    3  C   UNL     1     -10.311  13.947  66.573  1.00  0.00    -0.286 C  
ENDROOT
BRANCH   2   4
HETATM    4  N   UNL     1     -11.492  12.296  65.125  1.00  0.00    -0.333 N  
HETATM    5  C   UNL     1     -12.782  12.356  64.573  1.00  0.00    -0.314 C  
HETATM    6  O   UNL     1     -13.221  11.627  63.696  1.00  0.00    -0.425 OA 
BRANCH   4   7
HETATM    7  C   UNL     1     -10.671  11.155  64.665  1.00  0.00    -0.280 C  
BRANCH   7   8
HETATM    8  C   UNL     1     -10.177  10.254  65.783  1.00  0.00    -0.289 A  
HETATM    9  H2  UNL     1      -8.230  11.491  64.620  1.00  0.00     0.000 HD 
HETATM   10  C   UNL     1     -10.829   9.292  66.470  1.00  0.00     0.247 A  
HETATM   11  N   UNL     1      -8.418   9.838  67.423  1.00  0.00    -0.121 NA 
HETATM   12  N   UNL     1     -10.469   8.745  67.688  1.00  0.00    -0.251 NA 
HETATM   13  H1  UNL     1      -6.960  11.204  65.816  1.00  0.00     0.000 HD 
HETATM   14  C   UNL     1      -8.976   8.755  69.586  1.00  0.00    -0.145 C  
HETATM   15  N   UNL     1      -7.925  11.087  65.506  1.00  0.00     0.005 NA 
HETATM   16  C   UNL     1      -9.305   9.091  68.155  1.00  0.00    -0.142 A  
HETATM   17  C   UNL     1      -8.763  10.425  66.237  1.00  0.00    -0.153 A  
ENDBRANCH   7   8
ENDBRANCH   4   7
ENDBRANCH   2   4
BRANCH   3  18
HETATM   18  C   UNL     1      -9.807  14.242  68.055  1.00  0.00    -0.224 C  
BRANCH  18  19
HETATM   19  C   UNL     1      -8.883  13.153  68.724  1.00  0.00     0.167 C  
BRANCH  19  20
HETATM   20  O   UNL     1      -7.476  13.131  68.274  1.00  0.00    -0.109 OA 
HETATM   21  O   UNL     1      -6.010  13.901  69.754  1.00  0.00    -0.109 OA 
HETATM   22  O   UNL     1      -5.443  12.173  68.133  1.00  0.00    -0.048 OA 
HETATM   23  P   UNL     1      -6.435  12.360  69.420  1.00  0.00    -0.032 P  
HETATM   24  O   UNL     1      -5.503  11.669  70.446  1.00  0.00    -0.105 OA 
ENDBRANCH  19  20
ENDBRANCH  18  19
ENDBRANCH   3  18
BRANCH   3  25
HETATM   25  S   UNL     1      -9.591  15.031  65.293  1.00  0.00     0.253 SA 
BRANCH  25  26
HETATM   26  C   UNL     1     -10.311  16.694  65.278  1.00  0.00    -0.092 C  
HETATM   27  O   UNL     1     -11.043  17.055  64.363  1.00  0.00    -1.144 OA 
BRANCH  26  28
HETATM   28  C   UNL     1      -9.933  17.714  66.377  1.00  0.00    -0.337 A  
HETATM   29  C   UNL     1     -10.590  19.722  67.693  1.00  0.00    -0.530 A  
HETATM   30  C   UNL     1     -10.839  18.765  66.685  1.00  0.00    -0.214 A  
HETATM   31  C   UNL     1      -8.786  17.667  67.173  1.00  0.00    -0.252 A  
HETATM   32  C   UNL     1      -9.426  19.641  68.448  1.00  0.00    -0.452 A  
HETATM   33  C   UNL     1      -8.528  18.605  68.189  1.00  0.00    -0.336 A  
ENDBRANCH  26  28
ENDBRANCH  25  26
ENDBRANCH   3  25
TORSDOF 9
ENDMDL
MODEL      301
REMARK 921   NORMALIZED FREE ENERGY PREDICTED BY IDOCK:   -4.22 KCAL/MOL
REMARK 922        TOTAL FREE ENERGY PREDICTED BY IDOCK:   -7.95 KCAL/MOL
REMARK 923 INTER-LIGAND FREE ENERGY PREDICTED BY IDOCK:   -6.30 KCAL/MOL
REMARK 924 INTRA-LIGAND FREE ENERGY PREDICTED BY IDOCK:   -1.66 KCAL/MOL
REMARK 927      BINDING AFFINITY PREDICTED BY RF-SCORE:    0.00 PKD
ROOT
HETATM    1  C   UNL     1     -11.011  14.192  69.622  1.00  0.00    -0.125 C  
HETATM    2  C   UNL     1     -10.025  14.794  68.607  1.00  0.00    -0.232 C  
HETATM    3  C   UNL     1      -8.867  14.120  68.334  1.00  0.00    -0.187 C  
ENDROOT
BRANCH   2   4
HETATM    4  N   UNL     1     -10.488  15.989  68.023  1.00  0.00    -0.266 N  
HETATM    5  C   UNL     1     -10.270  17.230  68.643  1.00  0.00    -0.351 C  
HETATM    6  O   UNL     1     -10.858  18.271  68.390  1.00  0.00    -0.137 OA 
BRANCH   4   7
HETATM    7  C   UNL     1     -11.626  15.956  67.080  1.00  0.00     0.291 C  
BRANCH   7   8
HETATM    8  C   UNL     1     -11.644  14.744  66.168  1.00  0.00    -0.292 A  
HETATM    9  H2  UNL     1     -10.177  16.641  65.208  1.00  0.00     0.000 HD 
HETATM   10  C   UNL     1     -12.443  13.656  66.190  1.00  0.00    -0.395 A  
HETATM   11  N   UNL     1     -10.454  13.484  64.447  1.00  0.00    -0.417 NA 
HETATM   12  N   UNL     1     -12.212  12.436  65.581  1.00  0.00    -0.626 NA 
HETATM   13  H1  UNL     1      -9.305  15.725  63.973  1.00  0.00     0.000 HD 
HETATM   14  C   UNL     1     -10.724  11.019  64.312  1.00  0.00    -0.348 C  
HETATM   15  N   UNL     1      -9.994  15.762  64.725  1.00  0.00    -0.085 NA 
HETATM   16  C   UNL     1     -11.186  12.374  64.784  1.00  0.00    -0.310 A  
HETATM   17  C   UNL     1     -10.635  14.690  65.066  1.00  0.00    -0.439 A  
ENDBRANCH   7   8
ENDBRANCH   4   7
ENDBRANCH   2   4
BRANCH   3  18
HETATM   18  C   UNL     1      -8.714  12.599  68.779  1.00  0.00     0.169 C  
BRANCH  18  19
HETATM   19  C   UNL     1      -9.143  11.502  67.728  1.00  0.00    -0.165 C  
BRANCH  19  20
HETATM   20  O   UNL     1      -8.103  10.523  67.352  1.00  0.00    -0.110 OA 
HETATM   21  O   UNL     1      -7.229  10.819  65.331  1.00  0.00    -0.061 OA 
HETATM   22  O   UNL     1      -5.957   9.865  67.176  1.00  0.00    -0.051 OA 
HETATM   23  P   UNL     1      -6.658  11.290  66.787  1.00  0.00    -0.108 P  
HETATM   24  O   UNL     1      -5.366  11.976  66.282  1.00  0.00    -0.264 OA 
ENDBRANCH  19  20
ENDBRANCH  18  19
ENDBRANCH   3  18
BRANCH   3  25
HETATM   25  S   UNL     1      -7.426  14.802  67.445  1.00  0.00    -0.152 SA 
BRANCH  25  26
HETATM   26  C   UNL     1      -6.395  15.880  68.474  1.00  0.00    -0.111 C  
HETATM   27  O   UNL     1      -5.712  15.421  69.382  1.00  0.00    -0.098 OA 
BRANCH  26  28
HETATM   28  C   UNL     1      -6.439  17.413  68.278  1.00  0.00    -0.172 A  
HETATM   29  C   UNL     1      -6.214  19.337  66.713  1.00  0.00    -0.181 A  
HETATM   30  C   UNL     1      -6.166  17.953  66.991  1.00  0.00    -0.182 A  
HETATM   31  C   UNL     1      -6.800  18.351  69.249  1.00  0.00    -0.221 A  
HETATM   32  C   UNL     1      -6.563  20.230  67.718  1.00  0.00    -0.298 A  
HETATM   33  C   UNL     1      -6.863  19.731  68.986  1.00  0.00    -0.372 A  
ENDBRANCH  26  28
ENDBRANCH  25  26
ENDBRANCH   3  25
TORSDOF 9
ENDMDL
MODEL      302
REMARK 921   NORMALIZED FREE ENERGY PREDICTED BY IDOCK:   -4.22 KCAL/MOL
REMARK 922        TOTAL FREE ENERGY PREDICTED BY IDOCK:   -7.94 KCAL/MOL
REMARK 923 INTER-LIGAND FREE ENERGY PREDICTED BY IDOCK:   -6.74 KCAL/MOL
REMARK 924 INTRA-LIGAND FREE ENERGY PREDICTED BY IDOCK:   -1.20 KCAL/MOL
REMARK 927      BINDING AFFINITY PREDICTED BY RF-SCORE:    0.00 PKD
ROOT
HETATM    1  C   UNL     1      -7.193   9.500  64.928  1.00  0.00    -0.111 C  
HETATM    2  C   UNL     1      -7.815   9.274  66.317  1.00  0.00    -0.103 C  
HETATM    3  C   UNL     1      -8.529  10.289  66.892  1.00  0.00    -0.126 C  
ENDROOT
BRANCH   2   4
HETATM    4  N   UNL     1      -7.604   7.974  66.816  1.00  0.00    -0.093 N  
HETATM    5  C   UNL     1      -6.382   7.311  66.616  1.00  0.00    -0.051 C  
HETATM    6  O   UNL     1      -6.190   6.111  66.743  1.00  0.00    -0.033 OA 
BRANCH   4   7
HETATM    7  C   UNL     1      -8.759   7.087  67.074  1.00  0.00    -0.123 C  
BRANCH   7   8
HETATM    8  C   UNL     1      -8.781   6.484  68.467  1.00  0.00    -0.122 A  
HETATM    9  H2  UNL     1     -10.311   5.187  66.839  1.00  0.00     0.000 HD 
HETATM   10  C   UNL     1      -8.311   6.980  69.631  1.00  0.00    -0.133 A  
HETATM   11  N   UNL     1      -9.149   4.472  69.799  1.00  0.00    -0.099 NA 
HETATM   12  N   UNL     1      -8.037   6.276  70.789  1.00  0.00    -0.118 NA 
HETATM   13  H1  UNL     1     -10.564   3.723  67.797  1.00  0.00     0.000 HD 
HETATM   14  C   UNL     1      -7.893   4.145  71.916  1.00  0.00    -0.080 C  
HETATM   15  N   UNL     1     -10.144   4.647  67.688  1.00  0.00    -0.099 NA 
HETATM   16  C   UNL     1      -8.404   5.028  70.807  1.00  0.00    -0.107 A  
HETATM   17  C   UNL     1      -9.398   5.132  68.627  1.00  0.00    -0.125 A  
ENDBRANCH   7   8
ENDBRANCH   4   7
ENDBRANCH   2   4
BRANCH   3  18
HETATM   18  C   UNL     1      -9.001  11.524  66.005  1.00  0.00    -0.181 C  
BRANCH  18  19
HETATM   19  C   UNL     1      -8.876  12.957  66.654  1.00  0.00    -0.091 C  
BRANCH  19  20
HETATM   20  O   UNL     1      -9.712  14.016  66.052  1.00  0.00    -0.294 OA 
HETATM   21  O   UNL     1     -11.876  13.887  66.538  1.00  0.00    -0.370 OA 
HETATM   22  O   UNL     1     -10.757  16.010  66.119  1.00  0.00    -0.305 OA 
HETATM   23  P   UNL     1     -10.712  14.805  67.224  1.00  0.00    -0.307 P  
HETATM   24  O   UNL     1     -11.606  15.510  68.272  1.00  0.00    -0.357 OA 
ENDBRANCH  19  20
ENDBRANCH  18  19
ENDBRANCH   3  18
BRANCH   3  25
HETATM   25  S   UNL     1      -9.051  10.362  68.640  1.00  0.00    -0.165 SA 
BRANCH  25  26
HETATM   26  C   UNL     1     -10.850  10.399  68.848  1.00  0.00    -0.236 C  
HETATM   27  O   UNL     1     -11.573  10.902  67.995  1.00  0.00    -0.464 OA 
BRANCH  26  28
HETATM   28  C   UNL     1     -11.491   9.876  70.154  1.00  0.00    -0.309 A  
HETATM   29  C   UNL     1     -13.271  10.147  71.874  1.00  0.00    -0.557 A  
HETATM   30  C   UNL     1     -12.605  10.570  70.703  1.00  0.00    -0.457 A  
HETATM   31  C   UNL     1     -11.121   8.715  70.837  1.00  0.00    -0.310 A  
HETATM   32  C   UNL     1     -12.854   8.992  72.525  1.00  0.00    -0.408 A  
HETATM   33  C   UNL     1     -11.780   8.273  71.998  1.00  0.00    -0.407 A  
ENDBRANCH  26  28
ENDBRANCH  25  26
ENDBRANCH   3  25
TORSDOF 9
ENDMDL
MODEL      303
REMARK 921   NORMALIZED FREE ENERGY PREDICTED BY IDOCK:   -4.21 KCAL/MOL
REMARK 922        TOTAL FREE ENERGY PREDICTED BY IDOCK:   -7.94 KCAL/MOL
REMARK 923 INTER-LIGAND FREE ENERGY PREDICTED BY IDOCK:   -6.04 KCAL/MOL
REMARK 924 INTRA-LIGAND FREE ENERGY PREDICTED BY IDOCK:   -1.90 KCAL/MOL
REMARK 927      BINDING AFFINITY PREDICTED BY RF-SCORE:    0.00 PKD
ROOT
HETATM    1  C   UNL     1      -8.202   9.736  69.776  1.00  0.00    -0.182 C  
HETATM    2  C   UNL     1      -8.370   9.327  68.303  1.00  0.00    -0.120 C  
HETATM    3  C   UNL     1      -9.193  10.069  67.503  1.00  0.00    -0.137 C  
ENDROOT
BRANCH   2   4
HETATM    4  N   UNL     1      -7.577   8.221  67.940  1.00  0.00    -0.100 N  
HETATM    5  C   UNL     1      -6.307   8.398  67.369  1.00  0.00    -0.057 C  
HETATM    6  O   UNL     1      -5.669   7.549  66.763  1.00  0.00    -0.026 OA 
BRANCH   4   7
HETATM    7  C   UNL     1      -8.216   6.920  67.646  1.00  0.00    -0.117 C  
BRANCH   7   8
HETATM    8  C   UNL     1      -9.265   6.499  68.659  1.00  0.00    -0.127 A  
HETATM    9  H2  UNL     1      -6.893   5.773  69.381  1.00  0.00     0.000 HD 
HETATM   10  C   UNL     1     -10.611   6.486  68.556  1.00  0.00    -0.244 A  
HETATM   11  N   UNL     1      -9.721   5.942  70.992  1.00  0.00    -0.169 NA 
HETATM   12  N   UNL     1     -11.528   6.433  69.590  1.00  0.00    -0.420 NA 
HETATM   13  H1  UNL     1      -7.221   5.385  71.074  1.00  0.00     0.000 HD 
HETATM   14  C   UNL     1     -11.950   6.438  71.967  1.00  0.00    -0.375 C  
HETATM   15  N   UNL     1      -7.546   5.706  70.162  1.00  0.00    -0.083 NA 
HETATM   16  C   UNL     1     -11.045   6.232  70.781  1.00  0.00    -0.316 A  
HETATM   17  C   UNL     1      -8.788   6.028  69.996  1.00  0.00    -0.139 A  
ENDBRANCH   7   8
ENDBRANCH   4   7
ENDBRANCH   2   4
BRANCH   3  18
HETATM   18  C   UNL     1      -9.674  11.509  67.983  1.00  0.00    -0.187 C  
BRANCH  18  19
HETATM   19  C   UNL     1      -9.251  12.739  67.089  1.00  0.00    -0.219 C  
BRANCH  19  20
HETATM   20  O   UNL     1     -10.313  13.724  66.798  1.00  0.00    -0.266 OA 
HETATM   21  O   UNL     1     -10.697  14.071  64.638  1.00  0.00    -0.407 OA 
HETATM   22  O   UNL     1     -12.444  14.276  66.324  1.00  0.00    -0.445 OA 
HETATM   23  P   UNL     1     -11.491  13.107  65.691  1.00  0.00    -0.355 P  
HETATM   24  O   UNL     1     -12.545  12.555  64.701  1.00  0.00    -0.540 OA 
ENDBRANCH  19  20
ENDBRANCH  18  19
ENDBRANCH   3  18
BRANCH   3  25
HETATM   25  S   UNL     1      -9.798   9.576  65.852  1.00  0.00    -0.261 SA 
BRANCH  25  26
HETATM   26  C   UNL     1      -8.689  10.072  64.508  1.00  0.00    -0.195 C  
HETATM   27  O   UNL     1      -8.840  11.141  63.927  1.00  0.00    -0.057 OA 
BRANCH  26  28
HETATM   28  C   UNL     1      -7.590   9.104  64.011  1.00  0.00    -0.113 A  
HETATM   29  C   UNL     1      -6.954   6.766  63.438  1.00  0.00    -0.056 A  
HETATM   30  C   UNL     1      -7.886   7.717  63.910  1.00  0.00    -0.122 A  
HETATM   31  C   UNL     1      -6.316   9.472  63.572  1.00  0.00    -0.102 A  
HETATM   32  C   UNL     1      -5.694   7.182  63.026  1.00  0.00    -0.041 A  
HETATM   33  C   UNL     1      -5.380   8.540  63.089  1.00  0.00    -0.064 A  
ENDBRANCH  26  28
ENDBRANCH  25  26
ENDBRANCH   3  25
TORSDOF 9
ENDMDL
MODEL      304
REMARK 921   NORMALIZED FREE ENERGY PREDICTED BY IDOCK:   -4.21 KCAL/MOL
REMARK 922        TOTAL FREE ENERGY PREDICTED BY IDOCK:   -7.93 KCAL/MOL
REMARK 923 INTER-LIGAND FREE ENERGY PREDICTED BY IDOCK:   -6.12 KCAL/MOL
REMARK 924 INTRA-LIGAND FREE ENERGY PREDICTED BY IDOCK:   -1.81 KCAL/MOL
REMARK 927      BINDING AFFINITY PREDICTED BY RF-SCORE:    0.00 PKD
ROOT
HETATM    1  C   UNL     1      -9.785   4.096  67.702  1.00  0.00    -0.176 C  
HETATM    2  C   UNL     1      -9.034   5.435  67.797  1.00  0.00    -0.108 C  
HETATM    3  C   UNL     1      -9.714   6.545  68.216  1.00  0.00    -0.131 C  
ENDROOT
BRANCH   2   4
HETATM    4  N   UNL     1      -7.666   5.328  67.477  1.00  0.00    -0.095 N  
HETATM    5  C   UNL     1      -7.234   5.320  66.141  1.00  0.00    -0.073 C  
HETATM    6  O   UNL     1      -6.138   4.950  65.745  1.00  0.00    -0.028 OA 
BRANCH   4   7
HETATM    7  C   UNL     1      -6.730   4.707  68.438  1.00  0.00    -0.050 C  
BRANCH   7   8
HETATM    8  C   UNL     1      -6.583   5.467  69.744  1.00  0.00    -0.046 A  
HETATM    9  H2  UNL     1      -8.279   3.529  69.951  1.00  0.00     0.000 HD 
HETATM   10  C   UNL     1      -5.985   6.651  69.992  1.00  0.00    -0.023 A  
HETATM   11  N   UNL     1      -6.771   5.373  72.176  1.00  0.00    -0.059 NA 
HETATM   12  N   UNL     1      -5.569   7.137  71.218  1.00  0.00    -0.031 NA 
HETATM   13  H1  UNL     1      -8.403   3.452  71.713  1.00  0.00     0.000 HD 
HETATM   14  C   UNL     1      -5.272   6.763  73.585  1.00  0.00    -0.042 C  
HETATM   15  N   UNL     1      -8.008   3.874  70.872  1.00  0.00    -0.058 NA 
HETATM   16  C   UNL     1      -5.918   6.444  72.262  1.00  0.00    -0.038 A  
HETATM   17  C   UNL     1      -7.162   4.848  70.975  1.00  0.00    -0.060 A  
ENDBRANCH   7   8
ENDBRANCH   4   7
ENDBRANCH   2   4
BRANCH   3  18
HETATM   18  C   UNL     1     -11.133   6.383  68.921  1.00  0.00    -0.420 C  
BRANCH  18  19
HETATM   19  C   UNL     1     -11.130   6.114  70.476  1.00  0.00    -0.337 C  
BRANCH  19  20
HETATM   20  O   UNL     1     -12.090   6.906  71.272  1.00  0.00    -0.335 OA 
HETATM   21  O   UNL     1     -11.173   8.179  72.844  1.00  0.00    -0.381 OA 
HETATM   22  O   UNL     1     -13.238   8.794  71.707  1.00  0.00    -0.330 OA 
HETATM   23  P   UNL     1     -11.659   8.580  71.337  1.00  0.00    -0.325 P  
HETATM   24  O   UNL     1     -11.274  10.078  71.396  1.00  0.00    -0.306 OA 
ENDBRANCH  19  20
ENDBRANCH  18  19
ENDBRANCH   3  18
BRANCH   3  25
HETATM   25  S   UNL     1      -9.125   8.267  68.076  1.00  0.00    -0.136 SA 
BRANCH  25  26
HETATM   26  C   UNL     1      -9.541   9.038  66.490  1.00  0.00    -0.223 C  
HETATM   27  O   UNL     1      -9.147   8.558  65.433  1.00  0.00    -0.152 OA 
BRANCH  26  28
HETATM   28  C   UNL     1     -10.326  10.370  66.457  1.00  0.00    -0.287 A  
HETATM   29  C   UNL     1     -11.632  12.069  67.724  1.00  0.00    -0.400 A  
HETATM   30  C   UNL     1     -10.924  10.849  67.654  1.00  0.00    -0.350 A  
HETATM   31  C   UNL     1     -10.452  11.215  65.351  1.00  0.00    -0.321 A  
HETATM   32  C   UNL     1     -11.743  12.867  66.591  1.00  0.00    -0.452 A  
HETATM   33  C   UNL     1     -11.144  12.439  65.406  1.00  0.00    -0.344 A  
ENDBRANCH  26  28
ENDBRANCH  25  26
ENDBRANCH   3  25
TORSDOF 9
ENDMDL
MODEL      305
REMARK 921   NORMALIZED FREE ENERGY PREDICTED BY IDOCK:   -4.20 KCAL/MOL
REMARK 922        TOTAL FREE ENERGY PREDICTED BY IDOCK:   -7.92 KCAL/MOL
REMARK 923 INTER-LIGAND FREE ENERGY PREDICTED BY IDOCK:   -7.91 KCAL/MOL
REMARK 924 INTRA-LIGAND FREE ENERGY PREDICTED BY IDOCK:   -0.01 KCAL/MOL
REMARK 927      BINDING AFFINITY PREDICTED BY RF-SCORE:    0.00 PKD
ROOT
HETATM    1  C   UNL     1      -8.995   8.161  65.880  1.00  0.00    -0.195 C  
HETATM    2  C   UNL     1      -9.623   8.936  67.051  1.00  0.00    -0.176 C  
HETATM    3  C   UNL     1      -9.356  10.271  67.177  1.00  0.00    -0.153 C  
ENDROOT
BRANCH   2   4
HETATM    4  N   UNL     1     -10.474   8.145  67.847  1.00  0.00    -0.217 N  
HETATM    5  C   UNL     1     -10.475   8.265  69.246  1.00  0.00    -0.210 C  
HETATM    6  O   UNL     1     -10.941   7.455  70.034  1.00  0.00    -0.257 OA 
BRANCH   4   7
HETATM    7  C   UNL     1     -10.974   6.852  67.333  1.00  0.00    -0.304 C  
BRANCH   7   8
HETATM    8  C   UNL     1      -9.968   5.719  67.415  1.00  0.00    -0.172 A  
HETATM    9  H2  UNL     1     -11.519   5.474  65.363  1.00  0.00     0.000 HD 
HETATM   10  C   UNL     1      -9.149   5.360  68.427  1.00  0.00    -0.109 A  
HETATM   11  N   UNL     1      -8.713   4.029  66.178  1.00  0.00    -0.114 NA 
HETATM   12  N   UNL     1      -8.022   4.563  68.348  1.00  0.00    -0.079 NA 
HETATM   13  H1  UNL     1     -10.602   4.262  64.461  1.00  0.00     0.000 HD 
HETATM   14  C   UNL     1      -6.467   3.330  66.972  1.00  0.00    -0.037 C  
HETATM   15  N   UNL     1     -10.708   4.861  65.280  1.00  0.00     0.039 NA 
HETATM   16  C   UNL     1      -7.806   3.980  67.205  1.00  0.00    -0.092 A  
HETATM   17  C   UNL     1      -9.813   4.841  66.214  1.00  0.00    -0.220 A  
ENDBRANCH   7   8
ENDBRANCH   4   7
ENDBRANCH   2   4
BRANCH   3  18
HETATM   18  C   UNL     1      -8.712  11.067  65.958  1.00  0.00    -0.192 C  
BRANCH  18  19
HETATM   19  C   UNL     1      -9.399  12.428  65.552  1.00  0.00     0.118 C  
BRANCH  19  20
HETATM   20  O   UNL     1     -10.425  12.346  64.492  1.00  0.00    -0.293 OA 
HETATM   21  O   UNL     1     -12.482  11.919  65.215  1.00  0.00    -0.302 OA 
HETATM   22  O   UNL     1     -12.048  13.244  63.216  1.00  0.00    -0.559 OA 
HETATM   23  P   UNL     1     -11.793  13.350  64.828  1.00  0.00    -0.431 P  
HETATM   24  O   UNL     1     -13.018  14.248  65.129  1.00  0.00    -0.692 OA 
ENDBRANCH  19  20
ENDBRANCH  18  19
ENDBRANCH   3  18
BRANCH   3  25
HETATM   25  S   UNL     1      -9.706  11.289  68.652  1.00  0.00    -0.170 SA 
BRANCH  25  26
HETATM   26  C   UNL     1     -11.402  11.925  68.694  1.00  0.00    -0.276 C  
HETATM   27  O   UNL     1     -12.320  11.309  68.166  1.00  0.00    -0.500 OA 
BRANCH  26  28
HETATM   28  C   UNL     1     -11.696  13.308  69.320  1.00  0.00    -0.380 A  
HETATM   29  C   UNL     1     -12.552  14.587  71.277  1.00  0.00    -0.415 A  
HETATM   30  C   UNL     1     -12.278  13.370  70.616  1.00  0.00    -0.427 A  
HETATM   31  C   UNL     1     -11.375  14.545  68.755  1.00  0.00    -0.298 A  
HETATM   32  C   UNL     1     -12.228  15.792  70.665  1.00  0.00    -0.422 A  
HETATM   33  C   UNL     1     -11.632  15.766  69.404  1.00  0.00    -0.371 A  
ENDBRANCH  26  28
ENDBRANCH  25  26
ENDBRANCH   3  25
TORSDOF 9
ENDMDL
MODEL      306
REMARK 921   NORMALIZED FREE ENERGY PREDICTED BY IDOCK:   -4.20 KCAL/MOL
REMARK 922        TOTAL FREE ENERGY PREDICTED BY IDOCK:   -7.91 KCAL/MOL
REMARK 923 INTER-LIGAND FREE ENERGY PREDICTED BY IDOCK:   -6.29 KCAL/MOL
REMARK 924 INTRA-LIGAND FREE ENERGY PREDICTED BY IDOCK:   -1.62 KCAL/MOL
REMARK 927      BINDING AFFINITY PREDICTED BY RF-SCORE:    0.00 PKD
ROOT
HETATM    1  C   UNL     1     -10.627   4.585  65.828  1.00  0.00    -0.226 C  
HETATM    2  C   UNL     1      -9.549   5.621  66.188  1.00  0.00    -0.120 C  
HETATM    3  C   UNL     1      -9.856   6.608  67.083  1.00  0.00    -0.151 C  
ENDROOT
BRANCH   2   4
HETATM    4  N   UNL     1      -8.311   5.376  65.562  1.00  0.00    -0.127 N  
HETATM    5  C   UNL     1      -7.970   6.013  64.358  1.00  0.00    -0.123 C  
HETATM    6  O   UNL     1      -7.079   5.671  63.594  1.00  0.00    -0.047 OA 
BRANCH   4   7
HETATM    7  C   UNL     1      -7.590   4.111  65.823  1.00  0.00    -0.085 C  
BRANCH   7   8
HETATM    8  C   UNL     1      -7.241   3.883  67.282  1.00  0.00    -0.067 A  
HETATM    9  H2  UNL     1      -9.061   2.241  66.466  1.00  0.00     0.000 HD 
HETATM   10  C   UNL     1      -6.524   4.650  68.130  1.00  0.00    -0.041 A  
HETATM   11  N   UNL     1      -7.176   2.282  69.124  1.00  0.00    -0.043 NA 
HETATM   12  N   UNL     1      -5.941   4.259  69.321  1.00  0.00    -0.022 NA 
HETATM   13  H1  UNL     1      -9.002   1.074  67.792  1.00  0.00     0.000 HD 
HETATM   14  C   UNL     1      -5.424   2.483  70.873  1.00  0.00    -0.012 C  
HETATM   15  N   UNL     1      -8.665   1.931  67.353  1.00  0.00    -0.100 NA 
HETATM   16  C   UNL     1      -6.233   3.063  69.742  1.00  0.00    -0.028 A  
HETATM   17  C   UNL     1      -7.735   2.627  67.925  1.00  0.00    -0.059 A  
ENDBRANCH   7   8
ENDBRANCH   4   7
ENDBRANCH   2   4
BRANCH   3  18
HETATM   18  C   UNL     1     -11.160   6.478  67.987  1.00  0.00    -0.332 C  
BRANCH  18  19
HETATM   19  C   UNL     1     -10.937   6.234  69.530  1.00  0.00    -0.379 C  
BRANCH  19  20
HETATM   20  O   UNL     1     -11.983   6.768  70.428  1.00  0.00    -0.373 OA 
HETATM   21  O   UNL     1     -12.129   5.752  72.398  1.00  0.00    -0.249 OA 
HETATM   22  O   UNL     1     -12.682   8.106  72.098  1.00  0.00    -0.323 OA 
HETATM   23  P   UNL     1     -11.366   7.140  72.000  1.00  0.00    -0.279 P  
HETATM   24  O   UNL     1     -10.813   7.474  73.407  1.00  0.00    -0.394 OA 
ENDBRANCH  19  20
ENDBRANCH  18  19
ENDBRANCH   3  18
BRANCH   3  25
HETATM   25  S   UNL     1      -8.865   8.111  67.387  1.00  0.00    -0.127 SA 
BRANCH  25  26
HETATM   26  C   UNL     1      -9.869   9.545  67.858  1.00  0.00    -0.156 C  
HETATM   27  O   UNL     1     -10.203   9.725  69.023  1.00  0.00    -0.185 OA 
BRANCH  26  28
HETATM   28  C   UNL     1     -10.396  10.512  66.773  1.00  0.00    -0.301 A  
HETATM   29  C   UNL     1     -11.717  12.556  66.245  1.00  0.00    -0.462 A  
HETATM   30  C   UNL     1     -11.216  11.606  67.163  1.00  0.00    -0.371 A  
HETATM   31  C   UNL     1     -10.084  10.461  65.412  1.00  0.00    -0.354 A  
HETATM   32  C   UNL     1     -11.389  12.452  64.899  1.00  0.00    -0.361 A  
HETATM   33  C   UNL     1     -10.564  11.404  64.486  1.00  0.00    -0.390 A  
ENDBRANCH  26  28
ENDBRANCH  25  26
ENDBRANCH   3  25
TORSDOF 9
ENDMDL
MODEL      307
REMARK 921   NORMALIZED FREE ENERGY PREDICTED BY IDOCK:   -4.19 KCAL/MOL
REMARK 922        TOTAL FREE ENERGY PREDICTED BY IDOCK:   -7.90 KCAL/MOL
REMARK 923 INTER-LIGAND FREE ENERGY PREDICTED BY IDOCK:   -6.84 KCAL/MOL
REMARK 924 INTRA-LIGAND FREE ENERGY PREDICTED BY IDOCK:   -1.06 KCAL/MOL
REMARK 927      BINDING AFFINITY PREDICTED BY RF-SCORE:    0.00 PKD
ROOT
HETATM    1  C   UNL     1      -8.266  11.303  67.423  1.00  0.00    -0.135 C  
HETATM    2  C   UNL     1      -9.645  11.142  68.085  1.00  0.00    -0.179 C  
HETATM    3  C   UNL     1      -9.980   9.931  68.623  1.00  0.00    -0.164 C  
ENDROOT
BRANCH   2   4
HETATM    4  N   UNL     1     -10.397  12.333  68.100  1.00  0.00    -0.210 N  
HETATM    5  C   UNL     1     -11.120  12.719  69.240  1.00  0.00    -0.133 C  
HETATM    6  O   UNL     1     -12.014  13.552  69.274  1.00  0.00    -0.315 OA 
BRANCH   4   7
HETATM    7  C   UNL     1     -10.881  12.915  66.829  1.00  0.00    -0.267 C  
BRANCH   7   8
HETATM    8  C   UNL     1     -10.271  14.263  66.491  1.00  0.00    -0.277 A  
HETATM    9  H2  UNL     1     -11.765  13.381  64.576  1.00  0.00     0.000 HD 
HETATM   10  C   UNL     1      -9.282  14.944  67.107  1.00  0.00    -0.220 A  
HETATM   11  N   UNL     1     -10.490  16.317  65.190  1.00  0.00    -0.632 NA 
HETATM   12  N   UNL     1      -8.995  16.292  66.989  1.00  0.00    -0.197 NA 
HETATM   13  H1  UNL     1     -11.935  14.872  63.643  1.00  0.00     0.000 HD 
HETATM   14  C   UNL     1      -9.595  18.451  66.091  1.00  0.00    -0.195 C  
HETATM   15  N   UNL     1     -11.560  14.372  64.449  1.00  0.00    -0.364 NA 
HETATM   16  C   UNL     1      -9.659  16.946  66.081  1.00  0.00    -0.254 A  
HETATM   17  C   UNL     1     -10.822  14.996  65.310  1.00  0.00    -0.386 A  
ENDBRANCH   7   8
ENDBRANCH   4   7
ENDBRANCH   2   4
BRANCH   3  18
HETATM   18  C   UNL     1      -8.850   8.837  68.873  1.00  0.00    -0.137 C  
BRANCH  18  19
HETATM   19  C   UNL     1      -8.744   7.666  67.821  1.00  0.00    -0.127 C  
BRANCH  19  20
HETATM   20  O   UNL     1      -7.601   7.734  66.888  1.00  0.00    -0.095 OA 
HETATM   21  O   UNL     1      -7.872   6.603  64.996  1.00  0.00    -0.100 OA 
HETATM   22  O   UNL     1      -6.518   8.624  65.126  1.00  0.00    -0.062 OA 
HETATM   23  P   UNL     1      -8.087   8.194  65.293  1.00  0.00    -0.142 P  
HETATM   24  O   UNL     1      -8.522   8.607  63.865  1.00  0.00    -0.154 OA 
ENDBRANCH  19  20
ENDBRANCH  18  19
ENDBRANCH   3  18
BRANCH   3  25
HETATM   25  S   UNL     1     -11.657   9.425  69.138  1.00  0.00     0.638 SA 
BRANCH  25  26
HETATM   26  C   UNL     1     -11.860   9.353  70.937  1.00  0.00    -0.294 C  
HETATM   27  O   UNL     1     -12.277  10.320  71.564  1.00  0.00    -0.374 OA 
BRANCH  26  28
HETATM   28  C   UNL     1     -11.419   8.093  71.718  1.00  0.00    -0.337 A  
HETATM   29  C   UNL     1      -9.939   7.120  73.468  1.00  0.00    -0.344 A  
HETATM   30  C   UNL     1     -10.385   8.209  72.687  1.00  0.00    -0.398 A  
HETATM   31  C   UNL     1     -11.997   6.825  71.616  1.00  0.00    -0.391 A  
HETATM   32  C   UNL     1     -10.537   5.874  73.318  1.00  0.00    -0.277 A  
HETATM   33  C   UNL     1     -11.573   5.733  72.394  1.00  0.00    -0.320 A  
ENDBRANCH  26  28
ENDBRANCH  25  26
ENDBRANCH   3  25
TORSDOF 9
ENDMDL
MODEL      308
REMARK 921   NORMALIZED FREE ENERGY PREDICTED BY IDOCK:   -4.19 KCAL/MOL
REMARK 922        TOTAL FREE ENERGY PREDICTED BY IDOCK:   -7.90 KCAL/MOL
REMARK 923 INTER-LIGAND FREE ENERGY PREDICTED BY IDOCK:   -6.47 KCAL/MOL
REMARK 924 INTRA-LIGAND FREE ENERGY PREDICTED BY IDOCK:   -1.43 KCAL/MOL
REMARK 927      BINDING AFFINITY PREDICTED BY RF-SCORE:    0.00 PKD
ROOT
HETATM    1  C   UNL     1      -9.696   4.110  68.227  1.00  0.00    -0.148 C  
HETATM    2  C   UNL     1      -9.044   5.501  68.303  1.00  0.00    -0.108 C  
HETATM    3  C   UNL     1      -9.805   6.565  68.699  1.00  0.00    -0.139 C  
ENDROOT
BRANCH   2   4
HETATM    4  N   UNL     1      -7.670   5.488  67.992  1.00  0.00    -0.091 N  
HETATM    5  C   UNL     1      -6.699   5.668  68.990  1.00  0.00    -0.060 C  
HETATM    6  O   UNL     1      -5.527   5.959  68.806  1.00  0.00    -0.006 OA 
BRANCH   4   7
HETATM    7  C   UNL     1      -7.221   5.817  66.621  1.00  0.00    -0.074 C  
BRANCH   7   8
HETATM    8  C   UNL     1      -7.780   4.902  65.547  1.00  0.00    -0.086 A  
HETATM    9  H2  UNL     1      -5.714   3.869  66.705  1.00  0.00     0.000 HD 
HETATM   10  C   UNL     1      -8.690   5.155  64.583  1.00  0.00    -0.120 A  
HETATM   11  N   UNL     1      -8.001   2.602  64.758  1.00  0.00    -0.081 NA 
HETATM   12  N   UNL     1      -9.421   4.230  63.860  1.00  0.00    -0.151 NA 
HETATM   13  H1  UNL     1      -5.884   2.200  66.146  1.00  0.00     0.000 HD 
HETATM   14  C   UNL     1     -10.023   1.921  63.488  1.00  0.00    -0.128 C  
HETATM   15  N   UNL     1      -6.219   3.164  66.168  1.00  0.00    -0.024 NA 
HETATM   16  C   UNL     1      -9.096   2.981  64.025  1.00  0.00    -0.104 A  
HETATM   17  C   UNL     1      -7.287   3.490  65.515  1.00  0.00    -0.076 A  
ENDBRANCH   7   8
ENDBRANCH   4   7
ENDBRANCH   2   4
BRANCH   3  18
HETATM   18  C   UNL     1     -11.213   6.313  69.399  1.00  0.00    -0.489 C  
BRANCH  18  19
HETATM   19  C   UNL     1     -11.189   5.916  70.927  1.00  0.00    -0.207 C  
BRANCH  19  20
HETATM   20  O   UNL     1     -12.123   6.654  71.802  1.00  0.00    -0.331 OA 
HETATM   21  O   UNL     1     -11.213   8.339  72.928  1.00  0.00    -0.337 OA 
HETATM   22  O   UNL     1     -13.544   8.349  72.220  1.00  0.00    -0.321 OA 
HETATM   23  P   UNL     1     -12.061   8.361  71.532  1.00  0.00    -0.322 P  
HETATM   24  O   UNL     1     -12.006   9.889  71.289  1.00  0.00    -0.344 OA 
ENDBRANCH  19  20
ENDBRANCH  18  19
ENDBRANCH   3  18
BRANCH   3  25
HETATM   25  S   UNL     1      -9.342   8.323  68.533  1.00  0.00    -0.138 SA 
BRANCH  25  26
HETATM   26  C   UNL     1      -9.792   9.032  66.927  1.00  0.00    -0.224 C  
HETATM   27  O   UNL     1      -9.485   8.471  65.882  1.00  0.00    -0.208 OA 
BRANCH  26  28
HETATM   28  C   UNL     1     -10.492  10.409  66.856  1.00  0.00    -0.300 A  
HETATM   29  C   UNL     1     -11.783  12.172  68.049  1.00  0.00    -0.409 A  
HETATM   30  C   UNL     1     -11.145  10.913  68.014  1.00  0.00    -0.351 A  
HETATM   31  C   UNL     1     -10.490  11.269  65.755  1.00  0.00    -0.310 A  
HETATM   32  C   UNL     1     -11.766  12.985  66.922  1.00  0.00    -0.441 A  
HETATM   33  C   UNL     1     -11.111  12.531  65.776  1.00  0.00    -0.343 A  
ENDBRANCH  26  28
ENDBRANCH  25  26
ENDBRANCH   3  25
TORSDOF 9
ENDMDL
MODEL      309
REMARK 921   NORMALIZED FREE ENERGY PREDICTED BY IDOCK:   -4.18 KCAL/MOL
REMARK 922        TOTAL FREE ENERGY PREDICTED BY IDOCK:   -7.89 KCAL/MOL
REMARK 923 INTER-LIGAND FREE ENERGY PREDICTED BY IDOCK:   -5.93 KCAL/MOL
REMARK 924 INTRA-LIGAND FREE ENERGY PREDICTED BY IDOCK:   -1.96 KCAL/MOL
REMARK 927      BINDING AFFINITY PREDICTED BY RF-SCORE:    0.00 PKD
ROOT
HETATM    1  C   UNL     1     -10.308   9.669  66.428  1.00  0.00    -0.246 C  
HETATM    2  C   UNL     1      -9.204   8.937  67.209  1.00  0.00    -0.138 C  
HETATM    3  C   UNL     1      -9.237   8.960  68.576  1.00  0.00    -0.137 C  
ENDROOT
BRANCH   2   4
HETATM    4  N   UNL     1      -8.289   8.262  66.378  1.00  0.00    -0.113 N  
HETATM    5  C   UNL     1      -7.293   8.962  65.679  1.00  0.00    -0.085 C  
HETATM    6  O   UNL     1      -6.648   8.536  64.732  1.00  0.00    -0.064 OA 
BRANCH   4   7
HETATM    7  C   UNL     1      -8.647   6.948  65.802  1.00  0.00    -0.131 C  
BRANCH   7   8
HETATM    8  C   UNL     1      -8.690   5.816  66.813  1.00  0.00    -0.116 A  
HETATM    9  H2  UNL     1     -11.006   6.924  66.517  1.00  0.00     0.000 HD 
HETATM   10  C   UNL     1      -7.679   5.148  67.407  1.00  0.00    -0.092 A  
HETATM   11  N   UNL     1     -10.073   4.126  67.906  1.00  0.00     0.059 NA 
HETATM   12  N   UNL     1      -7.746   3.919  68.039  1.00  0.00    -0.066 NA 
HETATM   13  H1  UNL     1     -12.008   5.692  67.294  1.00  0.00     0.000 HD 
HETATM   14  C   UNL     1      -9.057   1.980  68.630  1.00  0.00    -0.201 C  
HETATM   15  N   UNL     1     -11.090   6.030  67.001  1.00  0.00    -0.263 NA 
HETATM   16  C   UNL     1      -8.936   3.420  68.205  1.00  0.00    -0.138 A  
HETATM   17  C   UNL     1     -10.034   5.322  67.243  1.00  0.00    -0.177 A  
ENDBRANCH   7   8
ENDBRANCH   4   7
ENDBRANCH   2   4
BRANCH   3  18
HETATM   18  C   UNL     1     -10.564   9.421  69.326  1.00  0.00    -0.239 C  
BRANCH  18  19
HETATM   19  C   UNL     1     -10.839  10.973  69.403  1.00  0.00    -0.231 C  
BRANCH  19  20
HETATM   20  O   UNL     1     -12.027  11.383  70.179  1.00  0.00    -0.324 OA 
HETATM   21  O   UNL     1     -13.646   9.865  70.281  1.00  0.00     0.132 OA 
HETATM   22  O   UNL     1     -13.239  11.462  72.075  1.00  0.00    -0.503 OA 
HETATM   23  P   UNL     1     -12.472  10.204  71.365  1.00  0.00    -0.456 P  
HETATM   24  O   UNL     1     -12.870   9.149  72.426  1.00  0.00    -0.396 OA 
ENDBRANCH  19  20
ENDBRANCH  18  19
ENDBRANCH   3  18
BRANCH   3  25
HETATM   25  S   UNL     1      -7.871   8.465  69.681  1.00  0.00    -0.102 SA 
BRANCH  25  26
HETATM   26  C   UNL     1      -8.354   8.389  71.425  1.00  0.00    -0.145 C  
HETATM   27  O   UNL     1      -7.866   9.155  72.249  1.00  0.00    -0.298 OA 
BRANCH  26  28
HETATM   28  C   UNL     1      -9.323   7.288  71.915  1.00  0.00    -0.152 A  
HETATM   29  C   UNL     1     -10.422   5.102  71.454  1.00  0.00    -0.249 A  
HETATM   30  C   UNL     1      -9.577   6.168  71.076  1.00  0.00    -0.194 A  
HETATM   31  C   UNL     1      -9.943   7.243  73.167  1.00  0.00    -0.295 A  
HETATM   32  C   UNL     1     -11.027   5.112  72.705  1.00  0.00    -0.303 A  
HETATM   33  C   UNL     1     -10.779   6.184  73.563  1.00  0.00    -0.263 A  
ENDBRANCH  26  28
ENDBRANCH  25  26
ENDBRANCH   3  25
TORSDOF 9
ENDMDL
MODEL      310
REMARK 921   NORMALIZED FREE ENERGY PREDICTED BY IDOCK:   -4.17 KCAL/MOL
REMARK 922        TOTAL FREE ENERGY PREDICTED BY IDOCK:   -7.88 KCAL/MOL
REMARK 923 INTER-LIGAND FREE ENERGY PREDICTED BY IDOCK:   -6.06 KCAL/MOL
REMARK 924 INTRA-LIGAND FREE ENERGY PREDICTED BY IDOCK:   -1.82 KCAL/MOL
REMARK 927      BINDING AFFINITY PREDICTED BY RF-SCORE:    0.00 PKD
ROOT
HETATM    1  C   UNL     1     -11.085   6.808  68.729  1.00  0.00    -0.234 C  
HETATM    2  C   UNL     1      -9.724   7.514  68.601  1.00  0.00    -0.154 C  
HETATM    3  C   UNL     1      -9.682   8.773  68.071  1.00  0.00    -0.157 C  
ENDROOT
BRANCH   2   4
HETATM    4  N   UNL     1      -8.655   6.758  69.120  1.00  0.00    -0.131 N  
HETATM    5  C   UNL     1      -7.792   7.293  70.090  1.00  0.00    -0.100 C  
HETATM    6  O   UNL     1      -6.692   6.854  70.391  1.00  0.00    -0.050 OA 
BRANCH   4   7
HETATM    7  C   UNL     1      -8.088   5.644  68.329  1.00  0.00    -0.103 C  
BRANCH   7   8
HETATM    8  C   UNL     1      -7.616   6.042  66.943  1.00  0.00    -0.096 A  
HETATM    9  H2  UNL     1      -9.793   4.654  66.850  1.00  0.00     0.000 HD 
HETATM   10  C   UNL     1      -6.435   6.564  66.548  1.00  0.00    -0.043 A  
HETATM   11  N   UNL     1      -8.264   6.489  64.632  1.00  0.00    -0.096 NA 
HETATM   12  N   UNL     1      -6.169   7.227  65.364  1.00  0.00    -0.037 NA 
HETATM   13  H1  UNL     1     -10.270   4.991  65.181  1.00  0.00     0.000 HD 
HETATM   14  C   UNL     1      -6.996   8.152  63.293  1.00  0.00    -0.085 C  
HETATM   15  N   UNL     1      -9.618   5.115  65.957  1.00  0.00    -0.159 NA 
HETATM   16  C   UNL     1      -7.118   7.225  64.474  1.00  0.00    -0.058 A  
HETATM   17  C   UNL     1      -8.570   5.859  65.806  1.00  0.00    -0.154 A  
ENDBRANCH   7   8
ENDBRANCH   4   7
ENDBRANCH   2   4
BRANCH   3  18
HETATM   18  C   UNL     1     -11.026   9.615  67.927  1.00  0.00    -0.205 C  
BRANCH  18  19
HETATM   19  C   UNL     1     -11.278  10.748  68.996  1.00  0.00    -0.262 C  
BRANCH  19  20
HETATM   20  O   UNL     1     -12.063  11.911  68.536  1.00  0.00    -0.412 OA 
HETATM   21  O   UNL     1     -12.568  13.383  70.120  1.00  0.00    -0.209 OA 
HETATM   22  O   UNL     1     -12.237  14.031  67.795  1.00  0.00    -0.334 OA 
HETATM   23  P   UNL     1     -11.356  13.412  69.026  1.00  0.00    -0.289 P  
HETATM   24  O   UNL     1     -10.723  14.755  69.465  1.00  0.00    -0.241 OA 
ENDBRANCH  19  20
ENDBRANCH  18  19
ENDBRANCH   3  18
BRANCH   3  25
HETATM   25  S   UNL     1      -8.176   9.644  67.519  1.00  0.00    -0.114 SA 
BRANCH  25  26
HETATM   26  C   UNL     1      -8.489  11.348  66.988  1.00  0.00    -0.159 C  
HETATM   27  O   UNL     1      -8.106  12.298  67.661  1.00  0.00    -0.143 OA 
BRANCH  26  28
HETATM   28  C   UNL     1      -9.329  11.623  65.719  1.00  0.00    -0.220 A  
HETATM   29  C   UNL     1     -10.063  10.834  63.475  1.00  0.00    -0.364 A  
HETATM   30  C   UNL     1      -9.304  10.679  64.656  1.00  0.00    -0.280 A  
HETATM   31  C   UNL     1     -10.192  12.706  65.532  1.00  0.00    -0.298 A  
HETATM   32  C   UNL     1     -10.896  11.937  63.331  1.00  0.00    -0.469 A  
HETATM   33  C   UNL     1     -10.963  12.869  64.367  1.00  0.00    -0.400 A  
ENDBRANCH  26  28
ENDBRANCH  25  26
ENDBRANCH   3  25
TORSDOF 9
ENDMDL
MODEL      311
REMARK 921   NORMALIZED FREE ENERGY PREDICTED BY IDOCK:   -4.17 KCAL/MOL
REMARK 922        TOTAL FREE ENERGY PREDICTED BY IDOCK:   -7.87 KCAL/MOL
REMARK 923 INTER-LIGAND FREE ENERGY PREDICTED BY IDOCK:   -6.52 KCAL/MOL
REMARK 924 INTRA-LIGAND FREE ENERGY PREDICTED BY IDOCK:   -1.35 KCAL/MOL
REMARK 927      BINDING AFFINITY PREDICTED BY RF-SCORE:    0.00 PKD
ROOT
HETATM    1  C   UNL     1     -10.594   8.132  67.254  1.00  0.00    -0.344 C  
HETATM    2  C   UNL     1      -9.783   8.361  68.541  1.00  0.00    -0.160 C  
HETATM    3  C   UNL     1      -8.661   9.140  68.483  1.00  0.00    -0.129 C  
ENDROOT
BRANCH   2   4
HETATM    4  N   UNL     1     -10.358   7.756  69.675  1.00  0.00    -0.208 N  
HETATM    5  C   UNL     1     -11.260   6.687  69.547  1.00  0.00    -0.326 C  
HETATM    6  O   UNL     1     -12.023   6.286  70.414  1.00  0.00    -0.273 OA 
BRANCH   4   7
HETATM    7  C   UNL     1     -10.466   8.513  70.941  1.00  0.00    -0.203 C  
BRANCH   7   8
HETATM    8  C   UNL     1     -11.440   9.676  70.888  1.00  0.00    -0.427 A  
HETATM    9  H2  UNL     1     -12.340   7.741  72.344  1.00  0.00     0.000 HD 
HETATM   10  C   UNL     1     -11.453  10.758  70.080  1.00  0.00    -0.331 A  
HETATM   11  N   UNL     1     -13.257  10.852  72.019  1.00  0.00    -0.458 NA 
HETATM   12  N   UNL     1     -12.131  11.946  70.284  1.00  0.00    -0.344 NA 
HETATM   13  H1  UNL     1     -13.645   8.597  73.174  1.00  0.00     0.000 HD 
HETATM   14  C   UNL     1     -13.513  13.304  71.725  1.00  0.00    -0.438 C  
HETATM   15  N   UNL     1     -12.873   8.595  72.506  1.00  0.00    -0.353 NA 
HETATM   16  C   UNL     1     -12.958  11.973  71.288  1.00  0.00    -0.217 A  
HETATM   17  C   UNL     1     -12.571   9.679  71.866  1.00  0.00    -0.396 A  
ENDBRANCH   7   8
ENDBRANCH   4   7
ENDBRANCH   2   4
BRANCH   3  18
HETATM   18  C   UNL     1      -8.406  10.065  67.212  1.00  0.00    -0.121 C  
BRANCH  18  19
HETATM   19  C   UNL     1      -9.096  11.484  67.212  1.00  0.00    -0.164 C  
BRANCH  19  20
HETATM   20  O   UNL     1      -8.682  12.406  68.289  1.00  0.00    -0.183 OA 
HETATM   21  O   UNL     1      -6.494  12.761  68.424  1.00  0.00    -0.069 OA 
HETATM   22  O   UNL     1      -8.131  14.448  69.061  1.00  0.00    -0.128 OA 
HETATM   23  P   UNL     1      -7.649  13.667  67.708  1.00  0.00    -0.191 P  
HETATM   24  O   UNL     1      -6.724  14.794  67.188  1.00  0.00    -0.250 OA 
ENDBRANCH  19  20
ENDBRANCH  18  19
ENDBRANCH   3  18
BRANCH   3  25
HETATM   25  S   UNL     1      -7.384   9.262  69.782  1.00  0.00    -0.082 SA 
BRANCH  25  26
HETATM   26  C   UNL     1      -6.723   7.652  70.287  1.00  0.00    -0.046 C  
HETATM   27  O   UNL     1      -5.991   7.010  69.542  1.00  0.00    -0.025 OA 
BRANCH  26  28
HETATM   28  C   UNL     1      -7.151   7.025  71.633  1.00  0.00    -0.070 A  
HETATM   29  C   UNL     1      -8.020   7.390  73.938  1.00  0.00    -0.161 A  
HETATM   30  C   UNL     1      -7.582   7.877  72.686  1.00  0.00    -0.138 A  
HETATM   31  C   UNL     1      -7.227   5.657  71.909  1.00  0.00    -0.091 A  
HETATM   32  C   UNL     1      -8.063   6.021  74.167  1.00  0.00    -0.102 A  
HETATM   33  C   UNL     1      -7.672   5.155  73.145  1.00  0.00    -0.097 A  
ENDBRANCH  26  28
ENDBRANCH  25  26
ENDBRANCH   3  25
TORSDOF 9
ENDMDL
MODEL      312
REMARK 921   NORMALIZED FREE ENERGY PREDICTED BY IDOCK:   -4.16 KCAL/MOL
REMARK 922        TOTAL FREE ENERGY PREDICTED BY IDOCK:   -7.85 KCAL/MOL
REMARK 923 INTER-LIGAND FREE ENERGY PREDICTED BY IDOCK:   -8.21 KCAL/MOL
REMARK 924 INTRA-LIGAND FREE ENERGY PREDICTED BY IDOCK:    0.35 KCAL/MOL
REMARK 927      BINDING AFFINITY PREDICTED BY RF-SCORE:    0.00 PKD
ROOT
HETATM    1  C   UNL     1      -8.879  16.701  69.381  1.00  0.00     0.115 C  
HETATM    2  C   UNL     1      -9.342  15.402  68.700  1.00  0.00    -0.202 C  
HETATM    3  C   UNL     1     -10.528  14.842  69.087  1.00  0.00    -0.239 C  
ENDROOT
BRANCH   2   4
HETATM    4  N   UNL     1      -8.471  14.966  67.683  1.00  0.00    -0.157 N  
HETATM    5  C   UNL     1      -7.765  13.758  67.803  1.00  0.00    -0.168 C  
HETATM    6  O   UNL     1      -6.791  13.429  67.141  1.00  0.00    -0.129 OA 
BRANCH   4   7
HETATM    7  C   UNL     1      -7.871  15.949  66.755  1.00  0.00    -0.238 C  
BRANCH   7   8
HETATM    8  C   UNL     1      -6.987  16.982  67.430  1.00  0.00    -0.182 A  
HETATM    9  H2  UNL     1      -8.725  18.083  65.867  1.00  0.00     0.000 HD 
HETATM   10  C   UNL     1      -5.843  16.819  68.127  1.00  0.00    -0.119 A  
HETATM   11  N   UNL     1      -6.793  19.292  68.197  1.00  0.00    -0.250 NA 
HETATM   12  N   UNL     1      -5.265  17.717  69.007  1.00  0.00    -0.167 NA 
HETATM   13  H1  UNL     1      -8.595  19.752  66.434  1.00  0.00     0.000 HD 
HETATM   14  C   UNL     1      -5.400  19.821  70.183  1.00  0.00    -0.250 C  
HETATM   15  N   UNL     1      -8.307  18.775  66.489  1.00  0.00    -0.289 NA 
HETATM   16  C   UNL     1      -5.803  18.900  69.061  1.00  0.00    -0.223 A  
HETATM   17  C   UNL     1      -7.410  18.414  67.349  1.00  0.00    -0.217 A  
ENDBRANCH   7   8
ENDBRANCH   4   7
ENDBRANCH   2   4
BRANCH   3  18
HETATM   18  C   UNL     1     -11.560  15.694  69.950  1.00  0.00    -0.354 C  
BRANCH  18  19
HETATM   19  C   UNL     1     -13.033  15.137  70.056  1.00  0.00     0.006 C  
BRANCH  19  20
HETATM   20  O   UNL     1     -13.745  15.422  71.319  1.00  0.00    -0.498 OA 
HETATM   21  O   UNL     1     -13.480  13.892  72.906  1.00  0.00    -0.653 OA 
HETATM   22  O   UNL     1     -13.837  16.248  73.411  1.00  0.00    -0.562 OA 
HETATM   23  P   UNL     1     -12.703  15.313  72.695  1.00  0.00    -0.483 P  
HETATM   24  O   UNL     1     -11.770  15.215  73.927  1.00  0.00    -0.317 OA 
ENDBRANCH  19  20
ENDBRANCH  18  19
ENDBRANCH   3  18
BRANCH   3  25
HETATM   25  S   UNL     1     -11.093  13.156  68.670  1.00  0.00    -0.281 SA 
BRANCH  25  26
HETATM   26  C   UNL     1     -11.859  13.044  67.032  1.00  0.00    -0.377 C  
HETATM   27  O   UNL     1     -12.920  13.609  66.792  1.00  0.00     0.195 OA 
BRANCH  26  28
HETATM   28  C   UNL     1     -11.226  12.152  65.939  1.00  0.00    -0.384 A  
HETATM   29  C   UNL     1     -11.092  11.568  63.522  1.00  0.00    -0.434 A  
HETATM   30  C   UNL     1     -11.637  12.317  64.588  1.00  0.00    -0.404 A  
HETATM   31  C   UNL     1     -10.207  11.216  66.139  1.00  0.00    -0.293 A  
HETATM   32  C   UNL     1     -10.091  10.638  63.775  1.00  0.00    -0.336 A  
HETATM   33  C   UNL     1      -9.645  10.470  65.087  1.00  0.00    -0.316 A  
ENDBRANCH  26  28
ENDBRANCH  25  26
ENDBRANCH   3  25
TORSDOF 9
ENDMDL
MODEL      313
REMARK 921   NORMALIZED FREE ENERGY PREDICTED BY IDOCK:   -4.14 KCAL/MOL
REMARK 922        TOTAL FREE ENERGY PREDICTED BY IDOCK:   -7.82 KCAL/MOL
REMARK 923 INTER-LIGAND FREE ENERGY PREDICTED BY IDOCK:   -6.77 KCAL/MOL
REMARK 924 INTRA-LIGAND FREE ENERGY PREDICTED BY IDOCK:   -1.06 KCAL/MOL
REMARK 927      BINDING AFFINITY PREDICTED BY RF-SCORE:    0.00 PKD
ROOT
HETATM    1  C   UNL     1     -10.658   9.380  69.646  1.00  0.00    -0.239 C  
HETATM    2  C   UNL     1     -10.618  10.347  68.451  1.00  0.00    -0.208 C  
HETATM    3  C   UNL     1     -11.402  11.467  68.483  1.00  0.00    -0.277 C  
ENDROOT
BRANCH   2   4
HETATM    4  N   UNL     1      -9.698   9.963  67.457  1.00  0.00    -0.156 N  
HETATM    5  C   UNL     1     -10.039   9.011  66.482  1.00  0.00    -0.283 C  
HETATM    6  O   UNL     1      -9.254   8.403  65.770  1.00  0.00    -0.182 OA 
BRANCH   4   7
HETATM    7  C   UNL     1      -8.247  10.115  67.697  1.00  0.00    -0.110 C  
BRANCH   7   8
HETATM    8  C   UNL     1      -7.686   9.168  68.742  1.00  0.00    -0.087 A  
HETATM    9  H2  UNL     1      -7.108  11.629  69.274  1.00  0.00     0.000 HD 
HETATM   10  C   UNL     1      -7.574   7.822  68.718  1.00  0.00    -0.101 A  
HETATM   11  N   UNL     1      -6.960   8.904  71.057  1.00  0.00    -0.077 NA 
HETATM   12  N   UNL     1      -7.389   6.980  69.798  1.00  0.00    -0.086 NA 
HETATM   13  H1  UNL     1      -6.597  11.439  70.956  1.00  0.00     0.000 HD 
HETATM   14  C   UNL     1      -7.222   6.711  72.192  1.00  0.00    -0.081 C  
HETATM   15  N   UNL     1      -6.944  11.033  70.087  1.00  0.00    -0.142 NA 
HETATM   16  C   UNL     1      -7.157   7.551  70.944  1.00  0.00    -0.059 A  
HETATM   17  C   UNL     1      -7.177   9.762  70.015  1.00  0.00    -0.130 A  
ENDBRANCH   7   8
ENDBRANCH   4   7
ENDBRANCH   2   4
BRANCH   3  18
HETATM   18  C   UNL     1     -12.055  11.935  69.858  1.00  0.00    -0.344 C  
BRANCH  18  19
HETATM   19  C   UNL     1     -11.617  13.346  70.413  1.00  0.00     0.030 C  
BRANCH  19  20
HETATM   20  O   UNL     1     -12.692  14.178  70.990  1.00  0.00    -0.324 OA 
HETATM   21  O   UNL     1     -13.582  13.385  72.864  1.00  0.00    -0.608 OA 
HETATM   22  O   UNL     1     -13.444  15.771  72.393  1.00  0.00    -0.477 OA 
HETATM   23  P   UNL     1     -12.425  14.521  72.665  1.00  0.00    -0.148 P  
HETATM   24  O   UNL     1     -12.186  14.828  74.163  1.00  0.00    -0.533 OA 
ENDBRANCH  19  20
ENDBRANCH  18  19
ENDBRANCH   3  18
BRANCH   3  25
HETATM   25  S   UNL     1     -11.765  12.550  67.059  1.00  0.00    -0.326 SA 
BRANCH  25  26
HETATM   26  C   UNL     1     -11.177  14.249  67.284  1.00  0.00    -0.318 C  
HETATM   27  O   UNL     1     -11.957  15.194  67.267  1.00  0.00    -0.187 OA 
BRANCH  26  28
HETATM   28  C   UNL     1      -9.662  14.535  67.408  1.00  0.00    -0.222 A  
HETATM   29  C   UNL     1      -7.742  15.987  66.775  1.00  0.00    -0.270 A  
HETATM   30  C   UNL     1      -9.107  15.634  66.697  1.00  0.00    -0.313 A  
HETATM   31  C   UNL     1      -8.766  13.845  68.228  1.00  0.00    -0.183 A  
HETATM   32  C   UNL     1      -6.887  15.260  67.594  1.00  0.00    -0.205 A  
HETATM   33  C   UNL     1      -7.406  14.191  68.326  1.00  0.00    -0.120 A  
ENDBRANCH  26  28
ENDBRANCH  25  26
ENDBRANCH   3  25
TORSDOF 9
ENDMDL
MODEL      314
REMARK 921   NORMALIZED FREE ENERGY PREDICTED BY IDOCK:   -4.14 KCAL/MOL
REMARK 922        TOTAL FREE ENERGY PREDICTED BY IDOCK:   -7.82 KCAL/MOL
REMARK 923 INTER-LIGAND FREE ENERGY PREDICTED BY IDOCK:   -7.26 KCAL/MOL
REMARK 924 INTRA-LIGAND FREE ENERGY PREDICTED BY IDOCK:   -0.56 KCAL/MOL
REMARK 927      BINDING AFFINITY PREDICTED BY RF-SCORE:    0.00 PKD
ROOT
HETATM    1  C   UNL     1     -11.583  13.304  67.353  1.00  0.00    -0.396 C  
HETATM    2  C   UNL     1     -10.218  12.671  67.670  1.00  0.00    -0.217 C  
HETATM    3  C   UNL     1     -10.181  11.510  68.391  1.00  0.00    -0.205 C  
ENDROOT
BRANCH   2   4
HETATM    4  N   UNL     1      -9.136  13.372  67.104  1.00  0.00    -0.226 N  
HETATM    5  C   UNL     1      -7.828  13.195  67.584  1.00  0.00    -0.169 C  
HETATM    6  O   UNL     1      -6.882  13.940  67.377  1.00  0.00    -0.186 OA 
BRANCH   4   7
HETATM    7  C   UNL     1      -9.372  14.651  66.400  1.00  0.00    -0.284 C  
BRANCH   7   8
HETATM    8  C   UNL     1      -9.281  15.877  67.290  1.00  0.00    -0.216 A  
HETATM    9  H2  UNL     1      -7.627  16.007  65.310  1.00  0.00     0.000 HD 
HETATM   10  C   UNL     1      -9.797  16.095  68.519  1.00  0.00    -0.226 A  
HETATM   11  N   UNL     1      -8.695  18.243  67.427  1.00  0.00    -0.254 NA 
HETATM   12  N   UNL     1      -9.990  17.315  69.140  1.00  0.00    -0.252 NA 
HETATM   13  H1  UNL     1      -7.216  17.724  65.399  1.00  0.00     0.000 HD 
HETATM   14  C   UNL     1      -9.902  19.725  69.013  1.00  0.00    -0.419 C  
HETATM   15  N   UNL     1      -7.733  16.919  65.754  1.00  0.00    -0.132 NA 
HETATM   16  C   UNL     1      -9.492  18.355  68.538  1.00  0.00    -0.334 A  
HETATM   17  C   UNL     1      -8.523  17.056  66.770  1.00  0.00    -0.234 A  
ENDBRANCH   7   8
ENDBRANCH   4   7
ENDBRANCH   2   4
BRANCH   3  18
HETATM   18  C   UNL     1     -11.512  10.657  68.585  1.00  0.00    -0.332 C  
BRANCH  18  19
HETATM   19  C   UNL     1     -12.023  10.458  70.064  1.00  0.00    -0.247 C  
BRANCH  19  20
HETATM   20  O   UNL     1     -12.110   9.061  70.537  1.00  0.00    -0.117 OA 
HETATM   21  O   UNL     1     -11.689   8.779  72.700  1.00  0.00    -0.267 OA 
HETATM   22  O   UNL     1     -13.220   7.338  71.469  1.00  0.00    -0.376 OA 
HETATM   23  P   UNL     1     -13.124   8.904  71.930  1.00  0.00    -0.444 P  
HETATM   24  O   UNL     1     -14.033   8.764  73.176  1.00  0.00    -0.250 OA 
ENDBRANCH  19  20
ENDBRANCH  18  19
ENDBRANCH   3  18
BRANCH   3  25
HETATM   25  S   UNL     1      -8.693  10.785  69.161  1.00  0.00    -0.031 SA 
BRANCH  25  26
HETATM   26  C   UNL     1      -8.277   9.147  68.508  1.00  0.00    -0.115 C  
HETATM   27  O   UNL     1      -7.497   9.022  67.570  1.00  0.00    -0.081 OA 
BRANCH  26  28
HETATM   28  C   UNL     1      -8.976   7.887  69.069  1.00  0.00    -0.145 A  
HETATM   29  C   UNL     1      -9.357   6.392  71.023  1.00  0.00    -0.171 A  
HETATM   30  C   UNL     1      -8.739   7.509  70.419  1.00  0.00    -0.144 A  
HETATM   31  C   UNL     1      -9.901   7.094  68.385  1.00  0.00    -0.157 A  
HETATM   32  C   UNL     1     -10.259   5.626  70.295  1.00  0.00    -0.311 A  
HETATM   33  C   UNL     1     -10.534   5.986  68.975  1.00  0.00    -0.319 A  
ENDBRANCH  26  28
ENDBRANCH  25  26
ENDBRANCH   3  25
TORSDOF 9
ENDMDL
MODEL      315
REMARK 921   NORMALIZED FREE ENERGY PREDICTED BY IDOCK:   -4.13 KCAL/MOL
REMARK 922        TOTAL FREE ENERGY PREDICTED BY IDOCK:   -7.81 KCAL/MOL
REMARK 923 INTER-LIGAND FREE ENERGY PREDICTED BY IDOCK:   -6.61 KCAL/MOL
REMARK 924 INTRA-LIGAND FREE ENERGY PREDICTED BY IDOCK:   -1.21 KCAL/MOL
REMARK 927      BINDING AFFINITY PREDICTED BY RF-SCORE:    0.00 PKD
ROOT
HETATM    1  C   UNL     1      -6.661  11.633  70.076  1.00  0.00     0.040 C  
HETATM    2  C   UNL     1      -7.828  11.450  69.091  1.00  0.00     0.027 C  
HETATM    3  C   UNL     1      -8.606  10.331  69.192  1.00  0.00    -0.164 C  
ENDROOT
BRANCH   2   4
HETATM    4  N   UNL     1      -7.983  12.534  68.206  1.00  0.00    -0.148 N  
HETATM    5  C   UNL     1      -6.871  13.255  67.741  1.00  0.00    -0.153 C  
HETATM    6  O   UNL     1      -6.900  14.360  67.220  1.00  0.00    -0.241 OA 
BRANCH   4   7
HETATM    7  C   UNL     1      -9.265  13.269  68.157  1.00  0.00    -0.212 C  
BRANCH   7   8
HETATM    8  C   UNL     1     -10.076  13.024  66.898  1.00  0.00    -0.243 A  
HETATM    9  H2  UNL     1     -11.571  13.067  69.005  1.00  0.00     0.000 HD 
HETATM   10  C   UNL     1      -9.664  12.714  65.650  1.00  0.00    -0.139 A  
HETATM   11  N   UNL     1     -12.259  13.220  65.822  1.00  0.00    -0.442 NA 
HETATM   12  N   UNL     1     -10.384  12.841  64.476  1.00  0.00    -0.351 NA 
HETATM   13  H1  UNL     1     -13.150  13.225  68.225  1.00  0.00     0.000 HD 
HETATM   14  C   UNL     1     -12.399  13.575  63.369  1.00  0.00    -0.264 C  
HETATM   15  N   UNL     1     -12.135  13.144  68.158  1.00  0.00    -0.269 NA 
HETATM   16  C   UNL     1     -11.640  13.157  64.600  1.00  0.00    -0.345 A  
HETATM   17  C   UNL     1     -11.563  13.142  66.997  1.00  0.00    -0.359 A  
ENDBRANCH   7   8
ENDBRANCH   4   7
ENDBRANCH   2   4
BRANCH   3  18
HETATM   18  C   UNL     1      -8.531   9.431  70.504  1.00  0.00    -0.251 C  
BRANCH  18  19
HETATM   19  C   UNL     1      -9.338   8.075  70.487  1.00  0.00    -0.155 C  
BRANCH  19  20
HETATM   20  O   UNL     1     -10.644   8.090  71.178  1.00  0.00    -0.202 OA 
HETATM   21  O   UNL     1     -11.169   6.202  72.223  1.00  0.00    -0.259 OA 
HETATM   22  O   UNL     1     -11.929   8.380  73.005  1.00  0.00    -0.236 OA 
HETATM   23  P   UNL     1     -10.517   7.573  72.825  1.00  0.00    -0.361 P  
HETATM   24  O   UNL     1     -10.404   7.111  74.298  1.00  0.00    -0.230 OA 
ENDBRANCH  19  20
ENDBRANCH  18  19
ENDBRANCH   3  18
BRANCH   3  25
HETATM   25  S   UNL     1      -9.802   9.751  67.939  1.00  0.00    -0.155 SA 
BRANCH  25  26
HETATM   26  C   UNL     1      -9.032   8.799  66.604  1.00  0.00    -0.139 C  
HETATM   27  O   UNL     1      -8.381   9.355  65.728  1.00  0.00    -0.116 OA 
BRANCH  26  28
HETATM   28  C   UNL     1      -9.269   7.274  66.503  1.00  0.00    -0.195 A  
HETATM   29  C   UNL     1     -10.639   5.312  67.190  1.00  0.00    -0.227 A  
HETATM   30  C   UNL     1     -10.332   6.689  67.245  1.00  0.00    -0.296 A  
HETATM   31  C   UNL     1      -8.567   6.392  65.676  1.00  0.00    -0.138 A  
HETATM   32  C   UNL     1      -9.901   4.474  66.363  1.00  0.00    -0.245 A  
HETATM   33  C   UNL     1      -8.869   5.020  65.601  1.00  0.00    -0.143 A  
ENDBRANCH  26  28
ENDBRANCH  25  26
ENDBRANCH   3  25
TORSDOF 9
ENDMDL
MODEL      316
REMARK 921   NORMALIZED FREE ENERGY PREDICTED BY IDOCK:   -4.12 KCAL/MOL
REMARK 922        TOTAL FREE ENERGY PREDICTED BY IDOCK:   -7.80 KCAL/MOL
REMARK 923 INTER-LIGAND FREE ENERGY PREDICTED BY IDOCK:   -7.08 KCAL/MOL
REMARK 924 INTRA-LIGAND FREE ENERGY PREDICTED BY IDOCK:   -0.72 KCAL/MOL
REMARK 927      BINDING AFFINITY PREDICTED BY RF-SCORE:    0.00 PKD
ROOT
HETATM    1  C   UNL     1      -7.842  16.917  66.113  1.00  0.00    -0.277 C  
HETATM    2  C   UNL     1      -7.877  15.621  66.940  1.00  0.00    -0.223 C  
HETATM    3  C   UNL     1      -8.824  14.679  66.650  1.00  0.00    -0.209 C  
ENDROOT
BRANCH   2   4
HETATM    4  N   UNL     1      -6.848  15.546  67.899  1.00  0.00    -0.133 N  
HETATM    5  C   UNL     1      -5.942  14.474  67.907  1.00  0.00    -0.138 C  
HETATM    6  O   UNL     1      -5.213  14.158  68.836  1.00  0.00    -0.077 OA 
BRANCH   4   7
HETATM    7  C   UNL     1      -6.994  16.247  69.193  1.00  0.00    -0.206 C  
BRANCH   7   8
HETATM    8  C   UNL     1      -8.020  17.366  69.183  1.00  0.00    -0.006 A  
HETATM    9  H2  UNL     1      -5.619  18.273  69.478  1.00  0.00     0.000 HD 
HETATM   10  C   UNL     1      -9.366  17.306  69.275  1.00  0.00     0.091 A  
HETATM   11  N   UNL     1      -8.439  19.728  68.732  1.00  0.00    -0.224 NA 
HETATM   12  N   UNL     1     -10.272  18.287  68.918  1.00  0.00    -0.357 NA 
HETATM   13  H1  UNL     1      -5.921  19.981  69.136  1.00  0.00     0.000 HD 
HETATM   14  C   UNL     1     -10.676  20.456  67.937  1.00  0.00     0.033 C  
HETATM   15  N   UNL     1      -6.263  19.025  69.232  1.00  0.00    -0.262 NA 
HETATM   16  C   UNL     1      -9.773  19.443  68.593  1.00  0.00    -0.433 A  
HETATM   17  C   UNL     1      -7.517  18.767  69.042  1.00  0.00    -0.241 A  
ENDBRANCH   7   8
ENDBRANCH   4   7
ENDBRANCH   2   4
BRANCH   3  18
HETATM   18  C   UNL     1      -9.627  14.762  65.277  1.00  0.00     0.048 C  
BRANCH  18  19
HETATM   19  C   UNL     1     -10.252  13.419  64.733  1.00  0.00    -0.318 C  
BRANCH  19  20
HETATM   20  O   UNL     1     -11.726  13.328  64.771  1.00  0.00    -0.330 OA 
HETATM   21  O   UNL     1     -12.730  13.615  62.811  1.00  0.00    -0.420 OA 
HETATM   22  O   UNL     1     -13.659  12.193  64.557  1.00  0.00    -0.477 OA 
HETATM   23  P   UNL     1     -12.344  12.230  63.586  1.00  0.00    -0.451 P  
HETATM   24  O   UNL     1     -12.896  11.248  62.525  1.00  0.00     0.583 OA 
ENDBRANCH  19  20
ENDBRANCH  18  19
ENDBRANCH   3  18
BRANCH   3  25
HETATM   25  S   UNL     1      -9.261  13.252  67.702  1.00  0.00    -0.221 SA 
BRANCH  25  26
HETATM   26  C   UNL     1     -10.926  13.368  68.408  1.00  0.00    -0.267 C  
HETATM   27  O   UNL     1     -11.635  14.345  68.193  1.00  0.00    -0.295 OA 
BRANCH  26  28
HETATM   28  C   UNL     1     -11.438  12.274  69.372  1.00  0.00    -0.341 A  
HETATM   29  C   UNL     1     -11.263   9.917  70.156  1.00  0.00    -0.347 A  
HETATM   30  C   UNL     1     -10.878  10.969  69.296  1.00  0.00    -0.285 A  
HETATM   31  C   UNL     1     -12.377  12.457  70.391  1.00  0.00    -0.307 A  
HETATM   32  C   UNL     1     -12.212  10.147  71.144  1.00  0.00    -0.490 A  
HETATM   33  C   UNL     1     -12.763  11.424  71.263  1.00  0.00    -0.498 A  
ENDBRANCH  26  28
ENDBRANCH  25  26
ENDBRANCH   3  25
TORSDOF 9
ENDMDL
MODEL      317
REMARK 921   NORMALIZED FREE ENERGY PREDICTED BY IDOCK:   -4.12 KCAL/MOL
REMARK 922        TOTAL FREE ENERGY PREDICTED BY IDOCK:   -7.79 KCAL/MOL
REMARK 923 INTER-LIGAND FREE ENERGY PREDICTED BY IDOCK:   -6.00 KCAL/MOL
REMARK 924 INTRA-LIGAND FREE ENERGY PREDICTED BY IDOCK:   -1.80 KCAL/MOL
REMARK 927      BINDING AFFINITY PREDICTED BY RF-SCORE:    0.00 PKD
ROOT
HETATM    1  C   UNL     1     -10.784   7.123  66.767  1.00  0.00    -0.259 C  
HETATM    2  C   UNL     1      -9.508   7.200  67.622  1.00  0.00    -0.126 C  
HETATM    3  C   UNL     1      -9.583   7.755  68.870  1.00  0.00    -0.154 C  
ENDROOT
BRANCH   2   4
HETATM    4  N   UNL     1      -8.388   6.612  67.003  1.00  0.00    -0.113 N  
HETATM    5  C   UNL     1      -7.980   5.309  67.330  1.00  0.00    -0.100 C  
HETATM    6  O   UNL     1      -6.888   4.817  67.084  1.00  0.00    -0.054 OA 
BRANCH   4   7
HETATM    7  C   UNL     1      -7.330   7.469  66.426  1.00  0.00    -0.083 C  
BRANCH   7   8
HETATM    8  C   UNL     1      -7.851   8.682  65.677  1.00  0.00    -0.101 A  
HETATM    9  H2  UNL     1      -7.203   6.768  64.067  1.00  0.00     0.000 HD 
HETATM   10  C   UNL     1      -8.078   9.938  66.116  1.00  0.00    -0.119 A  
HETATM   11  N   UNL     1      -8.932   9.499  63.646  1.00  0.00    -0.215 NA 
HETATM   12  N   UNL     1      -8.864  10.904  65.515  1.00  0.00    -0.193 NA 
HETATM   13  H1  UNL     1      -7.999   7.353  62.601  1.00  0.00     0.000 HD 
HETATM   14  C   UNL     1     -10.395  11.503  63.746  1.00  0.00    -0.450 C  
HETATM   15  N   UNL     1      -7.767   7.470  63.588  1.00  0.00    -0.122 NA 
HETATM   16  C   UNL     1      -9.320  10.623  64.330  1.00  0.00    -0.258 A  
HETATM   17  C   UNL     1      -8.190   8.510  64.231  1.00  0.00    -0.145 A  
ENDBRANCH   7   8
ENDBRANCH   4   7
ENDBRANCH   2   4
BRANCH   3  18
HETATM   18  C   UNL     1     -11.005   7.985  69.548  1.00  0.00    -0.062 C  
BRANCH  18  19
HETATM   19  C   UNL     1     -11.689   6.728  70.214  1.00  0.00    -0.341 C  
BRANCH  19  20
HETATM   20  O   UNL     1     -12.754   7.015  71.198  1.00  0.00    -0.381 OA 
HETATM   21  O   UNL     1     -12.121   8.270  72.918  1.00  0.00    -0.290 OA 
HETATM   22  O   UNL     1     -14.393   8.309  72.039  1.00  0.00    -0.424 OA 
HETATM   23  P   UNL     1     -12.886   8.706  71.542  1.00  0.00    -0.262 P  
HETATM   24  O   UNL     1     -13.005  10.218  71.850  1.00  0.00    -0.427 OA 
ENDBRANCH  19  20
ENDBRANCH  18  19
ENDBRANCH   3  18
BRANCH   3  25
HETATM   25  S   UNL     1      -8.159   8.252  69.898  1.00  0.00    -0.120 SA 
BRANCH  25  26
HETATM   26  C   UNL     1      -7.527   6.912  70.940  1.00  0.00    -0.083 C  
HETATM   27  O   UNL     1      -6.329   6.808  71.177  1.00  0.00    -0.040 OA 
BRANCH  26  28
HETATM   28  C   UNL     1      -8.488   5.822  71.470  1.00  0.00    -0.128 A  
HETATM   29  C   UNL     1     -10.121   5.134  73.219  1.00  0.00    -0.198 A  
HETATM   30  C   UNL     1      -9.201   6.058  72.678  1.00  0.00    -0.143 A  
HETATM   31  C   UNL     1      -8.791   4.619  70.828  1.00  0.00    -0.155 A  
HETATM   32  C   UNL     1     -10.377   3.943  72.549  1.00  0.00    -0.210 A  
HETATM   33  C   UNL     1      -9.714   3.693  71.347  1.00  0.00    -0.241 A  
ENDBRANCH  26  28
ENDBRANCH  25  26
ENDBRANCH   3  25
TORSDOF 9
ENDMDL
MODEL      318
REMARK 921   NORMALIZED FREE ENERGY PREDICTED BY IDOCK:   -4.10 KCAL/MOL
REMARK 922        TOTAL FREE ENERGY PREDICTED BY IDOCK:   -7.77 KCAL/MOL
REMARK 923 INTER-LIGAND FREE ENERGY PREDICTED BY IDOCK:   -6.08 KCAL/MOL
REMARK 924 INTRA-LIGAND FREE ENERGY PREDICTED BY IDOCK:   -1.69 KCAL/MOL
REMARK 927      BINDING AFFINITY PREDICTED BY RF-SCORE:    0.00 PKD
ROOT
HETATM    1  C   UNL     1      -9.666   9.630  65.373  1.00  0.00    -0.365 C  
HETATM    2  C   UNL     1      -8.676   9.867  66.525  1.00  0.00    -0.128 C  
HETATM    3  C   UNL     1      -9.162  10.252  67.744  1.00  0.00    -0.141 C  
ENDROOT
BRANCH   2   4
HETATM    4  N   UNL     1      -7.340   9.593  66.174  1.00  0.00    -0.096 N  
HETATM    5  C   UNL     1      -6.765  10.150  65.020  1.00  0.00    -0.127 C  
HETATM    6  O   UNL     1      -5.742   9.766  64.473  1.00  0.00    -0.075 OA 
BRANCH   4   7
HETATM    7  C   UNL     1      -6.688   8.358  66.660  1.00  0.00    -0.061 C  
BRANCH   7   8
HETATM    8  C   UNL     1      -7.231   7.083  66.040  1.00  0.00    -0.074 A  
HETATM    9  H2  UNL     1      -7.940   7.322  68.513  1.00  0.00     0.000 HD 
HETATM   10  C   UNL     1      -6.915   6.487  64.871  1.00  0.00    -0.051 A  
HETATM   11  N   UNL     1      -8.979   5.381  66.109  1.00  0.00    -0.138 NA 
HETATM   12  N   UNL     1      -7.658   5.543  64.186  1.00  0.00    -0.069 NA 
HETATM   13  H1  UNL     1      -9.217   6.100  68.558  1.00  0.00     0.000 HD 
HETATM   14  C   UNL     1      -9.696   4.260  64.013  1.00  0.00    -0.085 C  
HETATM   15  N   UNL     1      -8.496   6.607  68.043  1.00  0.00    -0.116 NA 
HETATM   16  C   UNL     1      -8.703   5.073  64.802  1.00  0.00    -0.149 A  
HETATM   17  C   UNL     1      -8.287   6.341  66.794  1.00  0.00    -0.110 A  
ENDBRANCH   7   8
ENDBRANCH   4   7
ENDBRANCH   2   4
BRANCH   3  18
HETATM   18  C   UNL     1     -10.717  10.110  68.055  1.00  0.00    -0.305 C  
BRANCH  18  19
HETATM   19  C   UNL     1     -11.545  11.447  68.179  1.00  0.00    -0.294 C  
BRANCH  19  20
HETATM   20  O   UNL     1     -12.199  11.922  66.941  1.00  0.00    -0.493 OA 
HETATM   21  O   UNL     1     -12.053  14.110  66.588  1.00  0.00    -0.429 OA 
HETATM   22  O   UNL     1     -12.165  12.498  64.765  1.00  0.00    -0.432 OA 
HETATM   23  P   UNL     1     -11.144  12.897  65.978  1.00  0.00    -0.302 P  
HETATM   24  O   UNL     1     -10.200  13.770  65.116  1.00  0.00    -0.351 OA 
ENDBRANCH  19  20
ENDBRANCH  18  19
ENDBRANCH   3  18
BRANCH   3  25
HETATM   25  S   UNL     1      -8.166  10.909  69.125  1.00  0.00    -0.027 SA 
BRANCH  25  26
HETATM   26  C   UNL     1      -7.515   9.617  70.216  1.00  0.00    -0.158 C  
HETATM   27  O   UNL     1      -6.314   9.382  70.268  1.00  0.00    -0.047 OA 
BRANCH  26  28
HETATM   28  C   UNL     1      -8.485   8.727  71.028  1.00  0.00    -0.219 A  
HETATM   29  C   UNL     1     -10.802   8.365  71.863  1.00  0.00    -0.372 A  
HETATM   30  C   UNL     1      -9.841   9.130  71.165  1.00  0.00    -0.371 A  
HETATM   31  C   UNL     1      -8.171   7.492  71.603  1.00  0.00    -0.108 A  
HETATM   32  C   UNL     1     -10.436   7.150  72.429  1.00  0.00    -0.247 A  
HETATM   33  C   UNL     1      -9.119   6.713  72.291  1.00  0.00    -0.138 A  
ENDBRANCH  26  28
ENDBRANCH  25  26
ENDBRANCH   3  25
TORSDOF 9
ENDMDL
MODEL      319
REMARK 921   NORMALIZED FREE ENERGY PREDICTED BY IDOCK:   -4.07 KCAL/MOL
REMARK 922        TOTAL FREE ENERGY PREDICTED BY IDOCK:   -7.73 KCAL/MOL
REMARK 923 INTER-LIGAND FREE ENERGY PREDICTED BY IDOCK:   -6.08 KCAL/MOL
REMARK 924 INTRA-LIGAND FREE ENERGY PREDICTED BY IDOCK:   -1.65 KCAL/MOL
REMARK 927      BINDING AFFINITY PREDICTED BY RF-SCORE:    0.00 PKD
ROOT
HETATM    1  C   UNL     1     -11.004   7.237  67.272  1.00  0.00    -0.284 C  
HETATM    2  C   UNL     1      -9.957   7.135  68.394  1.00  0.00    -0.158 C  
HETATM    3  C   UNL     1      -9.727   8.227  69.183  1.00  0.00    -0.171 C  
ENDROOT
BRANCH   2   4
HETATM    4  N   UNL     1      -9.382   5.853  68.502  1.00  0.00    -0.120 N  
HETATM    5  C   UNL     1      -9.812   4.948  69.486  1.00  0.00    -0.217 C  
HETATM    6  O   UNL     1      -9.209   3.951  69.854  1.00  0.00    -0.111 OA 
BRANCH   4   7
HETATM    7  C   UNL     1      -8.018   5.611  67.986  1.00  0.00    -0.097 C  
BRANCH   7   8
HETATM    8  C   UNL     1      -7.647   6.460  66.784  1.00  0.00    -0.098 A  
HETATM    9  H2  UNL     1      -8.589   4.160  66.077  1.00  0.00     0.000 HD 
HETATM   10  C   UNL     1      -6.933   7.604  66.720  1.00  0.00    -0.079 A  
HETATM   11  N   UNL     1      -8.058   6.917  64.422  1.00  0.00    -0.095 NA 
HETATM   12  N   UNL     1      -6.911   8.519  65.684  1.00  0.00    -0.070 NA 
HETATM   13  H1  UNL     1      -8.901   4.497  64.370  1.00  0.00     0.000 HD 
HETATM   14  C   UNL     1      -7.779   9.223  63.543  1.00  0.00    -0.119 C  
HETATM   15  N   UNL     1      -8.571   4.804  65.286  1.00  0.00    -0.131 NA 
HETATM   16  C   UNL     1      -7.533   8.172  64.595  1.00  0.00    -0.096 A  
HETATM   17  C   UNL     1      -8.130   6.010  65.442  1.00  0.00    -0.132 A  
ENDBRANCH   7   8
ENDBRANCH   4   7
ENDBRANCH   2   4
BRANCH   3  18
HETATM   18  C   UNL     1     -10.758   9.441  69.172  1.00  0.00    -0.216 C  
BRANCH  18  19
HETATM   19  C   UNL     1     -10.253  10.801  68.551  1.00  0.00    -0.178 C  
BRANCH  19  20
HETATM   20  O   UNL     1     -10.474  10.972  67.100  1.00  0.00    -0.209 OA 
HETATM   21  O   UNL     1     -12.160  12.317  66.566  1.00  0.00    -0.616 OA 
HETATM   22  O   UNL     1     -10.187  12.073  65.157  1.00  0.00    -0.262 OA 
HETATM   23  P   UNL     1     -10.561  12.639  66.646  1.00  0.00    -0.256 P  
HETATM   24  O   UNL     1     -10.637  14.131  66.238  1.00  0.00    -0.278 OA 
ENDBRANCH  19  20
ENDBRANCH  18  19
ENDBRANCH   3  18
BRANCH   3  25
HETATM   25  S   UNL     1      -8.317   8.436  70.324  1.00  0.00    -0.129 SA 
BRANCH  25  26
HETATM   26  C   UNL     1      -8.745   8.119  72.055  1.00  0.00    -0.164 C  
HETATM   27  O   UNL     1      -8.285   8.811  72.956  1.00  0.00    -0.418 OA 
BRANCH  26  28
HETATM   28  C   UNL     1      -9.629   6.905  72.426  1.00  0.00    -0.167 A  
HETATM   29  C   UNL     1      -9.759   4.635  73.440  1.00  0.00    -0.152 A  
HETATM   30  C   UNL     1      -9.025   5.774  73.040  1.00  0.00    -0.122 A  
HETATM   31  C   UNL     1     -11.016   6.830  72.278  1.00  0.00    -0.276 A  
HETATM   32  C   UNL     1     -11.136   4.603  73.257  1.00  0.00    -0.403 A  
HETATM   33  C   UNL     1     -11.763   5.708  72.681  1.00  0.00    -0.256 A  
ENDBRANCH  26  28
ENDBRANCH  25  26
ENDBRANCH   3  25
TORSDOF 9
ENDMDL
MODEL      320
REMARK 921   NORMALIZED FREE ENERGY PREDICTED BY IDOCK:   -4.07 KCAL/MOL
REMARK 922        TOTAL FREE ENERGY PREDICTED BY IDOCK:   -7.71 KCAL/MOL
REMARK 923 INTER-LIGAND FREE ENERGY PREDICTED BY IDOCK:   -6.26 KCAL/MOL
REMARK 924 INTRA-LIGAND FREE ENERGY PREDICTED BY IDOCK:   -1.45 KCAL/MOL
REMARK 927      BINDING AFFINITY PREDICTED BY RF-SCORE:    0.00 PKD
ROOT
HETATM    1  C   UNL     1     -10.892   6.308  66.476  1.00  0.00    -0.137 C  
HETATM    2  C   UNL     1      -9.734   6.665  67.424  1.00  0.00    -0.128 C  
HETATM    3  C   UNL     1      -9.588   7.964  67.825  1.00  0.00    -0.147 C  
ENDROOT
BRANCH   2   4
HETATM    4  N   UNL     1      -8.973   5.547  67.817  1.00  0.00    -0.109 N  
HETATM    5  C   UNL     1      -8.552   5.389  69.148  1.00  0.00    -0.102 C  
HETATM    6  O   UNL     1      -7.670   4.637  69.535  1.00  0.00    -0.055 OA 
BRANCH   4   7
HETATM    7  C   UNL     1      -8.163   4.818  66.818  1.00  0.00    -0.107 C  
BRANCH   7   8
HETATM    8  C   UNL     1      -7.406   5.716  65.856  1.00  0.00    -0.073 A  
HETATM    9  H2  UNL     1      -8.954   4.066  64.608  1.00  0.00     0.000 HD 
HETATM   10  C   UNL     1      -6.359   6.538  66.081  1.00  0.00    -0.042 A  
HETATM   11  N   UNL     1      -7.382   6.755  63.646  1.00  0.00    -0.066 NA 
HETATM   12  N   UNL     1      -5.928   7.581  65.282  1.00  0.00    -0.038 NA 
HETATM   13  H1  UNL     1      -8.948   4.828  63.012  1.00  0.00     0.000 HD 
HETATM   14  C   UNL     1      -6.278   8.956  63.328  1.00  0.00    -0.089 C  
HETATM   15  N   UNL     1      -8.642   4.812  63.985  1.00  0.00    -0.135 NA 
HETATM   16  C   UNL     1      -6.503   7.695  64.121  1.00  0.00    -0.052 A  
HETATM   17  C   UNL     1      -7.856   5.739  64.430  1.00  0.00    -0.110 A  
ENDBRANCH   7   8
ENDBRANCH   4   7
ENDBRANCH   2   4
BRANCH   3  18
HETATM   18  C   UNL     1     -10.779   8.998  67.608  1.00  0.00    -0.232 C  
BRANCH  18  19
HETATM   19  C   UNL     1     -10.452  10.299  66.777  1.00  0.00    -0.214 C  
BRANCH  19  20
HETATM   20  O   UNL     1     -11.597  11.185  66.483  1.00  0.00    -0.278 OA 
HETATM   21  O   UNL     1     -11.124  13.355  66.489  1.00  0.00    -0.291 OA 
HETATM   22  O   UNL     1     -12.865  12.402  65.076  1.00  0.00    -0.673 OA 
HETATM   23  P   UNL     1     -11.239  12.322  65.229  1.00  0.00    -0.338 P  
HETATM   24  O   UNL     1     -10.919  13.338  64.107  1.00  0.00    -0.385 OA 
ENDBRANCH  19  20
ENDBRANCH  18  19
ENDBRANCH   3  18
BRANCH   3  25
HETATM   25  S   UNL     1      -8.116   8.661  68.651  1.00  0.00    -0.118 SA 
BRANCH  25  26
HETATM   26  C   UNL     1      -8.345   8.907  70.431  1.00  0.00    -0.149 C  
HETATM   27  O   UNL     1      -7.416   9.272  71.142  1.00  0.00    -0.243 OA 
BRANCH  26  28
HETATM   28  C   UNL     1      -9.700   8.567  71.094  1.00  0.00    -0.257 A  
HETATM   29  C   UNL     1     -11.990   9.332  71.704  1.00  0.00    -0.448 A  
HETATM   30  C   UNL     1     -10.713   9.563  71.146  1.00  0.00    -0.408 A  
HETATM   31  C   UNL     1     -10.070   7.318  71.601  1.00  0.00    -0.196 A  
HETATM   32  C   UNL     1     -12.303   8.076  72.209  1.00  0.00    -0.336 A  
HETATM   33  C   UNL     1     -11.341   7.068  72.149  1.00  0.00    -0.302 A  
ENDBRANCH  26  28
ENDBRANCH  25  26
ENDBRANCH   3  25
TORSDOF 9
ENDMDL
MODEL      321
REMARK 921   NORMALIZED FREE ENERGY PREDICTED BY IDOCK:   -4.06 KCAL/MOL
REMARK 922        TOTAL FREE ENERGY PREDICTED BY IDOCK:   -7.71 KCAL/MOL
REMARK 923 INTER-LIGAND FREE ENERGY PREDICTED BY IDOCK:   -5.88 KCAL/MOL
REMARK 924 INTRA-LIGAND FREE ENERGY PREDICTED BY IDOCK:   -1.83 KCAL/MOL
REMARK 927      BINDING AFFINITY PREDICTED BY RF-SCORE:    0.00 PKD
ROOT
HETATM    1  C   UNL     1      -6.370   8.883  67.247  1.00  0.00    -0.060 C  
HETATM    2  C   UNL     1      -7.442   7.827  67.563  1.00  0.00    -0.097 C  
HETATM    3  C   UNL     1      -8.642   7.889  66.909  1.00  0.00    -0.129 C  
ENDROOT
BRANCH   2   4
HETATM    4  N   UNL     1      -7.011   6.856  68.488  1.00  0.00    -0.073 N  
HETATM    5  C   UNL     1      -7.026   5.490  68.164  1.00  0.00    -0.065 C  
HETATM    6  O   UNL     1      -6.955   4.564  68.959  1.00  0.00    -0.049 OA 
BRANCH   4   7
HETATM    7  C   UNL     1      -7.040   7.153  69.936  1.00  0.00    -0.073 C  
BRANCH   7   8
HETATM    8  C   UNL     1      -8.433   7.169  70.540  1.00  0.00    -0.139 A  
HETATM    9  H2  UNL     1      -7.430   9.545  70.383  1.00  0.00     0.000 HD 
HETATM   10  C   UNL     1      -9.192   6.148  70.991  1.00  0.00    -0.157 A  
HETATM   11  N   UNL     1     -10.461   8.473  70.922  1.00  0.00    -0.197 NA 
HETATM   12  N   UNL     1     -10.558   6.153  71.204  1.00  0.00    -0.236 NA 
HETATM   13  H1  UNL     1      -8.902  10.489  70.643  1.00  0.00     0.000 HD 
HETATM   14  C   UNL     1     -12.661   7.329  71.041  1.00  0.00    -0.284 C  
HETATM   15  N   UNL     1      -8.435   9.586  70.557  1.00  0.00    -0.198 NA 
HETATM   16  C   UNL     1     -11.156   7.304  71.094  1.00  0.00    -0.253 A  
HETATM   17  C   UNL     1      -9.117   8.492  70.667  1.00  0.00    -0.160 A  
ENDBRANCH   7   8
ENDBRANCH   4   7
ENDBRANCH   2   4
BRANCH   3  18
HETATM   18  C   UNL     1      -8.789   8.802  65.613  1.00  0.00    -0.239 C  
BRANCH  18  19
HETATM   19  C   UNL     1     -10.004   9.807  65.582  1.00  0.00    -0.282 C  
BRANCH  19  20
HETATM   20  O   UNL     1      -9.932  10.940  66.528  1.00  0.00    -0.198 OA 
HETATM   21  O   UNL     1     -11.861  11.982  66.886  1.00  0.00    -0.580 OA 
HETATM   22  O   UNL     1     -10.122  11.832  68.587  1.00  0.00    -0.216 OA 
HETATM   23  P   UNL     1     -11.125  10.826  67.776  1.00  0.00    -0.276 P  
HETATM   24  O   UNL     1     -12.192  10.724  68.893  1.00  0.00    -0.447 OA 
ENDBRANCH  19  20
ENDBRANCH  18  19
ENDBRANCH   3  18
BRANCH   3  25
HETATM   25  S   UNL     1     -10.150   6.968  67.368  1.00  0.00    -0.220 SA 
BRANCH  25  26
HETATM   26  C   UNL     1     -10.073   5.210  66.937  1.00  0.00    -0.226 C  
HETATM   27  O   UNL     1     -10.105   4.346  67.806  1.00  0.00    -0.084 OA 
BRANCH  26  28
HETATM   28  C   UNL     1      -9.869   4.780  65.466  1.00  0.00    -0.163 A  
HETATM   29  C   UNL     1      -8.364   4.723  63.484  1.00  0.00    -0.117 A  
HETATM   30  C   UNL     1      -8.647   5.102  64.815  1.00  0.00    -0.148 A  
HETATM   31  C   UNL     1     -10.764   4.021  64.707  1.00  0.00    -0.140 A  
HETATM   32  C   UNL     1      -9.294   3.981  62.766  1.00  0.00    -0.122 A  
HETATM   33  C   UNL     1     -10.493   3.626  63.385  1.00  0.00    -0.250 A  
ENDBRANCH  26  28
ENDBRANCH  25  26
ENDBRANCH   3  25
TORSDOF 9
ENDMDL
MODEL      322
REMARK 921   NORMALIZED FREE ENERGY PREDICTED BY IDOCK:   -4.02 KCAL/MOL
REMARK 922        TOTAL FREE ENERGY PREDICTED BY IDOCK:   -7.64 KCAL/MOL
REMARK 923 INTER-LIGAND FREE ENERGY PREDICTED BY IDOCK:   -7.77 KCAL/MOL
REMARK 924 INTRA-LIGAND FREE ENERGY PREDICTED BY IDOCK:    0.13 KCAL/MOL
REMARK 927      BINDING AFFINITY PREDICTED BY RF-SCORE:    0.00 PKD
ROOT
HETATM    1  C   UNL     1      -7.293  11.179  66.046  1.00  0.00     0.045 C  
HETATM    2  C   UNL     1      -8.347  10.375  66.825  1.00  0.00    -0.126 C  
HETATM    3  C   UNL     1      -8.010   9.852  68.043  1.00  0.00    -0.100 C  
ENDROOT
BRANCH   2   4
HETATM    4  N   UNL     1      -9.597  10.325  66.179  1.00  0.00    -0.186 N  
HETATM    5  C   UNL     1      -9.687  10.270  64.778  1.00  0.00    -0.332 C  
HETATM    6  O   UNL     1     -10.684  10.511  64.114  1.00  0.00    -0.052 OA 
BRANCH   4   7
HETATM    7  C   UNL     1     -10.801  10.850  66.859  1.00  0.00    -0.249 C  
BRANCH   7   8
HETATM    8  C   UNL     1     -11.141  12.286  66.503  1.00  0.00    -0.343 A  
HETATM    9  H2  UNL     1      -9.842  12.135  68.731  1.00  0.00     0.000 HD 
HETATM   10  C   UNL     1     -11.983  12.768  65.564  1.00  0.00    -0.449 A  
HETATM   11  N   UNL     1     -10.531  14.636  66.758  1.00  0.00    -0.274 NA 
HETATM   12  N   UNL     1     -12.005  14.048  65.039  1.00  0.00    -0.380 NA 
HETATM   13  H1  UNL     1      -9.387  13.834  68.907  1.00  0.00     0.000 HD 
HETATM   14  C   UNL     1     -11.001  16.240  64.922  1.00  0.00    -0.321 C  
HETATM   15  N   UNL     1      -9.853  13.093  68.382  1.00  0.00    -0.226 NA 
HETATM   16  C   UNL     1     -11.227  14.920  65.611  1.00  0.00    -0.347 A  
HETATM   17  C   UNL     1     -10.458  13.371  67.272  1.00  0.00    -0.248 A  
ENDBRANCH   7   8
ENDBRANCH   4   7
ENDBRANCH   2   4
BRANCH   3  18
HETATM   18  C   UNL     1      -6.696  10.360  68.784  1.00  0.00    -0.053 C  
BRANCH  18  19
HETATM   19  C   UNL     1      -6.251  11.849  68.510  1.00  0.00    -0.052 C  
BRANCH  19  20
HETATM   20  O   UNL     1      -7.001  12.893  69.237  1.00  0.00    -0.066 OA 
HETATM   21  O   UNL     1      -6.038  13.599  71.111  1.00  0.00    -0.190 OA 
HETATM   22  O   UNL     1      -7.443  15.043  69.741  1.00  0.00    -0.198 OA 
HETATM   23  P   UNL     1      -6.012  14.261  69.618  1.00  0.00    -0.131 P  
HETATM   24  O   UNL     1      -5.128  15.486  69.958  1.00  0.00    -0.101 OA 
ENDBRANCH  19  20
ENDBRANCH  18  19
ENDBRANCH   3  18
BRANCH   3  25
HETATM   25  S   UNL     1      -8.969   8.601  68.963  1.00  0.00    -0.142 SA 
BRANCH  25  26
HETATM   26  C   UNL     1      -9.310   9.081  70.677  1.00  0.00    -0.234 C  
HETATM   27  O   UNL     1      -8.406   9.163  71.501  1.00  0.00    -0.336 OA 
BRANCH  26  28
HETATM   28  C   UNL     1     -10.767   9.304  71.145  1.00  0.00    -0.403 A  
HETATM   29  C   UNL     1     -12.828  10.693  71.005  1.00  0.00    -0.496 A  
HETATM   30  C   UNL     1     -11.486  10.429  70.655  1.00  0.00    -0.438 A  
HETATM   31  C   UNL     1     -11.498   8.448  71.973  1.00  0.00    -0.418 A  
HETATM   32  C   UNL     1     -13.507   9.818  71.844  1.00  0.00    -0.485 A  
HETATM   33  C   UNL     1     -12.839   8.690  72.321  1.00  0.00    -0.438 A  
ENDBRANCH  26  28
ENDBRANCH  25  26
ENDBRANCH   3  25
TORSDOF 9
ENDMDL
MODEL      323
REMARK 921   NORMALIZED FREE ENERGY PREDICTED BY IDOCK:   -4.01 KCAL/MOL
REMARK 922        TOTAL FREE ENERGY PREDICTED BY IDOCK:   -7.63 KCAL/MOL
REMARK 923 INTER-LIGAND FREE ENERGY PREDICTED BY IDOCK:   -7.23 KCAL/MOL
REMARK 924 INTRA-LIGAND FREE ENERGY PREDICTED BY IDOCK:   -0.39 KCAL/MOL
REMARK 927      BINDING AFFINITY PREDICTED BY RF-SCORE:    0.00 PKD
ROOT
HETATM    1  C   UNL     1      -7.748  10.579  68.334  1.00  0.00    -0.104 C  
HETATM    2  C   UNL     1      -8.701   9.442  67.928  1.00  0.00    -0.120 C  
HETATM    3  C   UNL     1      -9.477   8.858  68.890  1.00  0.00    -0.152 C  
ENDROOT
BRANCH   2   4
HETATM    4  N   UNL     1      -8.689   9.173  66.546  1.00  0.00    -0.126 N  
HETATM    5  C   UNL     1      -7.486   9.162  65.820  1.00  0.00    -0.090 C  
HETATM    6  O   UNL     1      -7.382   9.228  64.604  1.00  0.00    -0.097 OA 
BRANCH   4   7
HETATM    7  C   UNL     1      -9.901   9.420  65.736  1.00  0.00    -0.275 C  
BRANCH   7   8
HETATM    8  C   UNL     1     -10.187  10.887  65.474  1.00  0.00    -0.332 A  
HETATM    9  H2  UNL     1      -9.296   9.695  63.362  1.00  0.00     0.000 HD 
HETATM   10  C   UNL     1     -10.443  11.887  66.344  1.00  0.00    -0.223 A  
HETATM   11  N   UNL     1     -10.757  12.575  63.804  1.00  0.00    -0.434 NA 
HETATM   12  N   UNL     1     -11.032  13.107  66.065  1.00  0.00    -0.277 NA 
HETATM   13  H1  UNL     1      -9.724  10.910  62.152  1.00  0.00     0.000 HD 
HETATM   14  C   UNL     1     -12.108  14.553  64.458  1.00  0.00    -0.501 C  
HETATM   15  N   UNL     1      -9.708  10.597  63.123  1.00  0.00    -0.329 NA 
HETATM   16  C   UNL     1     -11.231  13.379  64.809  1.00  0.00    -0.345 A  
HETATM   17  C   UNL     1     -10.210  11.346  64.051  1.00  0.00    -0.346 A  
ENDBRANCH   7   8
ENDBRANCH   4   7
ENDBRANCH   2   4
BRANCH   3  18
HETATM   18  C   UNL     1      -9.651   9.569  70.304  1.00  0.00    -0.314 C  
BRANCH  18  19
HETATM   19  C   UNL     1      -9.428   8.674  71.585  1.00  0.00    -0.269 C  
BRANCH  19  20
HETATM   20  O   UNL     1      -8.334   9.093  72.485  1.00  0.00    -0.190 OA 
HETATM   21  O   UNL     1      -8.369   8.153  74.497  1.00  0.00    -0.223 OA 
HETATM   22  O   UNL     1      -6.297   8.824  73.406  1.00  0.00    -0.226 OA 
HETATM   23  P   UNL     1      -7.502   7.742  73.175  1.00  0.00    -0.123 P  
HETATM   24  O   UNL     1      -6.757   6.534  73.792  1.00  0.00    -0.073 OA 
ENDBRANCH  19  20
ENDBRANCH  18  19
ENDBRANCH   3  18
BRANCH   3  25
HETATM   25  S   UNL     1     -10.404   7.296  68.703  1.00  0.00    -0.192 SA 
BRANCH  25  26
HETATM   26  C   UNL     1     -11.439   6.904  70.138  1.00  0.00    -0.303 C  
HETATM   27  O   UNL     1     -12.463   7.537  70.369  1.00  0.00     0.100 OA 
BRANCH  26  28
HETATM   28  C   UNL     1     -10.990   5.820  71.145  1.00  0.00    -0.295 A  
HETATM   29  C   UNL     1     -11.399   4.675  73.318  1.00  0.00    -0.393 A  
HETATM   30  C   UNL     1     -11.719   5.658  72.355  1.00  0.00    -0.240 A  
HETATM   31  C   UNL     1      -9.950   4.908  70.952  1.00  0.00    -0.287 A  
HETATM   32  C   UNL     1     -10.344   3.800  73.085  1.00  0.00    -0.241 A  
HETATM   33  C   UNL     1      -9.625   3.916  71.895  1.00  0.00    -0.217 A  
ENDBRANCH  26  28
ENDBRANCH  25  26
ENDBRANCH   3  25
TORSDOF 9
ENDMDL
MODEL      324
REMARK 921   NORMALIZED FREE ENERGY PREDICTED BY IDOCK:   -4.00 KCAL/MOL
REMARK 922        TOTAL FREE ENERGY PREDICTED BY IDOCK:   -7.62 KCAL/MOL
REMARK 923 INTER-LIGAND FREE ENERGY PREDICTED BY IDOCK:   -7.07 KCAL/MOL
REMARK 924 INTRA-LIGAND FREE ENERGY PREDICTED BY IDOCK:   -0.54 KCAL/MOL
REMARK 927      BINDING AFFINITY PREDICTED BY RF-SCORE:    0.00 PKD
ROOT
HETATM    1  C   UNL     1      -8.227  10.481  67.746  1.00  0.00    -0.107 C  
HETATM    2  C   UNL     1      -9.088   9.932  68.897  1.00  0.00    -0.156 C  
HETATM    3  C   UNL     1      -8.732   8.747  69.479  1.00  0.00    -0.138 C  
ENDROOT
BRANCH   2   4
HETATM    4  N   UNL     1     -10.148  10.787  69.255  1.00  0.00    -0.207 N  
HETATM    5  C   UNL     1     -11.405  10.272  69.612  1.00  0.00    -0.257 C  
HETATM    6  O   UNL     1     -12.451  10.903  69.656  1.00  0.00    -0.302 OA 
BRANCH   4   7
HETATM    7  C   UNL     1     -10.162  12.185  68.774  1.00  0.00    -0.116 C  
BRANCH   7   8
HETATM    8  C   UNL     1     -10.975  12.400  67.510  1.00  0.00    -0.293 A  
HETATM    9  H2  UNL     1     -11.682  14.026  69.390  1.00  0.00     0.000 HD 
HETATM   10  C   UNL     1     -11.072  11.633  66.403  1.00  0.00    -0.291 A  
HETATM   11  N   UNL     1     -12.286  13.979  66.187  1.00  0.00    -0.450 NA 
HETATM   12  N   UNL     1     -11.532  12.018  65.157  1.00  0.00    -0.313 NA 
HETATM   13  H1  UNL     1     -12.618  15.177  68.428  1.00  0.00     0.000 HD 
HETATM   14  C   UNL     1     -12.324  13.783  63.712  1.00  0.00    -0.313 C  
HETATM   15  N   UNL     1     -12.052  14.330  68.489  1.00  0.00    -0.305 NA 
HETATM   16  C   UNL     1     -12.061  13.204  65.078  1.00  0.00    -0.415 A  
HETATM   17  C   UNL     1     -11.804  13.641  67.421  1.00  0.00    -0.393 A  
ENDBRANCH   7   8
ENDBRANCH   4   7
ENDBRANCH   2   4
BRANCH   3  18
HETATM   18  C   UNL     1      -7.283   8.141  69.217  1.00  0.00    -0.072 C  
BRANCH  18  19
HETATM   19  C   UNL     1      -7.176   6.983  68.150  1.00  0.00    -0.091 C  
BRANCH  19  20
HETATM   20  O   UNL     1      -7.695   7.294  66.802  1.00  0.00    -0.104 OA 
HETATM   21  O   UNL     1      -6.197   8.140  65.397  1.00  0.00    -0.045 OA 
HETATM   22  O   UNL     1      -8.069   6.777  64.643  1.00  0.00    -0.127 OA 
HETATM   23  P   UNL     1      -6.721   6.601  65.551  1.00  0.00    -0.053 P  
HETATM   24  O   UNL     1      -5.849   5.981  64.432  1.00  0.00    -0.024 OA 
ENDBRANCH  19  20
ENDBRANCH  18  19
ENDBRANCH   3  18
BRANCH   3  25
HETATM   25  S   UNL     1      -9.779   7.758  70.601  1.00  0.00    -0.177 SA 
BRANCH  25  26
HETATM   26  C   UNL     1     -10.972   6.710  69.728  1.00  0.00    -0.313 C  
HETATM   27  O   UNL     1     -12.128   6.609  70.121  1.00  0.00    -0.323 OA 
BRANCH  26  28
HETATM   28  C   UNL     1     -10.516   5.853  68.525  1.00  0.00    -0.297 A  
HETATM   29  C   UNL     1      -9.339   3.809  67.730  1.00  0.00    -0.237 A  
HETATM   30  C   UNL     1      -9.769   4.667  68.765  1.00  0.00    -0.230 A  
HETATM   31  C   UNL     1     -10.832   6.094  67.185  1.00  0.00    -0.442 A  
HETATM   32  C   UNL     1      -9.666   4.101  66.411  1.00  0.00    -0.223 A  
HETATM   33  C   UNL     1     -10.421   5.243  66.143  1.00  0.00    -0.259 A  
ENDBRANCH  26  28
ENDBRANCH  25  26
ENDBRANCH   3  25
TORSDOF 9
ENDMDL
MODEL      325
REMARK 921   NORMALIZED FREE ENERGY PREDICTED BY IDOCK:   -3.99 KCAL/MOL
REMARK 922        TOTAL FREE ENERGY PREDICTED BY IDOCK:   -7.60 KCAL/MOL
REMARK 923 INTER-LIGAND FREE ENERGY PREDICTED BY IDOCK:   -6.51 KCAL/MOL
REMARK 924 INTRA-LIGAND FREE ENERGY PREDICTED BY IDOCK:   -1.09 KCAL/MOL
REMARK 927      BINDING AFFINITY PREDICTED BY RF-SCORE:    0.00 PKD
ROOT
HETATM    1  C   UNL     1      -8.841  10.673  65.779  1.00  0.00    -0.198 C  
HETATM    2  C   UNL     1      -8.799  10.236  67.253  1.00  0.00    -0.132 C  
HETATM    3  C   UNL     1      -8.020  10.942  68.127  1.00  0.00    -0.117 C  
ENDROOT
BRANCH   2   4
HETATM    4  N   UNL     1      -9.648   9.149  67.534  1.00  0.00    -0.145 N  
HETATM    5  C   UNL     1      -9.851   8.125  66.594  1.00  0.00    -0.261 C  
HETATM    6  O   UNL     1     -10.760   7.309  66.608  1.00  0.00    -0.243 OA 
BRANCH   4   7
HETATM    7  C   UNL     1     -10.725   9.294  68.537  1.00  0.00    -0.142 C  
BRANCH   7   8
HETATM    8  C   UNL     1     -11.339  10.681  68.594  1.00  0.00    -0.345 A  
HETATM    9  H2  UNL     1     -11.534   9.456  70.860  1.00  0.00     0.000 HD 
HETATM   10  C   UNL     1     -11.638  11.536  67.593  1.00  0.00    -0.247 A  
HETATM   11  N   UNL     1     -11.937  12.577  70.011  1.00  0.00    -0.334 NA 
HETATM   12  N   UNL     1     -11.864  12.896  67.695  1.00  0.00    -0.362 NA 
HETATM   13  H1  UNL     1     -11.951  10.832  71.888  1.00  0.00     0.000 HD 
HETATM   14  C   UNL     1     -11.905  14.877  69.076  1.00  0.00    -0.333 C  
HETATM   15  N   UNL     1     -11.723  10.452  70.969  1.00  0.00    -0.353 NA 
HETATM   16  C   UNL     1     -11.937  13.381  68.900  1.00  0.00    -0.324 A  
HETATM   17  C   UNL     1     -11.674  11.237  69.941  1.00  0.00    -0.352 A  
ENDBRANCH   7   8
ENDBRANCH   4   7
ENDBRANCH   2   4
BRANCH   3  18
HETATM   18  C   UNL     1      -7.463  12.374  67.711  1.00  0.00    -0.126 C  
BRANCH  18  19
HETATM   19  C   UNL     1      -7.950  13.606  68.569  1.00  0.00    -0.127 C  
BRANCH  19  20
HETATM   20  O   UNL     1      -8.447  14.770  67.806  1.00  0.00    -0.149 OA 
HETATM   21  O   UNL     1      -7.610  16.727  68.441  1.00  0.00    -0.186 OA 
HETATM   22  O   UNL     1      -8.284  16.279  66.143  1.00  0.00    -0.315 OA 
HETATM   23  P   UNL     1      -7.158  15.757  67.208  1.00  0.00    -0.141 P  
HETATM   24  O   UNL     1      -6.004  16.639  66.672  1.00  0.00    -0.306 OA 
ENDBRANCH  19  20
ENDBRANCH  18  19
ENDBRANCH   3  18
BRANCH   3  25
HETATM   25  S   UNL     1      -7.558  10.404  69.810  1.00  0.00    -0.085 SA 
BRANCH  25  26
HETATM   26  C   UNL     1      -7.414   8.605  69.971  1.00  0.00    -0.056 C  
HETATM   27  O   UNL     1      -6.822   7.942  69.128  1.00  0.00    -0.050 OA 
BRANCH  26  28
HETATM   28  C   UNL     1      -8.121   7.871  71.134  1.00  0.00    -0.093 A  
HETATM   29  C   UNL     1      -8.352   5.780  72.465  1.00  0.00    -0.117 A  
HETATM   30  C   UNL     1      -7.780   6.518  71.406  1.00  0.00    -0.099 A  
HETATM   31  C   UNL     1      -9.040   8.441  72.019  1.00  0.00    -0.296 A  
HETATM   32  C   UNL     1      -9.274   6.388  73.309  1.00  0.00    -0.136 A  
HETATM   33  C   UNL     1      -9.611   7.723  73.087  1.00  0.00    -0.337 A  
ENDBRANCH  26  28
ENDBRANCH  25  26
ENDBRANCH   3  25
TORSDOF 9
ENDMDL
MODEL      326
REMARK 921   NORMALIZED FREE ENERGY PREDICTED BY IDOCK:   -3.98 KCAL/MOL
REMARK 922        TOTAL FREE ENERGY PREDICTED BY IDOCK:   -7.59 KCAL/MOL
REMARK 923 INTER-LIGAND FREE ENERGY PREDICTED BY IDOCK:   -6.58 KCAL/MOL
REMARK 924 INTRA-LIGAND FREE ENERGY PREDICTED BY IDOCK:   -1.01 KCAL/MOL
REMARK 927      BINDING AFFINITY PREDICTED BY RF-SCORE:    0.00 PKD
ROOT
HETATM    1  C   UNL     1      -5.520  11.101  66.537  1.00  0.00    -0.124 C  
HETATM    2  C   UNL     1      -6.349   9.953  67.138  1.00  0.00    -0.068 C  
HETATM    3  C   UNL     1      -6.992  10.157  68.327  1.00  0.00    -0.070 C  
ENDROOT
BRANCH   2   4
HETATM    4  N   UNL     1      -6.383   8.807  66.321  1.00  0.00    -0.060 N  
HETATM    5  C   UNL     1      -5.331   8.514  65.439  1.00  0.00    -0.035 C  
HETATM    6  O   UNL     1      -5.379   7.732  64.500  1.00  0.00    -0.029 OA 
BRANCH   4   7
HETATM    7  C   UNL     1      -7.681   8.192  65.967  1.00  0.00    -0.090 C  
BRANCH   7   8
HETATM    8  C   UNL     1      -8.587   9.084  65.140  1.00  0.00    -0.204 A  
HETATM    9  H2  UNL     1      -9.815   8.119  67.198  1.00  0.00     0.000 HD 
HETATM   10  C   UNL     1      -8.407   9.589  63.900  1.00  0.00    -0.172 A  
HETATM   11  N   UNL     1     -10.549  10.537  65.139  1.00  0.00    -0.154 NA 
HETATM   12  N   UNL     1      -9.073  10.657  63.328  1.00  0.00    -0.230 NA 
HETATM   13  H1  UNL     1     -11.228   9.182  67.206  1.00  0.00     0.000 HD 
HETATM   14  C   UNL     1     -10.663  12.458  63.569  1.00  0.00    -0.473 C  
HETATM   15  N   UNL     1     -10.342   8.893  66.791  1.00  0.00    -0.268 NA 
HETATM   16  C   UNL     1     -10.078  11.138  63.999  1.00  0.00    -0.336 A  
HETATM   17  C   UNL     1      -9.886   9.508  65.748  1.00  0.00    -0.293 A  
ENDBRANCH   7   8
ENDBRANCH   4   7
ENDBRANCH   2   4
BRANCH   3  18
HETATM   18  C   UNL     1      -7.170  11.637  68.887  1.00  0.00    -0.113 C  
BRANCH  18  19
HETATM   19  C   UNL     1      -7.882  12.678  67.938  1.00  0.00    -0.154 C  
BRANCH  19  20
HETATM   20  O   UNL     1      -9.355  12.740  68.034  1.00  0.00    -0.200 OA 
HETATM   21  O   UNL     1     -10.169  14.722  68.618  1.00  0.00    -0.223 OA 
HETATM   22  O   UNL     1     -11.390  13.182  67.179  1.00  0.00    -0.289 OA 
HETATM   23  P   UNL     1     -10.013  14.062  67.132  1.00  0.00    -0.262 P  
HETATM   24  O   UNL     1     -10.601  15.245  66.326  1.00  0.00    -0.294 OA 
ENDBRANCH  19  20
ENDBRANCH  18  19
ENDBRANCH   3  18
BRANCH   3  25
HETATM   25  S   UNL     1      -7.730   8.854  69.372  1.00  0.00    -0.095 SA 
BRANCH  25  26
HETATM   26  C   UNL     1      -9.365   9.296  70.016  1.00  0.00    -0.209 C  
HETATM   27  O   UNL     1      -9.846  10.404  69.808  1.00  0.00    -0.198 OA 
BRANCH  26  28
HETATM   28  C   UNL     1     -10.136   8.307  70.921  1.00  0.00    -0.224 A  
HETATM   29  C   UNL     1     -11.395   6.166  71.096  1.00  0.00    -0.340 A  
HETATM   30  C   UNL     1     -10.702   7.138  70.341  1.00  0.00    -0.255 A  
HETATM   31  C   UNL     1     -10.279   8.410  72.307  1.00  0.00    -0.396 A  
HETATM   32  C   UNL     1     -11.523   6.323  72.471  1.00  0.00    -0.300 A  
HETATM   33  C   UNL     1     -10.956   7.446  73.075  1.00  0.00    -0.422 A  
ENDBRANCH  26  28
ENDBRANCH  25  26
ENDBRANCH   3  25
TORSDOF 9
ENDMDL
MODEL      327
REMARK 921   NORMALIZED FREE ENERGY PREDICTED BY IDOCK:   -3.97 KCAL/MOL
REMARK 922        TOTAL FREE ENERGY PREDICTED BY IDOCK:   -7.57 KCAL/MOL
REMARK 923 INTER-LIGAND FREE ENERGY PREDICTED BY IDOCK:   -6.60 KCAL/MOL
REMARK 924 INTRA-LIGAND FREE ENERGY PREDICTED BY IDOCK:   -0.97 KCAL/MOL
REMARK 927      BINDING AFFINITY PREDICTED BY RF-SCORE:    0.00 PKD
ROOT
HETATM    1  C   UNL     1      -8.101  10.822  68.303  1.00  0.00    -0.121 C  
HETATM    2  C   UNL     1      -8.676   9.509  67.745  1.00  0.00    -0.115 C  
HETATM    3  C   UNL     1      -9.485   8.751  68.545  1.00  0.00    -0.145 C  
ENDROOT
BRANCH   2   4
HETATM    4  N   UNL     1      -8.321   9.274  66.402  1.00  0.00    -0.117 N  
HETATM    5  C   UNL     1      -6.996   9.427  65.966  1.00  0.00    -0.090 C  
HETATM    6  O   UNL     1      -6.632   9.532  64.803  1.00  0.00    -0.080 OA 
BRANCH   4   7
HETATM    7  C   UNL     1      -9.343   9.385  65.339  1.00  0.00    -0.247 C  
BRANCH   7   8
HETATM    8  C   UNL     1      -9.862  10.794  65.120  1.00  0.00    -0.333 A  
HETATM    9  H2  UNL     1      -8.625   9.895  63.038  1.00  0.00     0.000 HD 
HETATM   10  C   UNL     1     -10.352  11.684  66.009  1.00  0.00    -0.243 A  
HETATM   11  N   UNL     1     -10.596  12.453  63.485  1.00  0.00    -0.440 NA 
HETATM   12  N   UNL     1     -11.124  12.799  65.737  1.00  0.00    -0.279 NA 
HETATM   13  H1  UNL     1      -9.169  11.087  61.851  1.00  0.00     0.000 HD 
HETATM   14  C   UNL     1     -12.317  14.129  64.113  1.00  0.00    -0.372 C  
HETATM   15  N   UNL     1      -9.169  10.726  62.805  1.00  0.00    -0.292 NA 
HETATM   16  C   UNL     1     -11.275  13.104  64.482  1.00  0.00    -0.354 A  
HETATM   17  C   UNL     1      -9.861  11.323  63.721  1.00  0.00    -0.322 A  
ENDBRANCH   7   8
ENDBRANCH   4   7
ENDBRANCH   2   4
BRANCH   3  18
HETATM   18  C   UNL     1     -10.097   9.382  69.873  1.00  0.00    -0.243 C  
BRANCH  18  19
HETATM   19  C   UNL     1     -10.151   8.451  71.146  1.00  0.00    -0.196 C  
BRANCH  19  20
HETATM   20  O   UNL     1      -9.293   8.854  72.280  1.00  0.00    -0.360 OA 
HETATM   21  O   UNL     1      -9.567   7.655  74.129  1.00  0.00    -0.153 OA 
HETATM   22  O   UNL     1      -7.433   8.670  73.535  1.00  0.00    -0.359 OA 
HETATM   23  P   UNL     1      -8.436   7.513  72.959  1.00  0.00    -0.162 P  
HETATM   24  O   UNL     1      -7.669   6.314  73.567  1.00  0.00    -0.095 OA 
ENDBRANCH  19  20
ENDBRANCH  18  19
ENDBRANCH   3  18
BRANCH   3  25
HETATM   25  S   UNL     1      -9.987   7.027  68.219  1.00  0.00    -0.158 SA 
BRANCH  25  26
HETATM   26  C   UNL     1      -8.700   5.818  68.629  1.00  0.00    -0.108 C  
HETATM   27  O   UNL     1      -7.539   5.989  68.274  1.00  0.00    -0.088 OA 
BRANCH  26  28
HETATM   28  C   UNL     1      -9.072   4.505  69.355  1.00  0.00    -0.167 A  
HETATM   29  C   UNL     1      -9.339   2.034  69.219  1.00  0.00    -0.176 A  
HETATM   30  C   UNL     1      -9.044   3.283  68.629  1.00  0.00    -0.206 A  
HETATM   31  C   UNL     1      -9.375   4.382  70.714  1.00  0.00    -0.224 A  
HETATM   32  C   UNL     1      -9.650   1.966  70.571  1.00  0.00    -0.129 A  
HETATM   33  C   UNL     1      -9.660   3.144  71.319  1.00  0.00    -0.229 A  
ENDBRANCH  26  28
ENDBRANCH  25  26
ENDBRANCH   3  25
TORSDOF 9
ENDMDL
MODEL      328
REMARK 921   NORMALIZED FREE ENERGY PREDICTED BY IDOCK:   -3.97 KCAL/MOL
REMARK 922        TOTAL FREE ENERGY PREDICTED BY IDOCK:   -7.57 KCAL/MOL
REMARK 923 INTER-LIGAND FREE ENERGY PREDICTED BY IDOCK:   -7.47 KCAL/MOL
REMARK 924 INTRA-LIGAND FREE ENERGY PREDICTED BY IDOCK:   -0.10 KCAL/MOL
REMARK 927      BINDING AFFINITY PREDICTED BY RF-SCORE:    0.00 PKD
ROOT
HETATM    1  C   UNL     1      -6.560  11.698  69.818  1.00  0.00    -0.071 C  
HETATM    2  C   UNL     1      -7.568  11.595  68.661  1.00  0.00    -0.133 C  
HETATM    3  C   UNL     1      -8.523  10.617  68.704  1.00  0.00    -0.142 C  
ENDROOT
BRANCH   2   4
HETATM    4  N   UNL     1      -7.404  12.601  67.689  1.00  0.00    -0.125 N  
HETATM    5  C   UNL     1      -6.173  13.255  67.525  1.00  0.00    -0.105 C  
HETATM    6  O   UNL     1      -5.996  14.311  66.935  1.00  0.00     0.388 OA 
BRANCH   4   7
HETATM    7  C   UNL     1      -8.580  13.356  67.203  1.00  0.00    -0.195 C  
BRANCH   7   8
HETATM    8  C   UNL     1      -8.600  14.814  67.624  1.00  0.00    -0.180 A  
HETATM    9  H2  UNL     1      -8.967  14.548  65.081  1.00  0.00     0.000 HD 
HETATM   10  C   UNL     1      -8.234  15.382  68.793  1.00  0.00    -0.172 A  
HETATM   11  N   UNL     1      -9.403  17.062  67.109  1.00  0.00    -0.232 NA 
HETATM   12  N   UNL     1      -8.585  16.636  69.259  1.00  0.00    -0.110 NA 
HETATM   13  H1  UNL     1      -9.563  16.170  64.711  1.00  0.00     0.000 HD 
HETATM   14  C   UNL     1      -9.863  18.661  68.952  1.00  0.00    -0.394 C  
HETATM   15  N   UNL     1      -9.219  15.487  65.387  1.00  0.00    -0.007 NA 
HETATM   16  C   UNL     1      -9.218  17.406  68.424  1.00  0.00    -0.277 A  
HETATM   17  C   UNL     1      -9.104  15.815  66.634  1.00  0.00    -0.268 A  
ENDBRANCH   7   8
ENDBRANCH   4   7
ENDBRANCH   2   4
BRANCH   3  18
HETATM   18  C   UNL     1      -8.803   9.845  70.068  1.00  0.00    -0.194 C  
BRANCH  18  19
HETATM   19  C   UNL     1      -9.472   8.420  69.958  1.00  0.00    -0.164 C  
BRANCH  19  20
HETATM   20  O   UNL     1     -10.849   8.308  70.483  1.00  0.00    -0.225 OA 
HETATM   21  O   UNL     1     -11.353   6.334  71.366  1.00  0.00    -0.282 OA 
HETATM   22  O   UNL     1     -12.360   8.410  72.148  1.00  0.00    -0.330 OA 
HETATM   23  P   UNL     1     -10.882   7.712  72.106  1.00  0.00    -0.291 P  
HETATM   24  O   UNL     1     -10.912   7.178  73.559  1.00  0.00    -0.328 OA 
ENDBRANCH  19  20
ENDBRANCH  18  19
ENDBRANCH   3  18
BRANCH   3  25
HETATM   25  S   UNL     1      -9.580  10.102  67.307  1.00  0.00    -0.163 SA 
BRANCH  25  26
HETATM   26  C   UNL     1     -11.118  11.053  67.187  1.00  0.00    -0.267 C  
HETATM   27  O   UNL     1     -12.015  10.907  68.009  1.00  0.00    -0.586 OA 
BRANCH  26  28
HETATM   28  C   UNL     1     -11.355  11.996  65.985  1.00  0.00    -0.398 A  
HETATM   29  C   UNL     1     -11.079  12.394  63.543  1.00  0.00    -0.521 A  
HETATM   30  C   UNL     1     -10.880  11.611  64.701  1.00  0.00    -0.373 A  
HETATM   31  C   UNL     1     -12.073  13.194  66.017  1.00  0.00    -0.495 A  
HETATM   32  C   UNL     1     -11.787  13.587  63.630  1.00  0.00    -0.383 A  
HETATM   33  C   UNL     1     -12.289  13.981  64.871  1.00  0.00    -0.447 A  
ENDBRANCH  26  28
ENDBRANCH  25  26
ENDBRANCH   3  25
TORSDOF 9
ENDMDL
MODEL      329
REMARK 921   NORMALIZED FREE ENERGY PREDICTED BY IDOCK:   -3.97 KCAL/MOL
REMARK 922        TOTAL FREE ENERGY PREDICTED BY IDOCK:   -7.57 KCAL/MOL
REMARK 923 INTER-LIGAND FREE ENERGY PREDICTED BY IDOCK:   -6.22 KCAL/MOL
REMARK 924 INTRA-LIGAND FREE ENERGY PREDICTED BY IDOCK:   -1.35 KCAL/MOL
REMARK 927      BINDING AFFINITY PREDICTED BY RF-SCORE:    0.00 PKD
ROOT
HETATM    1  C   UNL     1      -6.291   8.149  70.587  1.00  0.00    -0.036 C  
HETATM    2  C   UNL     1      -7.451   7.959  69.595  1.00  0.00    -0.092 C  
HETATM    3  C   UNL     1      -7.883   9.035  68.872  1.00  0.00    -0.095 C  
ENDROOT
BRANCH   2   4
HETATM    4  N   UNL     1      -7.904   6.627  69.519  1.00  0.00    -0.104 N  
HETATM    5  C   UNL     1      -7.886   5.925  68.302  1.00  0.00    -0.105 C  
HETATM    6  O   UNL     1      -8.504   4.900  68.058  1.00  0.00    -0.103 OA 
BRANCH   4   7
HETATM    7  C   UNL     1      -8.867   6.117  70.518  1.00  0.00    -0.146 C  
BRANCH   7   8
HETATM    8  C   UNL     1      -9.972   7.095  70.873  1.00  0.00    -0.193 A  
HETATM    9  H2  UNL     1     -10.563   5.702  68.779  1.00  0.00     0.000 HD 
HETATM   10  C   UNL     1      -9.964   8.132  71.737  1.00  0.00    -0.201 A  
HETATM   11  N   UNL     1     -12.357   7.595  70.734  1.00  0.00    -0.119 NA 
HETATM   12  N   UNL     1     -11.061   8.770  72.287  1.00  0.00    -0.333 NA 
HETATM   13  H1  UNL     1     -12.294   6.052  68.689  1.00  0.00     0.000 HD 
HETATM   14  C   UNL     1     -13.458   8.878  72.553  1.00  0.00    -0.462 C  
HETATM   15  N   UNL     1     -11.391   6.172  69.148  1.00  0.00    -0.355 NA 
HETATM   16  C   UNL     1     -12.224   8.430  71.814  1.00  0.00    -0.330 A  
HETATM   17  C   UNL     1     -11.295   6.920  70.200  1.00  0.00    -0.314 A  
ENDBRANCH   7   8
ENDBRANCH   4   7
ENDBRANCH   2   4
BRANCH   3  18
HETATM   18  C   UNL     1      -6.984  10.348  68.795  1.00  0.00    -0.068 C  
BRANCH  18  19
HETATM   19  C   UNL     1      -6.593  10.862  67.355  1.00  0.00    -0.069 C  
BRANCH  19  20
HETATM   20  O   UNL     1      -7.182  12.153  66.946  1.00  0.00    -0.107 OA 
HETATM   21  O   UNL     1      -8.844  12.871  68.234  1.00  0.00    -0.186 OA 
HETATM   22  O   UNL     1      -7.346  14.396  67.064  1.00  0.00    -0.034 OA 
HETATM   23  P   UNL     1      -7.262  13.279  68.257  1.00  0.00    -0.137 P  
HETATM   24  O   UNL     1      -7.334  14.287  69.430  1.00  0.00    -0.102 OA 
ENDBRANCH  19  20
ENDBRANCH  18  19
ENDBRANCH   3  18
BRANCH   3  25
HETATM   25  S   UNL     1      -9.434   9.118  67.914  1.00  0.00    -0.142 SA 
BRANCH  25  26
HETATM   26  C   UNL     1      -9.191   8.864  66.136  1.00  0.00    -0.217 C  
HETATM   27  O   UNL     1      -8.683   7.834  65.710  1.00  0.00    -0.156 OA 
BRANCH  26  28
HETATM   28  C   UNL     1      -9.539   9.992  65.137  1.00  0.00    -0.356 A  
HETATM   29  C   UNL     1      -9.456  10.816  62.789  1.00  0.00    -0.358 A  
HETATM   30  C   UNL     1      -9.154   9.851  63.775  1.00  0.00    -0.293 A  
HETATM   31  C   UNL     1     -10.277  11.142  65.429  1.00  0.00    -0.327 A  
HETATM   32  C   UNL     1     -10.181  11.950  63.133  1.00  0.00    -0.334 A  
HETATM   33  C   UNL     1     -10.597  12.106  64.456  1.00  0.00    -0.350 A  
ENDBRANCH  26  28
ENDBRANCH  25  26
ENDBRANCH   3  25
TORSDOF 9
ENDMDL
MODEL      330
REMARK 921   NORMALIZED FREE ENERGY PREDICTED BY IDOCK:   -3.96 KCAL/MOL
REMARK 922        TOTAL FREE ENERGY PREDICTED BY IDOCK:   -7.55 KCAL/MOL
REMARK 923 INTER-LIGAND FREE ENERGY PREDICTED BY IDOCK:   -6.98 KCAL/MOL
REMARK 924 INTRA-LIGAND FREE ENERGY PREDICTED BY IDOCK:   -0.57 KCAL/MOL
REMARK 927      BINDING AFFINITY PREDICTED BY RF-SCORE:    0.00 PKD
ROOT
HETATM    1  C   UNL     1     -10.311  18.850  66.402  1.00  0.00    -0.503 C  
HETATM    2  C   UNL     1      -9.334  17.663  66.446  1.00  0.00    -0.248 C  
HETATM    3  C   UNL     1      -9.803  16.411  66.157  1.00  0.00    -0.338 C  
ENDROOT
BRANCH   2   4
HETATM    4  N   UNL     1      -8.010  18.043  66.740  1.00  0.00    -0.228 N  
HETATM    5  C   UNL     1      -6.966  17.794  65.834  1.00  0.00    -0.256 C  
HETATM    6  O   UNL     1      -5.772  17.813  66.094  1.00  0.00    -0.177 OA 
BRANCH   4   7
HETATM    7  C   UNL     1      -7.586  18.212  68.147  1.00  0.00    -0.265 C  
BRANCH   7   8
HETATM    8  C   UNL     1      -7.023  16.953  68.782  1.00  0.00    -0.204 A  
HETATM    9  H2  UNL     1      -9.484  17.349  69.460  1.00  0.00     0.000 HD 
HETATM   10  C   UNL     1      -5.747  16.521  68.862  1.00  0.00    -0.132 A  
HETATM   11  N   UNL     1      -7.527  14.754  69.716  1.00  0.00    -0.096 NA 
HETATM   12  N   UNL     1      -5.314  15.235  69.129  1.00  0.00    -0.095 NA 
HETATM   13  H1  UNL     1      -9.853  15.751  70.122  1.00  0.00     0.000 HD 
HETATM   14  C   UNL     1      -5.870  12.917  69.514  1.00  0.00    -0.104 C  
HETATM   15  N   UNL     1      -9.194  16.397  69.686  1.00  0.00     0.088 NA 
HETATM   16  C   UNL     1      -6.230  14.379  69.480  1.00  0.00    -0.121 A  
HETATM   17  C   UNL     1      -7.989  16.007  69.420  1.00  0.00    -0.152 A  
ENDBRANCH   7   8
ENDBRANCH   4   7
ENDBRANCH   2   4
BRANCH   3  18
HETATM   18  C   UNL     1     -11.221  16.242  65.452  1.00  0.00     0.037 C  
BRANCH  18  19
HETATM   19  C   UNL     1     -11.301  15.228  64.246  1.00  0.00    -0.103 C  
BRANCH  19  20
HETATM   20  O   UNL     1     -11.013  13.815  64.566  1.00  0.00    -0.387 OA 
HETATM   21  O   UNL     1     -12.751  12.654  65.316  1.00  0.00    -0.652 OA 
HETATM   22  O   UNL     1     -10.946  11.627  64.042  1.00  0.00    -0.339 OA 
HETATM   23  P   UNL     1     -12.129  12.733  63.808  1.00  0.00    -0.538 P  
HETATM   24  O   UNL     1     -13.127  11.763  63.129  1.00  0.00    -0.568 OA 
ENDBRANCH  19  20
ENDBRANCH  18  19
ENDBRANCH   3  18
BRANCH   3  25
HETATM   25  S   UNL     1      -8.921  14.846  66.479  1.00  0.00    -0.212 SA 
BRANCH  25  26
HETATM   26  C   UNL     1      -9.890  13.667  67.455  1.00  0.00    -0.227 C  
HETATM   27  O   UNL     1     -10.921  14.013  68.020  1.00  0.00    -0.242 OA 
BRANCH  26  28
HETATM   28  C   UNL     1      -9.374  12.225  67.667  1.00  0.00    -0.186 A  
HETATM   29  C   UNL     1      -7.597  10.542  67.206  1.00  0.00    -0.096 A  
HETATM   30  C   UNL     1      -8.158  11.828  67.044  1.00  0.00    -0.169 A  
HETATM   31  C   UNL     1      -9.961  11.260  68.489  1.00  0.00    -0.206 A  
HETATM   32  C   UNL     1      -8.228   9.613  68.024  1.00  0.00    -0.110 A  
HETATM   33  C   UNL     1      -9.409   9.979  68.670  1.00  0.00    -0.156 A  
ENDBRANCH  26  28
ENDBRANCH  25  26
ENDBRANCH   3  25
TORSDOF 9
ENDMDL
MODEL      331
REMARK 921   NORMALIZED FREE ENERGY PREDICTED BY IDOCK:   -3.96 KCAL/MOL
REMARK 922        TOTAL FREE ENERGY PREDICTED BY IDOCK:   -7.54 KCAL/MOL
REMARK 923 INTER-LIGAND FREE ENERGY PREDICTED BY IDOCK:   -7.61 KCAL/MOL
REMARK 924 INTRA-LIGAND FREE ENERGY PREDICTED BY IDOCK:    0.07 KCAL/MOL
REMARK 927      BINDING AFFINITY PREDICTED BY RF-SCORE:    0.00 PKD
ROOT
HETATM    1  C   UNL     1      -9.089   8.415  66.537  1.00  0.00    -0.217 C  
HETATM    2  C   UNL     1      -9.699   9.279  67.654  1.00  0.00    -0.157 C  
HETATM    3  C   UNL     1      -9.564  10.638  67.584  1.00  0.00    -0.161 C  
ENDROOT
BRANCH   2   4
HETATM    4  N   UNL     1     -10.395   8.528  68.621  1.00  0.00    -0.205 N  
HETATM    5  C   UNL     1     -11.198   9.156  69.586  1.00  0.00    -0.009 C  
HETATM    6  O   UNL     1     -11.603   8.649  70.622  1.00  0.00    -0.271 OA 
BRANCH   4   7
HETATM    7  C   UNL     1      -9.915   7.179  68.992  1.00  0.00    -0.174 C  
BRANCH   7   8
HETATM    8  C   UNL     1      -8.815   7.176  70.038  1.00  0.00    -0.142 A  
HETATM    9  H2  UNL     1      -7.959   6.343  67.747  1.00  0.00     0.000 HD 
HETATM   10  C   UNL     1      -8.896   7.320  71.378  1.00  0.00    -0.130 A  
HETATM   11  N   UNL     1      -6.413   7.298  70.453  1.00  0.00    -0.042 NA 
HETATM   12  N   UNL     1      -7.872   7.657  72.245  1.00  0.00    -0.096 NA 
HETATM   13  H1  UNL     1      -6.220   6.447  68.043  1.00  0.00     0.000 HD 
HETATM   14  C   UNL     1      -5.572   8.323  72.553  1.00  0.00    -0.044 C  
HETATM   15  N   UNL     1      -7.180   6.566  68.367  1.00  0.00    -0.083 NA 
HETATM   16  C   UNL     1      -6.676   7.701  71.737  1.00  0.00    -0.049 A  
HETATM   17  C   UNL     1      -7.408   7.001  69.564  1.00  0.00    -0.094 A  
ENDBRANCH   7   8
ENDBRANCH   4   7
ENDBRANCH   2   4
BRANCH   3  18
HETATM   18  C   UNL     1      -9.108  11.318  66.218  1.00  0.00    -0.209 C  
BRANCH  18  19
HETATM   19  C   UNL     1      -9.682  12.755  65.910  1.00  0.00    -0.198 C  
BRANCH  19  20
HETATM   20  O   UNL     1     -10.548  12.865  64.718  1.00  0.00    -0.308 OA 
HETATM   21  O   UNL     1     -12.604  12.064  64.981  1.00  0.00    -0.415 OA 
HETATM   22  O   UNL     1     -12.106  13.915  63.477  1.00  0.00    -0.460 OA 
HETATM   23  P   UNL     1     -12.069  13.605  65.083  1.00  0.00    -0.461 P  
HETATM   24  O   UNL     1     -13.430  14.267  65.409  1.00  0.00    -0.581 OA 
ENDBRANCH  19  20
ENDBRANCH  18  19
ENDBRANCH   3  18
BRANCH   3  25
HETATM   25  S   UNL     1      -9.898  11.810  68.944  1.00  0.00     0.088 SA 
BRANCH  25  26
HETATM   26  C   UNL     1     -11.640  12.296  69.055  1.00  0.00    -0.316 C  
HETATM   27  O   UNL     1     -12.406  12.115  68.116  1.00  0.00    -0.265 OA 
BRANCH  26  28
HETATM   28  C   UNL     1     -12.160  13.035  70.310  1.00  0.00    -0.388 A  
HETATM   29  C   UNL     1     -13.484  12.921  72.416  1.00  0.00    -0.573 A  
HETATM   30  C   UNL     1     -12.989  12.336  71.229  1.00  0.00    -0.299 A  
HETATM   31  C   UNL     1     -11.833  14.342  70.682  1.00  0.00    -0.349 A  
HETATM   32  C   UNL     1     -13.141  14.230  72.733  1.00  0.00    -0.589 A  
HETATM   33  C   UNL     1     -12.307  14.936  71.865  1.00  0.00    -0.415 A  
ENDBRANCH  26  28
ENDBRANCH  25  26
ENDBRANCH   3  25
TORSDOF 9
ENDMDL
MODEL      332
REMARK 921   NORMALIZED FREE ENERGY PREDICTED BY IDOCK:   -3.96 KCAL/MOL
REMARK 922        TOTAL FREE ENERGY PREDICTED BY IDOCK:   -7.54 KCAL/MOL
REMARK 923 INTER-LIGAND FREE ENERGY PREDICTED BY IDOCK:   -6.17 KCAL/MOL
REMARK 924 INTRA-LIGAND FREE ENERGY PREDICTED BY IDOCK:   -1.38 KCAL/MOL
REMARK 927      BINDING AFFINITY PREDICTED BY RF-SCORE:    0.00 PKD
ROOT
HETATM    1  C   UNL     1      -6.573  10.210  69.481  1.00  0.00    -0.060 C  
HETATM    2  C   UNL     1      -7.775  10.367  68.534  1.00  0.00    -0.101 C  
HETATM    3  C   UNL     1      -8.580   9.286  68.306  1.00  0.00    -0.125 C  
ENDROOT
BRANCH   2   4
HETATM    4  N   UNL     1      -7.928  11.678  68.043  1.00  0.00    -0.124 N  
HETATM    5  C   UNL     1      -6.814  12.446  67.669  1.00  0.00    -0.132 C  
HETATM    6  O   UNL     1      -6.799  13.658  67.511  1.00  0.00    -0.169 OA 
BRANCH   4   7
HETATM    7  C   UNL     1      -9.134  12.460  68.392  1.00  0.00    -0.141 C  
BRANCH   7   8
HETATM    8  C   UNL     1     -10.030  12.783  67.210  1.00  0.00    -0.219 A  
HETATM    9  H2  UNL     1     -11.402  12.259  69.336  1.00  0.00     0.000 HD 
HETATM   10  C   UNL     1      -9.727  12.889  65.899  1.00  0.00    -0.184 A  
HETATM   11  N   UNL     1     -12.205  13.620  66.485  1.00  0.00    -0.419 NA 
HETATM   12  N   UNL     1     -10.473  13.514  64.916  1.00  0.00    -0.384 NA 
HETATM   13  H1  UNL     1     -12.973  12.880  68.816  1.00  0.00     0.000 HD 
HETATM   14  C   UNL     1     -12.404  14.840  64.331  1.00  0.00    -0.389 C  
HETATM   15  N   UNL     1     -11.986  12.703  68.627  1.00  0.00    -0.282 NA 
HETATM   16  C   UNL     1     -11.660  13.919  65.263  1.00  0.00    -0.327 A  
HETATM   17  C   UNL     1     -11.476  13.042  67.487  1.00  0.00    -0.328 A  
ENDBRANCH   7   8
ENDBRANCH   4   7
ENDBRANCH   2   4
BRANCH   3  18
HETATM   18  C   UNL     1      -8.489   8.016  69.263  1.00  0.00    -0.136 C  
BRANCH  18  19
HETATM   19  C   UNL     1      -9.789   7.134  69.405  1.00  0.00    -0.161 C  
BRANCH  19  20
HETATM   20  O   UNL     1     -10.298   6.948  70.780  1.00  0.00    -0.202 OA 
HETATM   21  O   UNL     1     -10.637   8.828  71.913  1.00  0.00    -0.309 OA 
HETATM   22  O   UNL     1     -11.966   6.821  72.287  1.00  0.00    -0.275 OA 
HETATM   23  P   UNL     1     -11.705   7.905  71.090  1.00  0.00    -0.257 P  
HETATM   24  O   UNL     1     -12.965   8.762  71.369  1.00  0.00    -0.320 OA 
ENDBRANCH  19  20
ENDBRANCH  18  19
ENDBRANCH   3  18
BRANCH   3  25
HETATM   25  S   UNL     1      -9.830   9.152  66.981  1.00  0.00    -0.227 SA 
BRANCH  25  26
HETATM   26  C   UNL     1      -9.106   9.071  65.322  1.00  0.00    -0.167 C  
HETATM   27  O   UNL     1      -9.490   9.818  64.430  1.00  0.00    -0.274 OA 
BRANCH  26  28
HETATM   28  C   UNL     1      -8.054   7.989  64.986  1.00  0.00    -0.145 A  
HETATM   29  C   UNL     1      -6.078   7.333  63.622  1.00  0.00    -0.045 A  
HETATM   30  C   UNL     1      -7.092   8.251  63.973  1.00  0.00    -0.084 A  
HETATM   31  C   UNL     1      -7.903   6.766  65.646  1.00  0.00    -0.105 A  
HETATM   32  C   UNL     1      -5.979   6.123  64.298  1.00  0.00    -0.025 A  
HETATM   33  C   UNL     1      -6.892   5.846  65.316  1.00  0.00    -0.051 A  
ENDBRANCH  26  28
ENDBRANCH  25  26
ENDBRANCH   3  25
TORSDOF 9
ENDMDL
MODEL      333
REMARK 921   NORMALIZED FREE ENERGY PREDICTED BY IDOCK:   -3.94 KCAL/MOL
REMARK 922        TOTAL FREE ENERGY PREDICTED BY IDOCK:   -7.53 KCAL/MOL
REMARK 923 INTER-LIGAND FREE ENERGY PREDICTED BY IDOCK:   -6.30 KCAL/MOL
REMARK 924 INTRA-LIGAND FREE ENERGY PREDICTED BY IDOCK:   -1.22 KCAL/MOL
REMARK 927      BINDING AFFINITY PREDICTED BY RF-SCORE:    0.00 PKD
ROOT
HETATM    1  C   UNL     1     -10.989  10.649  67.944  1.00  0.00    -0.351 C  
HETATM    2  C   UNL     1      -9.829  11.641  67.764  1.00  0.00    -0.179 C  
HETATM    3  C   UNL     1     -10.082  12.854  67.184  1.00  0.00    -0.243 C  
ENDROOT
BRANCH   2   4
HETATM    4  N   UNL     1      -8.610  11.173  68.292  1.00  0.00    -0.140 N  
HETATM    5  C   UNL     1      -7.764  12.022  69.025  1.00  0.00     0.096 C  
HETATM    6  O   UNL     1      -6.585  11.817  69.274  1.00  0.00    -0.094 OA 
BRANCH   4   7
HETATM    7  C   UNL     1      -7.940  10.006  67.678  1.00  0.00    -0.105 C  
BRANCH   7   8
HETATM    8  C   UNL     1      -8.277   8.680  68.335  1.00  0.00    -0.122 A  
HETATM    9  H2  UNL     1      -9.344   8.885  65.991  1.00  0.00     0.000 HD 
HETATM   10  C   UNL     1      -8.108   8.280  69.614  1.00  0.00    -0.116 A  
HETATM   11  N   UNL     1      -8.899   6.345  67.985  1.00  0.00    -0.115 NA 
HETATM   12  N   UNL     1      -8.098   6.982  70.089  1.00  0.00    -0.128 NA 
HETATM   13  H1  UNL     1      -9.780   7.191  65.732  1.00  0.00     0.000 HD 
HETATM   14  C   UNL     1      -8.172   4.616  69.612  1.00  0.00    -0.072 C  
HETATM   15  N   UNL     1      -9.369   7.918  66.318  1.00  0.00    -0.184 NA 
HETATM   16  C   UNL     1      -8.428   6.053  69.240  1.00  0.00    -0.115 A  
HETATM   17  C   UNL     1      -8.879   7.614  67.476  1.00  0.00    -0.124 A  
ENDBRANCH   7   8
ENDBRANCH   4   7
ENDBRANCH   2   4
BRANCH   3  18
HETATM   18  C   UNL     1     -11.585  13.358  67.032  1.00  0.00    -0.396 C  
BRANCH  18  19
HETATM   19  C   UNL     1     -12.316  13.832  68.347  1.00  0.00     0.051 C  
BRANCH  19  20
HETATM   20  O   UNL     1     -11.960  15.180  68.837  1.00  0.00    -0.308 OA 
HETATM   21  O   UNL     1     -13.033  15.819  70.673  1.00  0.00    -0.479 OA 
HETATM   22  O   UNL     1     -10.778  16.575  70.149  1.00  0.00    -0.285 OA 
HETATM   23  P   UNL     1     -11.540  15.176  70.515  1.00  0.00    -0.353 P  
HETATM   24  O   UNL     1     -11.164  15.172  72.017  1.00  0.00    -0.389 OA 
ENDBRANCH  19  20
ENDBRANCH  18  19
ENDBRANCH   3  18
BRANCH   3  25
HETATM   25  S   UNL     1      -8.821  14.022  66.570  1.00  0.00     0.091 SA 
BRANCH  25  26
HETATM   26  C   UNL     1      -8.618  15.477  67.631  1.00  0.00    -0.165 C  
HETATM   27  O   UNL     1      -8.147  15.376  68.758  1.00  0.00    -0.142 OA 
BRANCH  26  28
HETATM   28  C   UNL     1      -9.128  16.858  67.158  1.00  0.00    -0.228 A  
HETATM   29  C   UNL     1      -8.766  19.321  67.096  1.00  0.00    -0.319 A  
HETATM   30  C   UNL     1      -8.392  18.023  67.509  1.00  0.00    -0.233 A  
HETATM   31  C   UNL     1     -10.235  17.082  66.336  1.00  0.00    -0.330 A  
HETATM   32  C   UNL     1      -9.885  19.492  66.291  1.00  0.00    -0.513 A  
HETATM   33  C   UNL     1     -10.615  18.366  65.906  1.00  0.00    -0.313 A  
ENDBRANCH  26  28
ENDBRANCH  25  26
ENDBRANCH   3  25
TORSDOF 9
ENDMDL
MODEL      334
REMARK 921   NORMALIZED FREE ENERGY PREDICTED BY IDOCK:   -3.94 KCAL/MOL
REMARK 922        TOTAL FREE ENERGY PREDICTED BY IDOCK:   -7.52 KCAL/MOL
REMARK 923 INTER-LIGAND FREE ENERGY PREDICTED BY IDOCK:   -7.46 KCAL/MOL
REMARK 924 INTRA-LIGAND FREE ENERGY PREDICTED BY IDOCK:   -0.06 KCAL/MOL
REMARK 927      BINDING AFFINITY PREDICTED BY RF-SCORE:    0.00 PKD
ROOT
HETATM    1  C   UNL     1      -7.719   8.591  70.397  1.00  0.00    -0.080 C  
HETATM    2  C   UNL     1      -8.809   8.299  69.352  1.00  0.00    -0.146 C  
HETATM    3  C   UNL     1      -8.615   8.711  68.063  1.00  0.00    -0.137 C  
ENDROOT
BRANCH   2   4
HETATM    4  N   UNL     1      -9.892   7.564  69.871  1.00  0.00    -0.185 N  
HETATM    5  C   UNL     1     -10.748   6.840  69.025  1.00  0.00    -0.246 C  
HETATM    6  O   UNL     1     -11.857   6.417  69.319  1.00  0.00    -0.146 OA 
BRANCH   4   7
HETATM    7  C   UNL     1     -10.477   7.934  71.178  1.00  0.00    -0.204 C  
BRANCH   7   8
HETATM    8  C   UNL     1     -11.390   9.146  71.130  1.00  0.00    -0.392 A  
HETATM    9  H2  UNL     1     -12.631   7.046  71.983  1.00  0.00     0.000 HD 
HETATM   10  C   UNL     1     -11.200  10.349  70.548  1.00  0.00    -0.314 A  
HETATM   11  N   UNL     1     -13.387  10.217  72.039  1.00  0.00    -0.434 NA 
HETATM   12  N   UNL     1     -11.882  11.523  70.814  1.00  0.00    -0.207 NA 
HETATM   13  H1  UNL     1     -14.069   7.824  72.656  1.00  0.00     0.000 HD 
HETATM   14  C   UNL     1     -13.519  12.694  72.147  1.00  0.00    -0.561 C  
HETATM   15  N   UNL     1     -13.169   7.891  72.180  1.00  0.00    -0.202 NA 
HETATM   16  C   UNL     1     -12.910  11.427  71.605  1.00  0.00    -0.391 A  
HETATM   17  C   UNL     1     -12.709   9.048  71.827  1.00  0.00    -0.366 A  
ENDBRANCH   7   8
ENDBRANCH   4   7
ENDBRANCH   2   4
BRANCH   3  18
HETATM   18  C   UNL     1      -7.162   9.155  67.586  1.00  0.00    -0.083 C  
BRANCH  18  19
HETATM   19  C   UNL     1      -6.445   8.231  66.527  1.00  0.00    -0.055 C  
BRANCH  19  20
HETATM   20  O   UNL     1      -7.074   6.916  66.283  1.00  0.00    -0.070 OA 
HETATM   21  O   UNL     1      -8.214   6.765  64.383  1.00  0.00    -0.091 OA 
HETATM   22  O   UNL     1      -7.090   4.851  65.386  1.00  0.00    -0.061 OA 
HETATM   23  P   UNL     1      -6.688   6.288  64.718  1.00  0.00    -0.040 P  
HETATM   24  O   UNL     1      -6.342   5.726  63.317  1.00  0.00    -0.024 OA 
ENDBRANCH  19  20
ENDBRANCH  18  19
ENDBRANCH   3  18
BRANCH   3  25
HETATM   25  S   UNL     1      -9.896   8.776  66.764  1.00  0.00    -0.271 SA 
BRANCH  25  26
HETATM   26  C   UNL     1     -10.961  10.237  66.883  1.00  0.00    -0.070 C  
HETATM   27  O   UNL     1     -11.603  10.468  67.901  1.00  0.00    -0.461 OA 
BRANCH  26  28
HETATM   28  C   UNL     1     -11.145  11.164  65.660  1.00  0.00    -0.078 A  
HETATM   29  C   UNL     1     -12.054  13.302  64.763  1.00  0.00    -0.456 A  
HETATM   30  C   UNL     1     -11.864  12.381  65.817  1.00  0.00    -0.467 A  
HETATM   31  C   UNL     1     -10.600  10.957  64.390  1.00  0.00    -0.343 A  
HETATM   32  C   UNL     1     -11.504  13.042  63.513  1.00  0.00    -0.403 A  
HETATM   33  C   UNL     1     -10.770  11.869  63.332  1.00  0.00    -0.476 A  
ENDBRANCH  26  28
ENDBRANCH  25  26
ENDBRANCH   3  25
TORSDOF 9
ENDMDL
MODEL      335
REMARK 921   NORMALIZED FREE ENERGY PREDICTED BY IDOCK:   -3.92 KCAL/MOL
REMARK 922        TOTAL FREE ENERGY PREDICTED BY IDOCK:   -7.49 KCAL/MOL
REMARK 923 INTER-LIGAND FREE ENERGY PREDICTED BY IDOCK:   -8.30 KCAL/MOL
REMARK 924 INTRA-LIGAND FREE ENERGY PREDICTED BY IDOCK:    0.81 KCAL/MOL
REMARK 927      BINDING AFFINITY PREDICTED BY RF-SCORE:    0.00 PKD
ROOT
HETATM    1  C   UNL     1     -10.081  18.131  66.086  1.00  0.00    -0.338 C  
HETATM    2  C   UNL     1      -9.581  16.997  66.997  1.00  0.00    -0.254 C  
HETATM    3  C   UNL     1     -10.404  15.932  67.238  1.00  0.00    -0.293 C  
ENDROOT
BRANCH   2   4
HETATM    4  N   UNL     1      -8.258  17.186  67.443  1.00  0.00    -0.180 N  
HETATM    5  C   UNL     1      -7.165  16.884  66.615  1.00  0.00    -0.259 C  
HETATM    6  O   UNL     1      -6.009  16.734  66.982  1.00  0.00    -0.159 OA 
BRANCH   4   7
HETATM    7  C   UNL     1      -7.961  17.185  68.892  1.00  0.00    -0.208 C  
BRANCH   7   8
HETATM    8  C   UNL     1      -7.051  16.055  69.339  1.00  0.00    -0.217 A  
HETATM    9  H2  UNL     1      -6.011  18.370  69.823  1.00  0.00     0.000 HD 
HETATM   10  C   UNL     1      -7.118  14.733  69.072  1.00  0.00    -0.127 A  
HETATM   11  N   UNL     1      -5.268  15.369  70.859  1.00  0.00    -0.144 NA 
HETATM   12  N   UNL     1      -6.498  13.708  69.763  1.00  0.00    -0.097 NA 
HETATM   13  H1  UNL     1      -4.730  17.874  70.936  1.00  0.00     0.000 HD 
HETATM   14  C   UNL     1      -5.149  13.016  71.642  1.00  0.00    -0.154 C  
HETATM   15  N   UNL     1      -5.519  17.636  70.335  1.00  0.00    -0.259 NA 
HETATM   16  C   UNL     1      -5.645  14.063  70.679  1.00  0.00    -0.158 A  
HETATM   17  C   UNL     1      -5.895  16.404  70.221  1.00  0.00    -0.118 A  
ENDBRANCH   7   8
ENDBRANCH   4   7
ENDBRANCH   2   4
BRANCH   3  18
HETATM   18  C   UNL     1     -11.687  15.703  66.323  1.00  0.00     0.452 C  
BRANCH  18  19
HETATM   19  C   UNL     1     -11.431  15.396  64.797  1.00  0.00    -0.336 C  
BRANCH  19  20
HETATM   20  O   UNL     1     -12.065  14.172  64.266  1.00  0.00    -0.454 OA 
HETATM   21  O   UNL     1     -10.713  12.418  64.098  1.00  0.00    -0.321 OA 
HETATM   22  O   UNL     1     -13.100  12.190  64.529  1.00  0.00    -0.720 OA 
HETATM   23  P   UNL     1     -11.778  12.797  65.277  1.00  0.00    -0.414 P  
HETATM   24  O   UNL     1     -11.522  11.568  66.181  1.00  0.00    -0.308 OA 
ENDBRANCH  19  20
ENDBRANCH  18  19
ENDBRANCH   3  18
BRANCH   3  25
HETATM   25  S   UNL     1     -10.157  14.670  68.533  1.00  0.00    -0.243 SA 
BRANCH  25  26
HETATM   26  C   UNL     1     -11.656  14.329  69.493  1.00  0.00    -0.301 C  
HETATM   27  O   UNL     1     -12.467  15.216  69.732  1.00  0.00    -0.271 OA 
BRANCH  26  28
HETATM   28  C   UNL     1     -11.883  12.927  70.105  1.00  0.00    -0.319 A  
HETATM   29  C   UNL     1     -12.915  11.570  71.919  1.00  0.00    -0.453 A  
HETATM   30  C   UNL     1     -12.632  12.811  71.307  1.00  0.00    -0.347 A  
HETATM   31  C   UNL     1     -11.473  11.715  69.542  1.00  0.00    -0.371 A  
HETATM   32  C   UNL     1     -12.472  10.393  71.327  1.00  0.00    -0.521 A  
HETATM   33  C   UNL     1     -11.756  10.470  70.132  1.00  0.00    -0.410 A  
ENDBRANCH  26  28
ENDBRANCH  25  26
ENDBRANCH   3  25
TORSDOF 9
ENDMDL
MODEL      336
REMARK 921   NORMALIZED FREE ENERGY PREDICTED BY IDOCK:   -3.92 KCAL/MOL
REMARK 922        TOTAL FREE ENERGY PREDICTED BY IDOCK:   -7.49 KCAL/MOL
REMARK 923 INTER-LIGAND FREE ENERGY PREDICTED BY IDOCK:   -6.40 KCAL/MOL
REMARK 924 INTRA-LIGAND FREE ENERGY PREDICTED BY IDOCK:   -1.08 KCAL/MOL
REMARK 927      BINDING AFFINITY PREDICTED BY RF-SCORE:    0.00 PKD
ROOT
HETATM    1  C   UNL     1      -7.778   8.293  70.366  1.00  0.00    -0.084 C  
HETATM    2  C   UNL     1      -7.766   8.987  68.993  1.00  0.00    -0.089 C  
HETATM    3  C   UNL     1      -8.874   9.682  68.596  1.00  0.00    -0.128 C  
ENDROOT
BRANCH   2   4
HETATM    4  N   UNL     1      -6.538   8.856  68.315  1.00  0.00    -0.060 N  
HETATM    5  C   UNL     1      -6.084   9.856  67.441  1.00  0.00    -0.058 C  
HETATM    6  O   UNL     1      -5.206   9.728  66.600  1.00  0.00    -0.039 OA 
BRANCH   4   7
HETATM    7  C   UNL     1      -5.969   7.513  68.074  1.00  0.00    -0.035 C  
BRANCH   7   8
HETATM    8  C   UNL     1      -6.841   6.611  67.219  1.00  0.00    -0.072 A  
HETATM    9  H2  UNL     1      -5.681   5.298  69.118  1.00  0.00     0.000 HD 
HETATM   10  C   UNL     1      -7.423   6.851  66.025  1.00  0.00    -0.080 A  
HETATM   11  N   UNL     1      -8.152   4.554  67.126  1.00  0.00    -0.101 NA 
HETATM   12  N   UNL     1      -8.472   6.156  65.452  1.00  0.00    -0.150 NA 
HETATM   13  H1  UNL     1      -6.641   3.815  69.061  1.00  0.00     0.000 HD 
HETATM   14  C   UNL     1     -10.143   4.424  65.648  1.00  0.00    -0.256 C  
HETATM   15  N   UNL     1      -6.437   4.750  68.707  1.00  0.00    -0.036 NA 
HETATM   16  C   UNL     1      -8.845   5.068  66.060  1.00  0.00    -0.130 A  
HETATM   17  C   UNL     1      -7.139   5.241  67.737  1.00  0.00    -0.067 A  
ENDBRANCH   7   8
ENDBRANCH   4   7
ENDBRANCH   2   4
BRANCH   3  18
HETATM   18  C   UNL     1      -9.995  10.059  69.663  1.00  0.00    -0.263 C  
BRANCH  18  19
HETATM   19  C   UNL     1     -11.443  10.345  69.106  1.00  0.00    -0.196 C  
BRANCH  19  20
HETATM   20  O   UNL     1     -12.406  10.918  70.069  1.00  0.00    -0.325 OA 
HETATM   21  O   UNL     1     -14.095   9.579  70.608  1.00  0.00     0.099 OA 
HETATM   22  O   UNL     1     -13.191  11.229  72.157  1.00  0.00    -0.481 OA 
HETATM   23  P   UNL     1     -12.698   9.861  71.408  1.00  0.00    -0.464 P  
HETATM   24  O   UNL     1     -12.960   8.916  72.605  1.00  0.00    -0.407 OA 
ENDBRANCH  19  20
ENDBRANCH  18  19
ENDBRANCH   3  18
BRANCH   3  25
HETATM   25  S   UNL     1      -9.203  10.280  66.903  1.00  0.00    -0.151 SA 
BRANCH  25  26
HETATM   26  C   UNL     1      -9.099  12.082  66.748  1.00  0.00    -0.197 C  
HETATM   27  O   UNL     1      -8.213  12.713  67.314  1.00  0.00    -0.176 OA 
BRANCH  26  28
HETATM   28  C   UNL     1     -10.187  12.858  65.971  1.00  0.00    -0.293 A  
HETATM   29  C   UNL     1     -12.528  12.913  65.127  1.00  0.00    -0.561 A  
HETATM   30  C   UNL     1     -11.466  12.264  65.795  1.00  0.00    -0.417 A  
HETATM   31  C   UNL     1     -10.061  14.156  65.467  1.00  0.00    -0.360 A  
HETATM   32  C   UNL     1     -12.347  14.198  64.630  1.00  0.00    -0.432 A  
HETATM   33  C   UNL     1     -11.111  14.820  64.809  1.00  0.00    -0.393 A  
ENDBRANCH  26  28
ENDBRANCH  25  26
ENDBRANCH   3  25
TORSDOF 9
ENDMDL
MODEL      337
REMARK 921   NORMALIZED FREE ENERGY PREDICTED BY IDOCK:   -3.91 KCAL/MOL
REMARK 922        TOTAL FREE ENERGY PREDICTED BY IDOCK:   -7.47 KCAL/MOL
REMARK 923 INTER-LIGAND FREE ENERGY PREDICTED BY IDOCK:   -6.44 KCAL/MOL
REMARK 924 INTRA-LIGAND FREE ENERGY PREDICTED BY IDOCK:   -1.04 KCAL/MOL
REMARK 927      BINDING AFFINITY PREDICTED BY RF-SCORE:    0.00 PKD
ROOT
HETATM    1  C   UNL     1     -10.543  18.592  65.974  1.00  0.00    -0.410 C  
HETATM    2  C   UNL     1      -9.808  17.279  66.292  1.00  0.00    -0.285 C  
HETATM    3  C   UNL     1     -10.368  16.097  65.894  1.00  0.00    -0.367 C  
ENDROOT
BRANCH   2   4
HETATM    4  N   UNL     1      -8.570  17.477  66.933  1.00  0.00    -0.238 N  
HETATM    5  C   UNL     1      -7.368  17.075  66.329  1.00  0.00    -0.259 C  
HETATM    6  O   UNL     1      -6.294  16.932  66.894  1.00  0.00    -0.171 OA 
BRANCH   4   7
HETATM    7  C   UNL     1      -8.514  17.601  68.406  1.00  0.00    -0.287 C  
BRANCH   7   8
HETATM    8  C   UNL     1      -9.554  16.775  69.140  1.00  0.00    -0.185 A  
HETATM    9  H2  UNL     1      -7.429  15.399  68.626  1.00  0.00     0.000 HD 
HETATM   10  C   UNL     1     -10.854  17.043  69.388  1.00  0.00    -0.092 A  
HETATM   11  N   UNL     1      -9.960  14.868  70.610  1.00  0.00     0.582 NA 
HETATM   12  N   UNL     1     -11.664  16.448  70.338  1.00  0.00    -0.072 NA 
HETATM   13  H1  UNL     1      -7.716  14.026  69.702  1.00  0.00     0.000 HD 
HETATM   14  C   UNL     1     -11.876  14.911  72.188  1.00  0.00    -0.394 C  
HETATM   15  N   UNL     1      -8.010  14.924  69.316  1.00  0.00    -0.173 NA 
HETATM   16  C   UNL     1     -11.163  15.424  70.965  1.00  0.00    -0.364 A  
HETATM   17  C   UNL     1      -9.123  15.460  69.705  1.00  0.00    -0.170 A  
ENDBRANCH   7   8
ENDBRANCH   4   7
ENDBRANCH   2   4
BRANCH   3  18
HETATM   18  C   UNL     1     -11.552  16.102  64.829  1.00  0.00    -0.056 C  
BRANCH  18  19
HETATM   19  C   UNL     1     -11.531  14.969  63.731  1.00  0.00     0.769 C  
BRANCH  19  20
HETATM   20  O   UNL     1     -11.359  13.589  64.228  1.00  0.00    -0.380 OA 
HETATM   21  O   UNL     1     -13.226  12.613  64.935  1.00  0.00    -0.819 OA 
HETATM   22  O   UNL     1     -11.385  11.354  63.953  1.00  0.00    -0.370 OA 
HETATM   23  P   UNL     1     -12.471  12.487  63.491  1.00  0.00    -0.247 P  
HETATM   24  O   UNL     1     -13.466  11.501  62.832  1.00  0.00     0.007 OA 
ENDBRANCH  19  20
ENDBRANCH  18  19
ENDBRANCH   3  18
BRANCH   3  25
HETATM   25  S   UNL     1      -9.855  14.437  66.454  1.00  0.00    -0.306 SA 
BRANCH  25  26
HETATM   26  C   UNL     1     -11.097  13.616  67.488  1.00  0.00    -0.277 C  
HETATM   27  O   UNL     1     -12.158  14.168  67.756  1.00  0.00    -0.367 OA 
BRANCH  26  28
HETATM   28  C   UNL     1     -10.791  12.241  68.123  1.00  0.00    -0.258 A  
HETATM   29  C   UNL     1      -9.412  10.168  68.081  1.00  0.00    -0.151 A  
HETATM   30  C   UNL     1      -9.779  11.424  67.549  1.00  0.00    -0.191 A  
HETATM   31  C   UNL     1     -11.378  11.730  69.284  1.00  0.00    -0.348 A  
HETATM   32  C   UNL     1     -10.037   9.697  69.229  1.00  0.00    -0.201 A  
HETATM   33  C   UNL     1     -11.016  10.486  69.833  1.00  0.00    -0.359 A  
ENDBRANCH  26  28
ENDBRANCH  25  26
ENDBRANCH   3  25
TORSDOF 9
ENDMDL
MODEL      338
REMARK 921   NORMALIZED FREE ENERGY PREDICTED BY IDOCK:   -3.91 KCAL/MOL
REMARK 922        TOTAL FREE ENERGY PREDICTED BY IDOCK:   -7.47 KCAL/MOL
REMARK 923 INTER-LIGAND FREE ENERGY PREDICTED BY IDOCK:   -7.65 KCAL/MOL
REMARK 924 INTRA-LIGAND FREE ENERGY PREDICTED BY IDOCK:    0.17 KCAL/MOL
REMARK 927      BINDING AFFINITY PREDICTED BY RF-SCORE:    0.00 PKD
ROOT
HETATM    1  C   UNL     1     -12.553  12.288  70.890  1.00  0.00    -0.334 C  
HETATM    2  C   UNL     1     -11.865  11.078  70.236  1.00  0.00    -0.367 C  
HETATM    3  C   UNL     1     -11.211  11.254  69.048  1.00  0.00    -0.258 C  
ENDROOT
BRANCH   2   4
HETATM    4  N   UNL     1     -11.958   9.903  71.006  1.00  0.00    -0.337 N  
HETATM    5  C   UNL     1     -13.152   9.557  71.659  1.00  0.00    -0.401 C  
HETATM    6  O   UNL     1     -13.264   8.742  72.563  1.00  0.00    -0.400 OA 
BRANCH   4   7
HETATM    7  C   UNL     1     -10.737   9.300  71.582  1.00  0.00    -0.323 C  
BRANCH   7   8
HETATM    8  C   UNL     1     -10.882   7.836  71.955  1.00  0.00    -0.295 A  
HETATM    9  H2  UNL     1     -11.359   8.235  69.448  1.00  0.00     0.000 HD 
HETATM   10  C   UNL     1     -10.937   7.256  73.173  1.00  0.00    -0.340 A  
HETATM   11  N   UNL     1     -10.796   5.526  71.171  1.00  0.00    -0.214 NA 
HETATM   12  N   UNL     1     -10.721   5.924  73.475  1.00  0.00    -0.266 NA 
HETATM   13  H1  UNL     1     -11.281   6.563  68.878  1.00  0.00     0.000 HD 
HETATM   14  C   UNL     1     -10.082   3.721  72.720  1.00  0.00    -0.227 C  
HETATM   15  N   UNL     1     -11.221   7.242  69.638  1.00  0.00    -0.144 NA 
HETATM   16  C   UNL     1     -10.589   5.116  72.463  1.00  0.00    -0.220 A  
HETATM   17  C   UNL     1     -10.970   6.842  70.842  1.00  0.00    -0.260 A  
ENDBRANCH   7   8
ENDBRANCH   4   7
ENDBRANCH   2   4
BRANCH   3  18
HETATM   18  C   UNL     1     -10.867  12.726  68.546  1.00  0.00    -0.279 C  
BRANCH  18  19
HETATM   19  C   UNL     1     -11.858  13.374  67.502  1.00  0.00    -0.366 C  
BRANCH  19  20
HETATM   20  O   UNL     1     -11.931  14.849  67.507  1.00  0.00    -0.314 OA 
HETATM   21  O   UNL     1     -12.375  15.755  69.486  1.00  0.00    -0.281 OA 
HETATM   22  O   UNL     1     -11.023  16.888  67.805  1.00  0.00    -0.315 OA 
HETATM   23  P   UNL     1     -10.937  15.548  68.739  1.00  0.00    -0.312 P  
HETATM   24  O   UNL     1     -10.047  16.174  69.841  1.00  0.00    -0.212 OA 
ENDBRANCH  19  20
ENDBRANCH  18  19
ENDBRANCH   3  18
BRANCH   3  25
HETATM   25  S   UNL     1     -10.634   9.919  67.945  1.00  0.00    -0.264 SA 
BRANCH  25  26
HETATM   26  C   UNL     1      -8.914  10.125  67.413  1.00  0.00    -0.134 C  
HETATM   27  O   UNL     1      -8.584   9.920  66.251  1.00  0.00    -0.126 OA 
BRANCH  26  28
HETATM   28  C   UNL     1      -7.818  10.473  68.447  1.00  0.00    -0.110 A  
HETATM   29  C   UNL     1      -6.217  12.169  69.319  1.00  0.00    -0.097 A  
HETATM   30  C   UNL     1      -7.203  11.754  68.397  1.00  0.00    -0.089 A  
HETATM   31  C   UNL     1      -7.406   9.658  69.505  1.00  0.00    -0.084 A  
HETATM   32  C   UNL     1      -5.830  11.315  70.344  1.00  0.00    -0.151 A  
HETATM   33  C   UNL     1      -6.433  10.060  70.438  1.00  0.00    -0.125 A  
ENDBRANCH  26  28
ENDBRANCH  25  26
ENDBRANCH   3  25
TORSDOF 9
ENDMDL
MODEL      339
REMARK 921   NORMALIZED FREE ENERGY PREDICTED BY IDOCK:   -3.87 KCAL/MOL
REMARK 922        TOTAL FREE ENERGY PREDICTED BY IDOCK:   -7.41 KCAL/MOL
REMARK 923 INTER-LIGAND FREE ENERGY PREDICTED BY IDOCK:   -5.31 KCAL/MOL
REMARK 924 INTRA-LIGAND FREE ENERGY PREDICTED BY IDOCK:   -2.10 KCAL/MOL
REMARK 927      BINDING AFFINITY PREDICTED BY RF-SCORE:    0.00 PKD
ROOT
HETATM    1  C   UNL     1      -8.721   2.967  70.120  1.00  0.00    -0.129 C  
HETATM    2  C   UNL     1      -8.075   4.246  70.679  1.00  0.00    -0.063 C  
HETATM    3  C   UNL     1      -7.232   4.964  69.877  1.00  0.00    -0.055 C  
ENDROOT
BRANCH   2   4
HETATM    4  N   UNL     1      -8.498   4.556  71.986  1.00  0.00    -0.111 N  
HETATM    5  C   UNL     1      -7.622   4.440  73.077  1.00  0.00    -0.082 C  
HETATM    6  O   UNL     1      -7.945   4.400  74.255  1.00  0.00    -0.090 OA 
BRANCH   4   7
HETATM    7  C   UNL     1      -9.934   4.492  72.332  1.00  0.00    -0.171 C  
BRANCH   7   8
HETATM    8  C   UNL     1     -10.698   5.775  72.057  1.00  0.00    -0.285 A  
HETATM    9  H2  UNL     1     -10.080   5.547  74.555  1.00  0.00     0.000 HD 
HETATM   10  C   UNL     1     -11.381   6.156  70.957  1.00  0.00    -0.282 A  
HETATM   11  N   UNL     1     -11.140   8.065  72.778  1.00  0.00    -0.392 NA 
HETATM   12  N   UNL     1     -11.760   7.440  70.611  1.00  0.00    -0.274 NA 
HETATM   13  H1  UNL     1     -10.385   7.209  75.073  1.00  0.00     0.000 HD 
HETATM   14  C   UNL     1     -11.695   9.805  71.096  1.00  0.00    -0.465 C  
HETATM   15  N   UNL     1     -10.370   6.500  74.339  1.00  0.00    -0.316 NA 
HETATM   16  C   UNL     1     -11.563   8.362  71.508  1.00  0.00    -0.284 A  
HETATM   17  C   UNL     1     -10.720   6.813  73.133  1.00  0.00    -0.296 A  
ENDBRANCH   7   8
ENDBRANCH   4   7
ENDBRANCH   2   4
BRANCH   3  18
HETATM   18  C   UNL     1      -7.203   4.683  68.310  1.00  0.00    -0.065 C  
BRANCH  18  19
HETATM   19  C   UNL     1      -7.846   5.780  67.375  1.00  0.00    -0.102 C  
BRANCH  19  20
HETATM   20  O   UNL     1      -9.294   6.013  67.552  1.00  0.00    -0.115 OA 
HETATM   21  O   UNL     1      -9.822   7.988  68.420  1.00  0.00    -0.161 OA 
HETATM   22  O   UNL     1     -11.282   6.815  66.862  1.00  0.00    -0.375 OA 
HETATM   23  P   UNL     1      -9.803   7.514  66.857  1.00  0.00    -0.234 P  
HETATM   24  O   UNL     1     -10.259   8.856  66.235  1.00  0.00    -0.284 OA 
ENDBRANCH  19  20
ENDBRANCH  18  19
ENDBRANCH   3  18
BRANCH   3  25
HETATM   25  S   UNL     1      -6.111   6.293  70.433  1.00  0.00    -0.035 SA 
BRANCH  25  26
HETATM   26  C   UNL     1      -6.973   7.835  70.832  1.00  0.00    -0.049 C  
HETATM   27  O   UNL     1      -7.592   7.958  71.883  1.00  0.00    -0.074 OA 
BRANCH  26  28
HETATM   28  C   UNL     1      -7.017   8.988  69.803  1.00  0.00    -0.054 A  
HETATM   29  C   UNL     1      -6.396   9.801  67.533  1.00  0.00    -0.064 A  
HETATM   30  C   UNL     1      -6.381   8.814  68.543  1.00  0.00    -0.054 A  
HETATM   31  C   UNL     1      -7.698  10.198  69.961  1.00  0.00    -0.150 A  
HETATM   32  C   UNL     1      -7.076  10.994  67.745  1.00  0.00    -0.086 A  
HETATM   33  C   UNL     1      -7.733  11.186  68.961  1.00  0.00    -0.114 A  
ENDBRANCH  26  28
ENDBRANCH  25  26
ENDBRANCH   3  25
TORSDOF 9
ENDMDL
MODEL      340
REMARK 921   NORMALIZED FREE ENERGY PREDICTED BY IDOCK:   -3.85 KCAL/MOL
REMARK 922        TOTAL FREE ENERGY PREDICTED BY IDOCK:   -7.39 KCAL/MOL
REMARK 923 INTER-LIGAND FREE ENERGY PREDICTED BY IDOCK:   -5.92 KCAL/MOL
REMARK 924 INTRA-LIGAND FREE ENERGY PREDICTED BY IDOCK:   -1.47 KCAL/MOL
REMARK 927      BINDING AFFINITY PREDICTED BY RF-SCORE:    0.00 PKD
ROOT
HETATM    1  C   UNL     1      -9.821   4.098  70.517  1.00  0.00    -0.252 C  
HETATM    2  C   UNL     1     -10.139   5.601  70.453  1.00  0.00    -0.219 C  
HETATM    3  C   UNL     1      -9.419   6.391  69.599  1.00  0.00    -0.147 C  
ENDROOT
BRANCH   2   4
HETATM    4  N   UNL     1     -11.214   5.977  71.280  1.00  0.00    -0.282 N  
HETATM    5  C   UNL     1     -12.194   6.878  70.830  1.00  0.00    -0.353 C  
HETATM    6  O   UNL     1     -12.986   7.485  71.535  1.00  0.00    -0.345 OA 
BRANCH   4   7
HETATM    7  C   UNL     1     -11.082   5.885  72.750  1.00  0.00    -0.281 C  
BRANCH   7   8
HETATM    8  C   UNL     1      -9.883   6.625  73.314  1.00  0.00    -0.199 A  
HETATM    9  H2  UNL     1      -9.941   4.162  74.093  1.00  0.00     0.000 HD 
HETATM   10  C   UNL     1      -9.612   7.947  73.333  1.00  0.00    -0.264 A  
HETATM   11  N   UNL     1      -7.606   6.435  74.176  1.00  0.00    -0.091 NA 
HETATM   12  N   UNL     1      -8.382   8.546  73.532  1.00  0.00    -0.392 NA 
HETATM   13  H1  UNL     1      -8.288   4.021  74.703  1.00  0.00     0.000 HD 
HETATM   14  C   UNL     1      -6.000   8.299  73.843  1.00  0.00    -0.111 C  
HETATM   15  N   UNL     1      -9.026   4.577  74.271  1.00  0.00    -0.108 NA 
HETATM   16  C   UNL     1      -7.406   7.759  73.880  1.00  0.00    -0.129 A  
HETATM   17  C   UNL     1      -8.801   5.810  73.947  1.00  0.00    -0.126 A  
ENDBRANCH   7   8
ENDBRANCH   4   7
ENDBRANCH   2   4
BRANCH   3  18
HETATM   18  C   UNL     1      -8.535   5.721  68.457  1.00  0.00    -0.110 C  
BRANCH  18  19
HETATM   19  C   UNL     1      -6.977   5.954  68.532  1.00  0.00    -0.075 C  
BRANCH  19  20
HETATM   20  O   UNL     1      -6.131   4.762  68.313  1.00  0.00    -0.028 OA 
HETATM   21  O   UNL     1      -6.871   2.904  69.279  1.00  0.00    -0.036 OA 
HETATM   22  O   UNL     1      -5.593   2.878  67.205  1.00  0.00    -0.019 OA 
HETATM   23  P   UNL     1      -7.045   3.411  67.736  1.00  0.00    -0.051 P  
HETATM   24  O   UNL     1      -7.862   2.202  67.219  1.00  0.00    -0.064 OA 
ENDBRANCH  19  20
ENDBRANCH  18  19
ENDBRANCH   3  18
BRANCH   3  25
HETATM   25  S   UNL     1      -9.391   8.217  69.611  1.00  0.00    -0.159 SA 
BRANCH  25  26
HETATM   26  C   UNL     1     -10.307   8.954  68.232  1.00  0.00    -0.206 C  
HETATM   27  O   UNL     1     -10.729   8.261  67.313  1.00  0.00    -0.289 OA 
BRANCH  26  28
HETATM   28  C   UNL     1     -10.486  10.488  68.152  1.00  0.00    -0.217 A  
HETATM   29  C   UNL     1      -9.432  12.737  68.326  1.00  0.00    -0.203 A  
HETATM   30  C   UNL     1      -9.367  11.328  68.407  1.00  0.00    -0.181 A  
HETATM   31  C   UNL     1     -11.655  11.154  67.775  1.00  0.00    -0.303 A  
HETATM   32  C   UNL     1     -10.623  13.352  67.961  1.00  0.00    -0.252 A  
HETATM   33  C   UNL     1     -11.732  12.555  67.679  1.00  0.00    -0.423 A  
ENDBRANCH  26  28
ENDBRANCH  25  26
ENDBRANCH   3  25
TORSDOF 9
ENDMDL
MODEL      341
REMARK 921   NORMALIZED FREE ENERGY PREDICTED BY IDOCK:   -3.83 KCAL/MOL
REMARK 922        TOTAL FREE ENERGY PREDICTED BY IDOCK:   -7.35 KCAL/MOL
REMARK 923 INTER-LIGAND FREE ENERGY PREDICTED BY IDOCK:   -7.12 KCAL/MOL
REMARK 924 INTRA-LIGAND FREE ENERGY PREDICTED BY IDOCK:   -0.23 KCAL/MOL
REMARK 927      BINDING AFFINITY PREDICTED BY RF-SCORE:    0.00 PKD
ROOT
HETATM    1  C   UNL     1     -11.224  11.588  66.477  1.00  0.00    -0.324 C  
HETATM    2  C   UNL     1     -10.867  11.333  67.951  1.00  0.00    -0.228 C  
HETATM    3  C   UNL     1     -10.079  10.260  68.262  1.00  0.00    -0.154 C  
ENDROOT
BRANCH   2   4
HETATM    4  N   UNL     1     -11.377  12.314  68.824  1.00  0.00    -0.265 N  
HETATM    5  C   UNL     1     -11.885  11.966  70.086  1.00  0.00    -0.308 C  
HETATM    6  O   UNL     1     -12.598  12.667  70.789  1.00  0.00    -0.306 OA 
BRANCH   4   7
HETATM    7  C   UNL     1     -11.882  13.594  68.282  1.00  0.00    -0.369 C  
BRANCH   7   8
HETATM    8  C   UNL     1     -10.862  14.718  68.291  1.00  0.00    -0.251 A  
HETATM    9  H2  UNL     1     -11.620  14.135  65.891  1.00  0.00     0.000 HD 
HETATM   10  C   UNL     1     -10.070  15.159  69.292  1.00  0.00    -0.246 A  
HETATM   11  N   UNL     1      -9.996  16.679  67.123  1.00  0.00    -0.262 NA 
HETATM   12  N   UNL     1      -9.424  16.379  69.371  1.00  0.00    -0.179 NA 
HETATM   13  H1  UNL     1     -11.006  15.562  65.048  1.00  0.00     0.000 HD 
HETATM   14  C   UNL     1      -9.029  18.562  68.419  1.00  0.00    -0.346 C  
HETATM   15  N   UNL     1     -11.133  15.031  65.910  1.00  0.00    -0.339 NA 
HETATM   16  C   UNL     1      -9.468  17.126  68.307  1.00  0.00    -0.276 A  
HETATM   17  C   UNL     1     -10.676  15.496  67.028  1.00  0.00    -0.321 A  
ENDBRANCH   7   8
ENDBRANCH   4   7
ENDBRANCH   2   4
BRANCH   3  18
HETATM   18  C   UNL     1      -9.269   9.515  67.112  1.00  0.00    -0.158 C  
BRANCH  18  19
HETATM   19  C   UNL     1      -7.935   8.786  67.537  1.00  0.00    -0.102 C  
BRANCH  19  20
HETATM   20  O   UNL     1      -6.710   9.612  67.514  1.00  0.00    -0.069 OA 
HETATM   21  O   UNL     1      -7.035  11.750  67.009  1.00  0.00    -0.139 OA 
HETATM   22  O   UNL     1      -5.234  11.014  68.475  1.00  0.00    -0.041 OA 
HETATM   23  P   UNL     1      -6.869  11.043  68.472  1.00  0.00    -0.074 P  
HETATM   24  O   UNL     1      -7.011  12.324  69.330  1.00  0.00    -0.050 OA 
ENDBRANCH  19  20
ENDBRANCH  18  19
ENDBRANCH   3  18
BRANCH   3  25
HETATM   25  S   UNL     1      -9.822   9.582  69.938  1.00  0.00    -0.241 SA 
BRANCH  25  26
HETATM   26  C   UNL     1     -10.344   7.854  70.098  1.00  0.00    -0.215 C  
HETATM   27  O   UNL     1     -10.707   7.212  69.119  1.00  0.00    -0.217 OA 
BRANCH  26  28
HETATM   28  C   UNL     1     -10.428   7.195  71.494  1.00  0.00    -0.221 A  
HETATM   29  C   UNL     1      -9.994   7.391  73.938  1.00  0.00    -0.258 A  
HETATM   30  C   UNL     1      -9.931   7.902  72.623  1.00  0.00    -0.330 A  
HETATM   31  C   UNL     1     -11.026   5.965  71.781  1.00  0.00    -0.327 A  
HETATM   32  C   UNL     1     -10.585   6.155  74.169  1.00  0.00    -0.141 A  
HETATM   33  C   UNL     1     -11.107   5.447  73.086  1.00  0.00    -0.363 A  
ENDBRANCH  26  28
ENDBRANCH  25  26
ENDBRANCH   3  25
TORSDOF 9
ENDMDL
MODEL      342
REMARK 921   NORMALIZED FREE ENERGY PREDICTED BY IDOCK:   -3.82 KCAL/MOL
REMARK 922        TOTAL FREE ENERGY PREDICTED BY IDOCK:   -7.34 KCAL/MOL
REMARK 923 INTER-LIGAND FREE ENERGY PREDICTED BY IDOCK:   -6.82 KCAL/MOL
REMARK 924 INTRA-LIGAND FREE ENERGY PREDICTED BY IDOCK:   -0.52 KCAL/MOL
REMARK 927      BINDING AFFINITY PREDICTED BY RF-SCORE:    0.00 PKD
ROOT
HETATM    1  C   UNL     1      -7.981  10.525  67.911  1.00  0.00    -0.106 C  
HETATM    2  C   UNL     1      -8.903  10.329  69.126  1.00  0.00    -0.176 C  
HETATM    3  C   UNL     1      -8.621   9.328  70.013  1.00  0.00    -0.182 C  
ENDROOT
BRANCH   2   4
HETATM    4  N   UNL     1      -9.935  11.285  69.199  1.00  0.00    -0.103 N  
HETATM    5  C   UNL     1     -11.232  10.921  69.596  1.00  0.00    -0.282 C  
HETATM    6  O   UNL     1     -12.246  11.582  69.423  1.00  0.00    -0.289 OA 
BRANCH   4   7
HETATM    7  C   UNL     1      -9.855  12.521  68.391  1.00  0.00    -0.202 C  
BRANCH   7   8
HETATM    8  C   UNL     1     -10.710  12.500  67.137  1.00  0.00    -0.263 A  
HETATM    9  H2  UNL     1     -11.446  14.367  68.764  1.00  0.00     0.000 HD 
HETATM   10  C   UNL     1     -10.798  11.566  66.166  1.00  0.00    -0.278 A  
HETATM   11  N   UNL     1     -12.128  13.794  65.629  1.00  0.00    -0.391 NA 
HETATM   12  N   UNL     1     -11.308  11.731  64.891  1.00  0.00    -0.274 NA 
HETATM   13  H1  UNL     1     -12.460  15.312  67.668  1.00  0.00     0.000 HD 
HETATM   14  C   UNL     1     -12.221  13.212  63.217  1.00  0.00    -0.438 C  
HETATM   15  N   UNL     1     -11.853  14.510  67.840  1.00  0.00    -0.352 NA 
HETATM   16  C   UNL     1     -11.895  12.866  64.646  1.00  0.00    -0.372 A  
HETATM   17  C   UNL     1     -11.600  13.675  66.884  1.00  0.00    -0.367 A  
ENDBRANCH   7   8
ENDBRANCH   4   7
ENDBRANCH   2   4
BRANCH   3  18
HETATM   18  C   UNL     1      -7.193   8.625  69.983  1.00  0.00    -0.051 C  
BRANCH  18  19
HETATM   19  C   UNL     1      -7.110   7.206  69.297  1.00  0.00    -0.079 C  
BRANCH  19  20
HETATM   20  O   UNL     1      -8.076   6.955  68.208  1.00  0.00    -0.116 OA 
HETATM   21  O   UNL     1      -7.183   6.832  66.178  1.00  0.00    -0.065 OA 
HETATM   22  O   UNL     1      -9.184   5.589  66.801  1.00  0.00    -0.124 OA 
HETATM   23  P   UNL     1      -7.599   5.630  67.203  1.00  0.00    -0.097 P  
HETATM   24  O   UNL     1      -7.172   4.444  66.305  1.00  0.00    -0.073 OA 
ENDBRANCH  19  20
ENDBRANCH  18  19
ENDBRANCH   3  18
BRANCH   3  25
HETATM   25  S   UNL     1      -9.749   8.708  71.308  1.00  0.00    -0.263 SA 
BRANCH  25  26
HETATM   26  C   UNL     1     -10.768   7.313  70.760  1.00  0.00    -0.231 C  
HETATM   27  O   UNL     1     -11.794   7.497  70.115  1.00  0.00    -0.044 OA 
BRANCH  26  28
HETATM   28  C   UNL     1     -10.401   5.871  71.182  1.00  0.00    -0.276 A  
HETATM   29  C   UNL     1     -10.466   4.121  72.951  1.00  0.00    -0.246 A  
HETATM   30  C   UNL     1     -10.735   5.429  72.491  1.00  0.00    -0.288 A  
HETATM   31  C   UNL     1      -9.818   4.904  70.359  1.00  0.00    -0.302 A  
HETATM   32  C   UNL     1      -9.871   3.199  72.098  1.00  0.00    -0.238 A  
HETATM   33  C   UNL     1      -9.554   3.593  70.798  1.00  0.00    -0.249 A  
ENDBRANCH  26  28
ENDBRANCH  25  26
ENDBRANCH   3  25
TORSDOF 9
ENDMDL
MODEL      343
REMARK 921   NORMALIZED FREE ENERGY PREDICTED BY IDOCK:   -3.82 KCAL/MOL
REMARK 922        TOTAL FREE ENERGY PREDICTED BY IDOCK:   -7.34 KCAL/MOL
REMARK 923 INTER-LIGAND FREE ENERGY PREDICTED BY IDOCK:   -6.65 KCAL/MOL
REMARK 924 INTRA-LIGAND FREE ENERGY PREDICTED BY IDOCK:   -0.69 KCAL/MOL
REMARK 927      BINDING AFFINITY PREDICTED BY RF-SCORE:    0.00 PKD
ROOT
HETATM    1  C   UNL     1     -11.541  12.066  65.033  1.00  0.00    -0.323 C  
HETATM    2  C   UNL     1     -11.272  11.829  66.528  1.00  0.00    -0.321 C  
HETATM    3  C   UNL     1     -10.716  10.642  66.918  1.00  0.00    -0.237 C  
ENDROOT
BRANCH   2   4
HETATM    4  N   UNL     1     -11.597  12.938  67.334  1.00  0.00    -0.339 N  
HETATM    5  C   UNL     1     -11.907  12.779  68.694  1.00  0.00    -0.304 C  
HETATM    6  O   UNL     1     -12.471  13.601  69.401  1.00  0.00    -0.233 OA 
BRANCH   4   7
HETATM    7  C   UNL     1     -12.132  14.169  66.713  1.00  0.00    -0.442 C  
BRANCH   7   8
HETATM    8  C   UNL     1     -11.094  15.251  66.479  1.00  0.00    -0.271 A  
HETATM    9  H2  UNL     1     -12.483  15.704  68.609  1.00  0.00     0.000 HD 
HETATM   10  C   UNL     1     -10.337  15.502  65.389  1.00  0.00    -0.394 A  
HETATM   11  N   UNL     1      -9.692  16.970  67.499  1.00  0.00    -0.247 NA 
HETATM   12  N   UNL     1      -9.179  16.255  65.332  1.00  0.00    -0.199 NA 
HETATM   13  H1  UNL     1     -11.460  16.938  69.355  1.00  0.00     0.000 HD 
HETATM   14  C   UNL     1      -7.485  17.516  66.502  1.00  0.00    -0.309 C  
HETATM   15  N   UNL     1     -11.647  16.288  68.591  1.00  0.00    -0.304 NA 
HETATM   16  C   UNL     1      -8.860  16.908  66.411  1.00  0.00    -0.287 A  
HETATM   17  C   UNL     1     -10.821  16.203  67.598  1.00  0.00    -0.297 A  
ENDBRANCH   7   8
ENDBRANCH   4   7
ENDBRANCH   2   4
BRANCH   3  18
HETATM   18  C   UNL     1     -10.045   9.690  65.833  1.00  0.00    -0.304 C  
BRANCH  18  19
HETATM   19  C   UNL     1      -8.529   9.960  65.487  1.00  0.00    -0.140 C  
BRANCH  19  20
HETATM   20  O   UNL     1      -7.705   8.766  65.210  1.00  0.00    -0.092 OA 
HETATM   21  O   UNL     1      -7.352   7.447  66.962  1.00  0.00    -0.092 OA 
HETATM   22  O   UNL     1      -7.463   6.590  64.684  1.00  0.00    -0.075 OA 
HETATM   23  P   UNL     1      -8.456   7.310  65.766  1.00  0.00    -0.093 P  
HETATM   24  O   UNL     1      -9.129   6.007  66.264  1.00  0.00    -0.145 OA 
ENDBRANCH  19  20
ENDBRANCH  18  19
ENDBRANCH   3  18
BRANCH   3  25
HETATM   25  S   UNL     1     -10.631  10.022  68.633  1.00  0.00    -0.222 SA 
BRANCH  25  26
HETATM   26  C   UNL     1      -8.934   9.800  69.229  1.00  0.00    -0.173 C  
HETATM   27  O   UNL     1      -8.048  10.587  68.916  1.00  0.00    -0.119 OA 
BRANCH  26  28
HETATM   28  C   UNL     1      -8.563   8.555  70.068  1.00  0.00    -0.134 A  
HETATM   29  C   UNL     1      -9.077   6.191  70.657  1.00  0.00    -0.156 A  
HETATM   30  C   UNL     1      -9.359   7.383  69.953  1.00  0.00    -0.154 A  
HETATM   31  C   UNL     1      -7.449   8.437  70.903  1.00  0.00    -0.066 A  
HETATM   32  C   UNL     1      -7.964   6.129  71.488  1.00  0.00    -0.110 A  
HETATM   33  C   UNL     1      -7.147   7.254  71.603  1.00  0.00    -0.067 A  
ENDBRANCH  26  28
ENDBRANCH  25  26
ENDBRANCH   3  25
TORSDOF 9
ENDMDL
MODEL      344
REMARK 921   NORMALIZED FREE ENERGY PREDICTED BY IDOCK:   -3.81 KCAL/MOL
REMARK 922        TOTAL FREE ENERGY PREDICTED BY IDOCK:   -7.32 KCAL/MOL
REMARK 923 INTER-LIGAND FREE ENERGY PREDICTED BY IDOCK:   -6.08 KCAL/MOL
REMARK 924 INTRA-LIGAND FREE ENERGY PREDICTED BY IDOCK:   -1.24 KCAL/MOL
REMARK 927      BINDING AFFINITY PREDICTED BY RF-SCORE:    0.00 PKD
ROOT
HETATM    1  C   UNL     1      -6.753  11.228  68.417  1.00  0.00    -0.061 C  
HETATM    2  C   UNL     1      -7.304   9.912  67.842  1.00  0.00    -0.088 C  
HETATM    3  C   UNL     1      -8.104   9.960  66.735  1.00  0.00    -0.117 C  
ENDROOT
BRANCH   2   4
HETATM    4  N   UNL     1      -6.849   8.771  68.531  1.00  0.00    -0.063 N  
HETATM    5  C   UNL     1      -6.280   8.876  69.811  1.00  0.00    -0.035 C  
HETATM    6  O   UNL     1      -5.605   8.023  70.367  1.00  0.00    -0.023 OA 
BRANCH   4   7
HETATM    7  C   UNL     1      -6.464   7.558  67.777  1.00  0.00    -0.054 C  
BRANCH   7   8
HETATM    8  C   UNL     1      -7.044   6.270  68.332  1.00  0.00    -0.083 A  
HETATM    9  H2  UNL     1      -4.978   5.827  66.845  1.00  0.00     0.000 HD 
HETATM   10  C   UNL     1      -8.223   6.049  68.951  1.00  0.00    -0.104 A  
HETATM   11  N   UNL     1      -6.600   3.954  68.964  1.00  0.00    -0.040 NA 
HETATM   12  N   UNL     1      -8.562   4.964  69.739  1.00  0.00    -0.086 NA 
HETATM   13  H1  UNL     1      -4.648   4.155  67.315  1.00  0.00     0.000 HD 
HETATM   14  C   UNL     1      -7.886   2.910  70.813  1.00  0.00    -0.047 C  
HETATM   15  N   UNL     1      -5.210   5.002  67.399  1.00  0.00    -0.007 NA 
HETATM   16  C   UNL     1      -7.707   3.984  69.772  1.00  0.00    -0.052 A  
HETATM   17  C   UNL     1      -6.219   5.029  68.209  1.00  0.00    -0.035 A  
ENDBRANCH   7   8
ENDBRANCH   4   7
ENDBRANCH   2   4
BRANCH   3  18
HETATM   18  C   UNL     1      -8.168  11.291  65.863  1.00  0.00     0.012 C  
BRANCH  18  19
HETATM   19  C   UNL     1      -9.500  12.134  65.944  1.00  0.00    -0.179 C  
BRANCH  19  20
HETATM   20  O   UNL     1     -10.595  11.702  65.050  1.00  0.00    -0.268 OA 
HETATM   21  O   UNL     1     -12.608  12.454  65.609  1.00  0.00    -0.575 OA 
HETATM   22  O   UNL     1     -11.976  12.011  63.299  1.00  0.00    -0.447 OA 
HETATM   23  P   UNL     1     -11.555  13.034  64.504  1.00  0.00    -0.414 P  
HETATM   24  O   UNL     1     -12.414  14.225  64.015  1.00  0.00    -0.700 OA 
ENDBRANCH  19  20
ENDBRANCH  18  19
ENDBRANCH   3  18
BRANCH   3  25
HETATM   25  S   UNL     1      -9.127   8.586  66.102  1.00  0.00    -0.202 SA 
BRANCH  25  26
HETATM   26  C   UNL     1     -10.454   8.102  67.238  1.00  0.00    -0.309 C  
HETATM   27  O   UNL     1     -11.131   7.102  67.026  1.00  0.00    -0.345 OA 
BRANCH  26  28
HETATM   28  C   UNL     1     -10.810   9.001  68.444  1.00  0.00    -0.062 A  
HETATM   29  C   UNL     1     -11.773  11.153  69.245  1.00  0.00    -0.401 A  
HETATM   30  C   UNL     1     -11.388  10.278  68.205  1.00  0.00    -0.245 A  
HETATM   31  C   UNL     1     -10.683   8.650  69.790  1.00  0.00    -0.215 A  
HETATM   32  C   UNL     1     -11.612  10.762  70.569  1.00  0.00    -0.425 A  
HETATM   33  C   UNL     1     -11.072   9.504  70.838  1.00  0.00    -0.406 A  
ENDBRANCH  26  28
ENDBRANCH  25  26
ENDBRANCH   3  25
TORSDOF 9
ENDMDL
MODEL      345
REMARK 921   NORMALIZED FREE ENERGY PREDICTED BY IDOCK:   -3.80 KCAL/MOL
REMARK 922        TOTAL FREE ENERGY PREDICTED BY IDOCK:   -7.30 KCAL/MOL
REMARK 923 INTER-LIGAND FREE ENERGY PREDICTED BY IDOCK:   -6.14 KCAL/MOL
REMARK 924 INTRA-LIGAND FREE ENERGY PREDICTED BY IDOCK:   -1.17 KCAL/MOL
REMARK 927      BINDING AFFINITY PREDICTED BY RF-SCORE:    0.00 PKD
ROOT
HETATM    1  C   UNL     1      -8.107  10.880  68.173  1.00  0.00    -0.119 C  
HETATM    2  C   UNL     1      -8.847   9.660  67.599  1.00  0.00    -0.125 C  
HETATM    3  C   UNL     1      -9.716   8.977  68.404  1.00  0.00    -0.156 C  
ENDROOT
BRANCH   2   4
HETATM    4  N   UNL     1      -8.561   9.425  66.240  1.00  0.00    -0.129 N  
HETATM    5  C   UNL     1      -7.251   9.531  65.746  1.00  0.00    -0.097 C  
HETATM    6  O   UNL     1      -6.934   9.635  64.570  1.00  0.00    -0.105 OA 
BRANCH   4   7
HETATM    7  C   UNL     1      -9.623   9.587  65.224  1.00  0.00    -0.243 C  
BRANCH   7   8
HETATM    8  C   UNL     1     -10.117  11.013  65.062  1.00  0.00    -0.354 A  
HETATM    9  H2  UNL     1      -8.703  10.256  63.038  1.00  0.00     0.000 HD 
HETATM   10  C   UNL     1     -10.682  11.841  65.967  1.00  0.00    -0.279 A  
HETATM   11  N   UNL     1     -10.700  12.791  63.494  1.00  0.00    -0.302 NA 
HETATM   12  N   UNL     1     -11.424  12.979  65.710  1.00  0.00    -0.319 NA 
HETATM   13  H1  UNL     1      -9.137  11.535  61.897  1.00  0.00     0.000 HD 
HETATM   14  C   UNL     1     -12.465  14.433  64.088  1.00  0.00    -0.236 C  
HETATM   15  N   UNL     1      -9.223  11.106  62.819  1.00  0.00    -0.343 NA 
HETATM   16  C   UNL     1     -11.463  13.376  64.472  1.00  0.00    -0.372 A  
HETATM   17  C   UNL     1      -9.992  11.642  63.711  1.00  0.00    -0.349 A  
ENDBRANCH   7   8
ENDBRANCH   4   7
ENDBRANCH   2   4
BRANCH   3  18
HETATM   18  C   UNL     1     -10.212   9.633  69.767  1.00  0.00    -0.262 C  
BRANCH  18  19
HETATM   19  C   UNL     1     -10.202   8.712  71.048  1.00  0.00    -0.220 C  
BRANCH  19  20
HETATM   20  O   UNL     1      -9.183   9.032  72.069  1.00  0.00    -0.373 OA 
HETATM   21  O   UNL     1      -9.312   7.823  73.928  1.00  0.00    -0.277 OA 
HETATM   22  O   UNL     1      -7.200   8.694  73.080  1.00  0.00    -0.316 OA 
HETATM   23  P   UNL     1      -8.348   7.622  72.624  1.00  0.00    -0.146 P  
HETATM   24  O   UNL     1      -7.601   6.361  73.120  1.00  0.00    -0.094 OA 
ENDBRANCH  19  20
ENDBRANCH  18  19
ENDBRANCH   3  18
BRANCH   3  25
HETATM   25  S   UNL     1     -10.424   7.332  68.049  1.00  0.00    -0.184 SA 
BRANCH  25  26
HETATM   26  C   UNL     1      -9.301   5.968  68.452  1.00  0.00    -0.119 C  
HETATM   27  O   UNL     1      -9.177   5.574  69.606  1.00  0.00    -0.128 OA 
BRANCH  26  28
HETATM   28  C   UNL     1      -8.411   5.345  67.352  1.00  0.00    -0.106 A  
HETATM   29  C   UNL     1      -6.444   3.922  66.798  1.00  0.00    -0.041 A  
HETATM   30  C   UNL     1      -7.293   4.555  67.734  1.00  0.00    -0.069 A  
HETATM   31  C   UNL     1      -8.640   5.423  65.976  1.00  0.00    -0.127 A  
HETATM   32  C   UNL     1      -6.706   4.043  65.439  1.00  0.00    -0.052 A  
HETATM   33  C   UNL     1      -7.812   4.790  65.031  1.00  0.00    -0.094 A  
ENDBRANCH  26  28
ENDBRANCH  25  26
ENDBRANCH   3  25
TORSDOF 9
ENDMDL
MODEL      346
REMARK 921   NORMALIZED FREE ENERGY PREDICTED BY IDOCK:   -3.77 KCAL/MOL
REMARK 922        TOTAL FREE ENERGY PREDICTED BY IDOCK:   -7.27 KCAL/MOL
REMARK 923 INTER-LIGAND FREE ENERGY PREDICTED BY IDOCK:   -5.66 KCAL/MOL
REMARK 924 INTRA-LIGAND FREE ENERGY PREDICTED BY IDOCK:   -1.60 KCAL/MOL
REMARK 927      BINDING AFFINITY PREDICTED BY RF-SCORE:    0.00 PKD
ROOT
HETATM    1  C   UNL     1     -10.356   7.805  66.868  1.00  0.00    -0.396 C  
HETATM    2  C   UNL     1      -9.994   6.384  67.333  1.00  0.00    -0.138 C  
HETATM    3  C   UNL     1     -10.206   6.045  68.640  1.00  0.00    -0.188 C  
ENDROOT
BRANCH   2   4
HETATM    4  N   UNL     1      -9.520   5.563  66.292  1.00  0.00    -0.155 N  
HETATM    5  C   UNL     1     -10.281   4.482  65.819  1.00  0.00    -0.265 C  
HETATM    6  O   UNL     1      -9.863   3.553  65.143  1.00  0.00    -0.157 OA 
BRANCH   4   7
HETATM    7  C   UNL     1      -8.067   5.460  66.036  1.00  0.00    -0.107 C  
BRANCH   7   8
HETATM    8  C   UNL     1      -7.492   6.620  65.244  1.00  0.00    -0.082 A  
HETATM    9  H2  UNL     1      -8.272   4.701  63.700  1.00  0.00     0.000 HD 
HETATM   10  C   UNL     1      -6.787   7.691  65.667  1.00  0.00    -0.049 A  
HETATM   11  N   UNL     1      -7.471   7.805  63.110  1.00  0.00    -0.108 NA 
HETATM   12  N   UNL     1      -6.585   8.880  64.989  1.00  0.00    -0.068 NA 
HETATM   13  H1  UNL     1      -8.272   5.565  62.157  1.00  0.00     0.000 HD 
HETATM   14  C   UNL     1      -7.056  10.253  63.060  1.00  0.00    -0.119 C  
HETATM   15  N   UNL     1      -8.116   5.556  63.166  1.00  0.00    -0.100 NA 
HETATM   16  C   UNL     1      -6.996   8.918  63.756  1.00  0.00    -0.088 A  
HETATM   17  C   UNL     1      -7.720   6.632  63.766  1.00  0.00    -0.111 A  
ENDBRANCH   7   8
ENDBRANCH   4   7
ENDBRANCH   2   4
BRANCH   3  18
HETATM   18  C   UNL     1     -11.124   6.967  69.558  1.00  0.00    -0.270 C  
BRANCH  18  19
HETATM   19  C   UNL     1     -11.771   6.290  70.828  1.00  0.00    -0.220 C  
BRANCH  19  20
HETATM   20  O   UNL     1     -12.788   7.091  71.541  1.00  0.00    -0.376 OA 
HETATM   21  O   UNL     1     -11.972   8.532  73.021  1.00  0.00    -0.186 OA 
HETATM   22  O   UNL     1     -14.042   8.943  71.803  1.00  0.00    -0.394 OA 
HETATM   23  P   UNL     1     -12.446   8.786  71.479  1.00  0.00    -0.320 P  
HETATM   24  O   UNL     1     -12.141  10.302  71.423  1.00  0.00    -0.372 OA 
ENDBRANCH  19  20
ENDBRANCH  18  19
ENDBRANCH   3  18
BRANCH   3  25
HETATM   25  S   UNL     1      -9.544   4.560  69.472  1.00  0.00    -0.208 SA 
BRANCH  25  26
HETATM   26  C   UNL     1      -8.150   4.920  70.573  1.00  0.00    -0.084 C  
HETATM   27  O   UNL     1      -7.063   4.377  70.413  1.00  0.00    -0.043 OA 
BRANCH  26  28
HETATM   28  C   UNL     1      -8.345   5.852  71.792  1.00  0.00    -0.119 A  
HETATM   29  C   UNL     1      -8.289   8.173  72.691  1.00  0.00    -0.236 A  
HETATM   30  C   UNL     1      -8.108   7.245  71.641  1.00  0.00    -0.100 A  
HETATM   31  C   UNL     1      -8.812   5.462  73.050  1.00  0.00    -0.120 A  
HETATM   32  C   UNL     1      -8.742   7.733  73.929  1.00  0.00    -0.322 A  
HETATM   33  C   UNL     1      -9.009   6.374  74.103  1.00  0.00    -0.161 A  
ENDBRANCH  26  28
ENDBRANCH  25  26
ENDBRANCH   3  25
TORSDOF 9
ENDMDL
MODEL      347
REMARK 921   NORMALIZED FREE ENERGY PREDICTED BY IDOCK:   -3.77 KCAL/MOL
REMARK 922        TOTAL FREE ENERGY PREDICTED BY IDOCK:   -7.27 KCAL/MOL
REMARK 923 INTER-LIGAND FREE ENERGY PREDICTED BY IDOCK:   -6.21 KCAL/MOL
REMARK 924 INTRA-LIGAND FREE ENERGY PREDICTED BY IDOCK:   -1.05 KCAL/MOL
REMARK 927      BINDING AFFINITY PREDICTED BY RF-SCORE:    0.00 PKD
ROOT
HETATM    1  C   UNL     1     -10.830   9.000  66.847  1.00  0.00    -0.002 C  
HETATM    2  C   UNL     1      -9.723  10.003  66.485  1.00  0.00    -0.200 C  
HETATM    3  C   UNL     1      -9.054  10.639  67.493  1.00  0.00    -0.139 C  
ENDROOT
BRANCH   2   4
HETATM    4  N   UNL     1      -9.494  10.101  65.099  1.00  0.00    -0.237 N  
HETATM    5  C   UNL     1      -8.190  10.094  64.577  1.00  0.00    -0.162 C  
HETATM    6  O   UNL     1      -7.864  10.456  63.456  1.00  0.00    -0.149 OA 
BRANCH   4   7
HETATM    7  C   UNL     1     -10.509  10.730  64.226  1.00  0.00    -0.259 C  
BRANCH   7   8
HETATM    8  C   UNL     1     -10.717  12.212  64.480  1.00  0.00    -0.353 A  
HETATM    9  H2  UNL     1     -12.934  11.022  63.894  1.00  0.00     0.000 HD 
HETATM   10  C   UNL     1      -9.810  13.205  64.590  1.00  0.00     0.012 A  
HETATM   11  N   UNL     1     -12.285  13.949  65.173  1.00  0.00    -0.403 NA 
HETATM   12  N   UNL     1     -10.001  14.452  65.157  1.00  0.00    -0.311 NA 
HETATM   13  H1  UNL     1     -14.069  12.275  64.411  1.00  0.00     0.000 HD 
HETATM   14  C   UNL     1     -11.450  15.967  66.355  1.00  0.00     0.361 C  
HETATM   15  N   UNL     1     -13.111  11.944  64.293  1.00  0.00    -0.544 NA 
HETATM   16  C   UNL     1     -11.221  14.754  65.492  1.00  0.00    -0.346 A  
HETATM   17  C   UNL     1     -12.121  12.696  64.652  1.00  0.00    -0.420 A  
ENDBRANCH   7   8
ENDBRANCH   4   7
ENDBRANCH   2   4
BRANCH   3  18
HETATM   18  C   UNL     1      -9.170  10.095  68.985  1.00  0.00    -0.188 C  
BRANCH  18  19
HETATM   19  C   UNL     1      -8.474   8.715  69.298  1.00  0.00    -0.123 C  
BRANCH  19  20
HETATM   20  O   UNL     1      -8.800   8.105  70.604  1.00  0.00    -0.135 OA 
HETATM   21  O   UNL     1     -10.559   8.988  71.633  1.00  0.00    -0.316 OA 
HETATM   22  O   UNL     1      -9.931   6.649  71.896  1.00  0.00    -0.178 OA 
HETATM   23  P   UNL     1     -10.463   7.643  70.711  1.00  0.00    -0.214 P  
HETATM   24  O   UNL     1     -11.952   7.229  70.808  1.00  0.00    -0.314 OA 
ENDBRANCH  19  20
ENDBRANCH  18  19
ENDBRANCH   3  18
BRANCH   3  25
HETATM   25  S   UNL     1      -7.966  12.092  67.295  1.00  0.00    -0.174 SA 
BRANCH  25  26
HETATM   26  C   UNL     1      -8.619  13.587  68.084  1.00  0.00    -0.173 C  
HETATM   27  O   UNL     1      -9.734  13.595  68.592  1.00  0.00    -0.202 OA 
BRANCH  26  28
HETATM   28  C   UNL     1      -7.809  14.903  68.042  1.00  0.00    -0.131 A  
HETATM   29  C   UNL     1      -7.823  17.384  68.252  1.00  0.00    -0.247 A  
HETATM   30  C   UNL     1      -8.486  16.137  68.244  1.00  0.00    -0.180 A  
HETATM   31  C   UNL     1      -6.424  15.005  67.890  1.00  0.00    -0.175 A  
HETATM   32  C   UNL     1      -6.445  17.433  68.081  1.00  0.00    -0.168 A  
HETATM   33  C   UNL     1      -5.746  16.237  67.907  1.00  0.00    -0.143 A  
ENDBRANCH  26  28
ENDBRANCH  25  26
ENDBRANCH   3  25
TORSDOF 9
ENDMDL
MODEL      348
REMARK 921   NORMALIZED FREE ENERGY PREDICTED BY IDOCK:   -3.76 KCAL/MOL
REMARK 922        TOTAL FREE ENERGY PREDICTED BY IDOCK:   -7.25 KCAL/MOL
REMARK 923 INTER-LIGAND FREE ENERGY PREDICTED BY IDOCK:   -5.91 KCAL/MOL
REMARK 924 INTRA-LIGAND FREE ENERGY PREDICTED BY IDOCK:   -1.34 KCAL/MOL
REMARK 927      BINDING AFFINITY PREDICTED BY RF-SCORE:    0.00 PKD
ROOT
HETATM    1  C   UNL     1      -9.881   8.642  65.959  1.00  0.00    -0.183 C  
HETATM    2  C   UNL     1      -9.402   8.009  67.277  1.00  0.00    -0.144 C  
HETATM    3  C   UNL     1      -8.343   8.572  67.932  1.00  0.00    -0.126 C  
ENDROOT
BRANCH   2   4
HETATM    4  N   UNL     1     -10.187   6.913  67.684  1.00  0.00    -0.169 N  
HETATM    5  C   UNL     1     -10.702   6.835  68.988  1.00  0.00    -0.246 C  
HETATM    6  O   UNL     1     -11.136   5.828  69.528  1.00  0.00    -0.366 OA 
BRANCH   4   7
HETATM    7  C   UNL     1     -10.059   5.614  66.987  1.00  0.00    -0.188 C  
BRANCH   7   8
HETATM    8  C   UNL     1      -8.629   5.215  66.673  1.00  0.00    -0.110 A  
HETATM    9  H2  UNL     1      -9.274   4.631  69.106  1.00  0.00     0.000 HD 
HETATM   10  C   UNL     1      -7.853   5.538  65.617  1.00  0.00    -0.101 A  
HETATM   11  N   UNL     1      -6.775   3.724  67.220  1.00  0.00    -0.046 NA 
HETATM   12  N   UNL     1      -6.706   4.891  65.194  1.00  0.00    -0.047 NA 
HETATM   13  H1  UNL     1      -7.939   3.539  69.496  1.00  0.00     0.000 HD 
HETATM   14  C   UNL     1      -5.174   3.042  65.448  1.00  0.00    -0.009 C  
HETATM   15  N   UNL     1      -8.416   4.151  68.833  1.00  0.00    -0.081 NA 
HETATM   16  C   UNL     1      -6.246   3.960  65.977  1.00  0.00    -0.032 A  
HETATM   17  C   UNL     1      -7.931   4.318  67.645  1.00  0.00    -0.091 A  
ENDBRANCH   7   8
ENDBRANCH   4   7
ENDBRANCH   2   4
BRANCH   3  18
HETATM   18  C   UNL     1      -7.855  10.034  67.534  1.00  0.00    -0.095 C  
BRANCH  18  19
HETATM   19  C   UNL     1      -8.394  11.230  68.412  1.00  0.00    -0.152 C  
BRANCH  19  20
HETATM   20  O   UNL     1      -9.862  11.391  68.455  1.00  0.00    -0.192 OA 
HETATM   21  O   UNL     1     -10.602  13.384  67.813  1.00  0.00    -0.239 OA 
HETATM   22  O   UNL     1     -11.901  11.347  67.499  1.00  0.00    -0.614 OA 
HETATM   23  P   UNL     1     -10.498  11.994  66.963  1.00  0.00    -0.234 P  
HETATM   24  O   UNL     1     -11.066  12.533  65.627  1.00  0.00    -0.285 OA 
ENDBRANCH  19  20
ENDBRANCH  18  19
ENDBRANCH   3  18
BRANCH   3  25
HETATM   25  S   UNL     1      -7.408   7.802  69.298  1.00  0.00    -0.089 SA 
BRANCH  25  26
HETATM   26  C   UNL     1      -7.610   8.666  70.878  1.00  0.00    -0.090 C  
HETATM   27  O   UNL     1      -6.997   9.700  71.114  1.00  0.00    -0.304 OA 
BRANCH  26  28
HETATM   28  C   UNL     1      -8.494   8.054  71.989  1.00  0.00    -0.188 A  
HETATM   29  C   UNL     1     -10.769   7.819  72.972  1.00  0.00    -0.446 A  
HETATM   30  C   UNL     1      -9.883   8.357  72.013  1.00  0.00    -0.354 A  
HETATM   31  C   UNL     1      -8.068   7.147  72.964  1.00  0.00    -0.121 A  
HETATM   32  C   UNL     1     -10.293   6.933  73.931  1.00  0.00    -0.398 A  
HETATM   33  C   UNL     1      -8.940   6.594  73.919  1.00  0.00    -0.170 A  
ENDBRANCH  26  28
ENDBRANCH  25  26
ENDBRANCH   3  25
TORSDOF 9
ENDMDL
MODEL      349
REMARK 921   NORMALIZED FREE ENERGY PREDICTED BY IDOCK:   -3.76 KCAL/MOL
REMARK 922        TOTAL FREE ENERGY PREDICTED BY IDOCK:   -7.25 KCAL/MOL
REMARK 923 INTER-LIGAND FREE ENERGY PREDICTED BY IDOCK:   -5.92 KCAL/MOL
REMARK 924 INTRA-LIGAND FREE ENERGY PREDICTED BY IDOCK:   -1.33 KCAL/MOL
REMARK 927      BINDING AFFINITY PREDICTED BY RF-SCORE:    0.00 PKD
ROOT
HETATM    1  C   UNL     1     -10.360   9.574  70.370  1.00  0.00    -0.334 C  
HETATM    2  C   UNL     1      -9.497  10.337  69.351  1.00  0.00    -0.206 C  
HETATM    3  C   UNL     1      -8.190   9.968  69.186  1.00  0.00    -0.137 C  
ENDROOT
BRANCH   2   4
HETATM    4  N   UNL     1     -10.211  11.327  68.648  1.00  0.00    -0.198 N  
HETATM    5  C   UNL     1     -10.340  12.628  69.161  1.00  0.00     0.190 C  
HETATM    6  O   UNL     1     -11.154  13.464  68.797  1.00  0.00    -0.243 OA 
BRANCH   4   7
HETATM    7  C   UNL     1     -11.256  10.934  67.678  1.00  0.00    -0.309 C  
BRANCH   7   8
HETATM    8  C   UNL     1     -10.770  10.844  66.243  1.00  0.00    -0.241 A  
HETATM    9  H2  UNL     1     -12.695  12.548  66.495  1.00  0.00     0.000 HD 
HETATM   10  C   UNL     1      -9.956   9.937  65.661  1.00  0.00    -0.283 A  
HETATM   11  N   UNL     1     -10.556  11.992  64.099  1.00  0.00    -0.322 NA 
HETATM   12  N   UNL     1      -9.266  10.076  64.470  1.00  0.00    -0.243 NA 
HETATM   13  H1  UNL     1     -12.529  13.390  64.950  1.00  0.00     0.000 HD 
HETATM   14  C   UNL     1      -8.636  11.480  62.609  1.00  0.00     0.128 C  
HETATM   15  N   UNL     1     -12.220  12.667  65.600  1.00  0.00    -0.590 NA 
HETATM   16  C   UNL     1      -9.540  11.134  63.764  1.00  0.00    -0.271 A  
HETATM   17  C   UNL     1     -11.223  11.902  65.289  1.00  0.00    -0.295 A  
ENDBRANCH   7   8
ENDBRANCH   4   7
ENDBRANCH   2   4
BRANCH   3  18
HETATM   18  C   UNL     1      -7.684   8.574  69.764  1.00  0.00    -0.092 C  
BRANCH  18  19
HETATM   19  C   UNL     1      -7.530   7.388  68.734  1.00  0.00    -0.101 C  
BRANCH  19  20
HETATM   20  O   UNL     1      -8.703   7.118  67.876  1.00  0.00    -0.126 OA 
HETATM   21  O   UNL     1      -9.788   5.237  68.343  1.00  0.00    -0.137 OA 
HETATM   22  O   UNL     1     -10.909   7.200  67.435  1.00  0.00    -0.282 OA 
HETATM   23  P   UNL     1     -10.122   6.769  68.802  1.00  0.00    -0.177 P  
HETATM   24  O   UNL     1     -11.392   6.457  69.630  1.00  0.00    -0.387 OA 
ENDBRANCH  19  20
ENDBRANCH  18  19
ENDBRANCH   3  18
BRANCH   3  25
HETATM   25  S   UNL     1      -6.917  10.935  68.304  1.00  0.00    -0.071 SA 
BRANCH  25  26
HETATM   26  C   UNL     1      -6.326  12.366  69.247  1.00  0.00    -0.106 C  
HETATM   27  O   UNL     1      -5.974  12.249  70.415  1.00  0.00    -0.165 OA 
BRANCH  26  28
HETATM   28  C   UNL     1      -6.349  13.776  68.613  1.00  0.00    -0.090 A  
HETATM   29  C   UNL     1      -5.143  15.916  68.210  1.00  0.00    -0.106 A  
HETATM   30  C   UNL     1      -5.222  14.626  68.779  1.00  0.00    -0.089 A  
HETATM   31  C   UNL     1      -7.368  14.292  67.808  1.00  0.00    -0.185 A  
HETATM   32  C   UNL     1      -6.191  16.390  67.429  1.00  0.00    -0.200 A  
HETATM   33  C   UNL     1      -7.301  15.570  67.224  1.00  0.00    -0.249 A  
ENDBRANCH  26  28
ENDBRANCH  25  26
ENDBRANCH   3  25
TORSDOF 9
ENDMDL
MODEL      350
REMARK 921   NORMALIZED FREE ENERGY PREDICTED BY IDOCK:   -3.76 KCAL/MOL
REMARK 922        TOTAL FREE ENERGY PREDICTED BY IDOCK:   -7.24 KCAL/MOL
REMARK 923 INTER-LIGAND FREE ENERGY PREDICTED BY IDOCK:   -6.57 KCAL/MOL
REMARK 924 INTRA-LIGAND FREE ENERGY PREDICTED BY IDOCK:   -0.67 KCAL/MOL
REMARK 927      BINDING AFFINITY PREDICTED BY RF-SCORE:    0.00 PKD
ROOT
HETATM    1  C   UNL     1     -11.435  11.826  66.628  1.00  0.00    -0.337 C  
HETATM    2  C   UNL     1     -10.843  11.564  68.023  1.00  0.00    -0.213 C  
HETATM    3  C   UNL     1      -9.807  10.680  68.144  1.00  0.00    -0.155 C  
ENDROOT
BRANCH   2   4
HETATM    4  N   UNL     1     -11.436  12.345  69.034  1.00  0.00    -0.280 N  
HETATM    5  C   UNL     1     -11.927  11.756  70.210  1.00  0.00    -0.343 C  
HETATM    6  O   UNL     1     -12.700  12.274  71.002  1.00  0.00    -0.328 OA 
BRANCH   4   7
HETATM    7  C   UNL     1     -12.032  13.656  68.699  1.00  0.00    -0.360 C  
BRANCH   7   8
HETATM    8  C   UNL     1     -11.021  14.779  68.549  1.00  0.00    -0.265 A  
HETATM    9  H2  UNL     1     -12.114  14.782  70.890  1.00  0.00     0.000 HD 
HETATM   10  C   UNL     1     -10.412  15.252  67.441  1.00  0.00    -0.270 A  
HETATM   11  N   UNL     1      -9.479  16.285  69.696  1.00  0.00    -0.060 NA 
HETATM   12  N   UNL     1      -9.263  16.020  67.382  1.00  0.00    -0.206 NA 
HETATM   13  H1  UNL     1     -10.987  15.860  71.724  1.00  0.00     0.000 HD 
HETATM   14  C   UNL     1      -7.416  17.051  68.546  1.00  0.00    -0.221 C  
HETATM   15  N   UNL     1     -11.280  15.370  70.878  1.00  0.00    -0.342 NA 
HETATM   16  C   UNL     1      -8.798  16.452  68.517  1.00  0.00    -0.224 A  
HETATM   17  C   UNL     1     -10.593  15.496  69.789  1.00  0.00    -0.295 A  
ENDBRANCH   7   8
ENDBRANCH   4   7
ENDBRANCH   2   4
BRANCH   3  18
HETATM   18  C   UNL     1      -9.010  10.213  66.846  1.00  0.00    -0.146 C  
BRANCH  18  19
HETATM   19  C   UNL     1      -9.822   9.402  65.763  1.00  0.00    -0.275 C  
BRANCH  19  20
HETATM   20  O   UNL     1      -9.481   9.682  64.353  1.00  0.00    -0.234 OA 
HETATM   21  O   UNL     1      -7.357  10.225  63.997  1.00  0.00    -0.133 OA 
HETATM   22  O   UNL     1      -8.705   9.067  62.331  1.00  0.00    -0.221 OA 
HETATM   23  P   UNL     1      -8.101   8.782  63.825  1.00  0.00    -0.137 P  
HETATM   24  O   UNL     1      -6.867   7.976  63.351  1.00  0.00    -0.077 OA 
ENDBRANCH  19  20
ENDBRANCH  18  19
ENDBRANCH   3  18
BRANCH   3  25
HETATM   25  S   UNL     1      -9.192   9.971  69.710  1.00  0.00    -0.151 SA 
BRANCH  25  26
HETATM   26  C   UNL     1      -8.255   8.438  69.482  1.00  0.00    -0.118 C  
HETATM   27  O   UNL     1      -7.103   8.337  69.887  1.00  0.00    -0.053 OA 
BRANCH  26  28
HETATM   28  C   UNL     1      -8.870   7.264  68.686  1.00  0.00    -0.129 A  
HETATM   29  C   UNL     1     -10.929   6.042  68.001  1.00  0.00    -0.340 A  
HETATM   30  C   UNL     1     -10.278   7.068  68.721  1.00  0.00    -0.181 A  
HETATM   31  C   UNL     1      -8.170   6.388  67.852  1.00  0.00    -0.115 A  
HETATM   32  C   UNL     1     -10.185   5.186  67.197  1.00  0.00    -0.254 A  
HETATM   33  C   UNL     1      -8.804   5.367  67.120  1.00  0.00    -0.109 A  
ENDBRANCH  26  28
ENDBRANCH  25  26
ENDBRANCH   3  25
TORSDOF 9
ENDMDL
MODEL      351
REMARK 921   NORMALIZED FREE ENERGY PREDICTED BY IDOCK:   -3.74 KCAL/MOL
REMARK 922        TOTAL FREE ENERGY PREDICTED BY IDOCK:   -7.21 KCAL/MOL
REMARK 923 INTER-LIGAND FREE ENERGY PREDICTED BY IDOCK:   -6.13 KCAL/MOL
REMARK 924 INTRA-LIGAND FREE ENERGY PREDICTED BY IDOCK:   -1.08 KCAL/MOL
REMARK 927      BINDING AFFINITY PREDICTED BY RF-SCORE:    0.00 PKD
ROOT
HETATM    1  C   UNL     1      -9.227  11.851  67.739  1.00  0.00    -0.184 C  
HETATM    2  C   UNL     1     -10.028  12.548  66.627  1.00  0.00    -0.236 C  
HETATM    3  C   UNL     1     -10.716  13.691  66.927  1.00  0.00    -0.275 C  
ENDROOT
BRANCH   2   4
HETATM    4  N   UNL     1      -9.900  11.919  65.373  1.00  0.00    -0.240 N  
HETATM    5  C   UNL     1      -9.560  12.654  64.226  1.00  0.00     0.265 C  
HETATM    6  O   UNL     1      -9.702  12.284  63.069  1.00  0.00    -0.269 OA 
BRANCH   4   7
HETATM    7  C   UNL     1     -10.606  10.647  65.110  1.00  0.00    -0.120 C  
BRANCH   7   8
HETATM    8  C   UNL     1      -9.947   9.430  65.733  1.00  0.00    -0.278 A  
HETATM    9  H2  UNL     1      -8.929   9.992  63.426  1.00  0.00     0.000 HD 
HETATM   10  C   UNL     1     -10.325   8.692  66.799  1.00  0.00    -0.266 A  
HETATM   11  N   UNL     1      -7.937   8.048  65.848  1.00  0.00    -0.102 NA 
HETATM   12  N   UNL     1      -9.539   7.827  67.538  1.00  0.00    -0.143 NA 
HETATM   13  H1  UNL     1      -7.465   9.004  63.517  1.00  0.00     0.000 HD 
HETATM   14  C   UNL     1      -7.357   6.884  67.963  1.00  0.00    -0.097 C  
HETATM   15  N   UNL     1      -8.333   9.340  63.936  1.00  0.00    -0.169 NA 
HETATM   16  C   UNL     1      -8.347   7.589  67.073  1.00  0.00    -0.121 A  
HETATM   17  C   UNL     1      -8.676   8.938  65.117  1.00  0.00    -0.178 A  
ENDBRANCH   7   8
ENDBRANCH   4   7
ENDBRANCH   2   4
BRANCH   3  18
HETATM   18  C   UNL     1     -10.407  14.466  68.283  1.00  0.00    -0.239 C  
BRANCH  18  19
HETATM   19  C   UNL     1     -11.430  14.267  69.467  1.00  0.00    -0.287 C  
BRANCH  19  20
HETATM   20  O   UNL     1     -11.207  13.085  70.326  1.00  0.00     0.201 OA 
HETATM   21  O   UNL     1     -13.028  12.298  71.325  1.00  0.00    -0.322 OA 
HETATM   22  O   UNL     1     -11.166  10.863  70.685  1.00  0.00    -0.178 OA 
HETATM   23  P   UNL     1     -12.296  11.793  69.955  1.00  0.00     0.008 P  
HETATM   24  O   UNL     1     -13.270  10.637  69.623  1.00  0.00     0.039 OA 
ENDBRANCH  19  20
ENDBRANCH  18  19
ENDBRANCH   3  18
BRANCH   3  25
HETATM   25  S   UNL     1     -11.983  14.475  65.873  1.00  0.00    -0.259 SA 
BRANCH  25  26
HETATM   26  C   UNL     1     -11.400  15.984  65.056  1.00  0.00    -0.156 C  
HETATM   27  O   UNL     1     -11.768  16.269  63.922  1.00  0.00    -0.986 OA 
BRANCH  26  28
HETATM   28  C   UNL     1     -10.352  16.885  65.748  1.00  0.00    -0.298 A  
HETATM   29  C   UNL     1      -7.955  17.284  66.288  1.00  0.00    -0.330 A  
HETATM   30  C   UNL     1      -8.982  16.507  65.710  1.00  0.00    -0.006 A  
HETATM   31  C   UNL     1     -10.612  18.110  66.369  1.00  0.00    -0.288 A  
HETATM   32  C   UNL     1      -8.267  18.488  66.908  1.00  0.00    -0.266 A  
HETATM   33  C   UNL     1      -9.599  18.902  66.940  1.00  0.00    -0.348 A  
ENDBRANCH  26  28
ENDBRANCH  25  26
ENDBRANCH   3  25
TORSDOF 9
ENDMDL
MODEL      352
REMARK 921   NORMALIZED FREE ENERGY PREDICTED BY IDOCK:   -3.73 KCAL/MOL
REMARK 922        TOTAL FREE ENERGY PREDICTED BY IDOCK:   -7.20 KCAL/MOL
REMARK 923 INTER-LIGAND FREE ENERGY PREDICTED BY IDOCK:   -6.42 KCAL/MOL
REMARK 924 INTRA-LIGAND FREE ENERGY PREDICTED BY IDOCK:   -0.77 KCAL/MOL
REMARK 927      BINDING AFFINITY PREDICTED BY RF-SCORE:    0.00 PKD
ROOT
HETATM    1  C   UNL     1      -8.239   9.368  70.192  1.00  0.00    -0.180 C  
HETATM    2  C   UNL     1      -8.512   8.123  69.332  1.00  0.00    -0.127 C  
HETATM    3  C   UNL     1      -9.109   8.282  68.112  1.00  0.00    -0.134 C  
ENDROOT
BRANCH   2   4
HETATM    4  N   UNL     1      -8.042   6.930  69.915  1.00  0.00    -0.123 N  
HETATM    5  C   UNL     1      -7.480   5.911  69.129  1.00  0.00    -0.085 C  
HETATM    6  O   UNL     1      -7.311   4.751  69.474  1.00  0.00    -0.054 OA 
BRANCH   4   7
HETATM    7  C   UNL     1      -8.580   6.485  71.219  1.00  0.00    -0.127 C  
BRANCH   7   8
HETATM    8  C   UNL     1     -10.068   6.731  71.395  1.00  0.00    -0.198 A  
HETATM    9  H2  UNL     1      -8.724   7.464  73.476  1.00  0.00     0.000 HD 
HETATM   10  C   UNL     1     -11.110   6.295  70.656  1.00  0.00    -0.327 A  
HETATM   11  N   UNL     1     -11.784   8.053  72.520  1.00  0.00    -0.387 NA 
HETATM   12  N   UNL     1     -12.393   6.811  70.634  1.00  0.00    -0.289 NA 
HETATM   13  H1  UNL     1      -9.963   8.433  74.283  1.00  0.00     0.000 HD 
HETATM   14  C   UNL     1     -13.940   8.510  71.376  1.00  0.00    -0.331 C  
HETATM   15  N   UNL     1      -9.669   7.847  73.501  1.00  0.00    -0.259 NA 
HETATM   16  C   UNL     1     -12.665   7.721  71.523  1.00  0.00    -0.332 A  
HETATM   17  C   UNL     1     -10.497   7.590  72.541  1.00  0.00    -0.249 A  
ENDBRANCH   7   8
ENDBRANCH   4   7
ENDBRANCH   2   4
BRANCH   3  18
HETATM   18  C   UNL     1      -9.189   9.730  67.454  1.00  0.00    -0.151 C  
BRANCH  18  19
HETATM   19  C   UNL     1     -10.232   9.927  66.287  1.00  0.00    -0.211 C  
BRANCH  19  20
HETATM   20  O   UNL     1     -11.084  11.131  66.375  1.00  0.00    -0.247 OA 
HETATM   21  O   UNL     1     -10.090  13.024  65.775  1.00  0.00    -0.286 OA 
HETATM   22  O   UNL     1     -12.479  12.655  65.480  1.00  0.00    -0.622 OA 
HETATM   23  P   UNL     1     -11.072  12.048  64.908  1.00  0.00    -0.301 P  
HETATM   24  O   UNL     1     -11.061  12.869  63.596  1.00  0.00    -0.419 OA 
ENDBRANCH  19  20
ENDBRANCH  18  19
ENDBRANCH   3  18
BRANCH   3  25
HETATM   25  S   UNL     1      -9.826   6.944  67.097  1.00  0.00    -0.179 SA 
BRANCH  25  26
HETATM   26  C   UNL     1      -8.621   6.161  65.993  1.00  0.00    -0.145 C  
HETATM   27  O   UNL     1      -8.278   4.996  66.160  1.00  0.00    -0.107 OA 
BRANCH  26  28
HETATM   28  C   UNL     1      -7.938   6.987  64.879  1.00  0.00    -0.127 A  
HETATM   29  C   UNL     1      -7.452   7.239  62.451  1.00  0.00    -0.096 A  
HETATM   30  C   UNL     1      -8.019   6.533  63.534  1.00  0.00    -0.075 A  
HETATM   31  C   UNL     1      -7.285   8.210  65.054  1.00  0.00    -0.076 A  
HETATM   32  C   UNL     1      -6.800   8.444  62.679  1.00  0.00    -0.090 A  
HETATM   33  C   UNL     1      -6.725   8.931  63.984  1.00  0.00    -0.087 A  
ENDBRANCH  26  28
ENDBRANCH  25  26
ENDBRANCH   3  25
TORSDOF 9
ENDMDL
MODEL      353
REMARK 921   NORMALIZED FREE ENERGY PREDICTED BY IDOCK:   -3.72 KCAL/MOL
REMARK 922        TOTAL FREE ENERGY PREDICTED BY IDOCK:   -7.19 KCAL/MOL
REMARK 923 INTER-LIGAND FREE ENERGY PREDICTED BY IDOCK:   -7.26 KCAL/MOL
REMARK 924 INTRA-LIGAND FREE ENERGY PREDICTED BY IDOCK:    0.07 KCAL/MOL
REMARK 927      BINDING AFFINITY PREDICTED BY RF-SCORE:    0.00 PKD
ROOT
HETATM    1  C   UNL     1      -8.935  10.388  68.735  1.00  0.00    -0.157 C  
HETATM    2  C   UNL     1      -8.892  11.878  68.355  1.00  0.00    -0.159 C  
HETATM    3  C   UNL     1     -10.054  12.498  67.986  1.00  0.00    -0.220 C  
ENDROOT
BRANCH   2   4
HETATM    4  N   UNL     1      -7.613  12.450  68.493  1.00  0.00    -0.127 N  
HETATM    5  C   UNL     1      -7.002  13.127  67.425  1.00  0.00    -0.107 C  
HETATM    6  O   UNL     1      -5.815  13.401  67.335  1.00  0.00    -0.339 OA 
BRANCH   4   7
HETATM    7  C   UNL     1      -6.679  11.930  69.515  1.00  0.00    -0.054 C  
BRANCH   7   8
HETATM    8  C   UNL     1      -6.031  10.606  69.149  1.00  0.00    -0.041 A  
HETATM    9  H2  UNL     1      -6.347  10.844  71.703  1.00  0.00     0.000 HD 
HETATM   10  C   UNL     1      -5.502  10.197  67.977  1.00  0.00    -0.038 A  
HETATM   11  N   UNL     1      -5.652   8.286  69.806  1.00  0.00    -0.026 NA 
HETATM   12  N   UNL     1      -5.245   8.896  67.585  1.00  0.00    -0.034 NA 
HETATM   13  H1  UNL     1      -6.088   9.160  72.176  1.00  0.00     0.000 HD 
HETATM   14  C   UNL     1      -5.400   6.534  68.064  1.00  0.00    -0.008 C  
HETATM   15  N   UNL     1      -6.142   9.877  71.451  1.00  0.00    -0.285 NA 
HETATM   16  C   UNL     1      -5.395   7.978  68.495  1.00  0.00    -0.032 A  
HETATM   17  C   UNL     1      -5.951   9.557  70.212  1.00  0.00    -0.047 A  
ENDBRANCH   7   8
ENDBRANCH   4   7
ENDBRANCH   2   4
BRANCH   3  18
HETATM   18  C   UNL     1     -11.452  11.799  68.286  1.00  0.00    -0.370 C  
BRANCH  18  19
HETATM   19  C   UNL     1     -11.893  11.704  69.799  1.00  0.00    -0.357 C  
BRANCH  19  20
HETATM   20  O   UNL     1     -12.636  10.486  70.181  1.00  0.00    -0.293 OA 
HETATM   21  O   UNL     1     -11.458   8.605  70.089  1.00  0.00    -0.158 OA 
HETATM   22  O   UNL     1     -13.276   8.929  71.678  1.00  0.00    -0.335 OA 
HETATM   23  P   UNL     1     -11.796   9.555  71.374  1.00  0.00    -0.420 P  
HETATM   24  O   UNL     1     -11.044   8.723  72.441  1.00  0.00    -0.327 OA 
ENDBRANCH  19  20
ENDBRANCH  18  19
ENDBRANCH   3  18
BRANCH   3  25
HETATM   25  S   UNL     1     -10.176  14.132  67.180  1.00  0.00    -0.260 SA 
BRANCH  25  26
HETATM   26  C   UNL     1      -9.946  15.514  68.329  1.00  0.00    -0.213 C  
HETATM   27  O   UNL     1      -9.693  15.316  69.511  1.00  0.00    -0.238 OA 
BRANCH  26  28
HETATM   28  C   UNL     1     -10.160  16.967  67.846  1.00  0.00    -0.306 A  
HETATM   29  C   UNL     1     -10.275  19.382  68.442  1.00  0.00    -0.516 A  
HETATM   30  C   UNL     1     -10.120  18.024  68.797  1.00  0.00    -0.388 A  
HETATM   31  C   UNL     1     -10.326  17.370  66.518  1.00  0.00    -0.312 A  
HETATM   32  C   UNL     1     -10.453  19.730  67.109  1.00  0.00    -0.592 A  
HETATM   33  C   UNL     1     -10.470  18.719  66.147  1.00  0.00    -0.499 A  
ENDBRANCH  26  28
ENDBRANCH  25  26
ENDBRANCH   3  25
TORSDOF 9
ENDMDL
MODEL      354
REMARK 921   NORMALIZED FREE ENERGY PREDICTED BY IDOCK:   -3.71 KCAL/MOL
REMARK 922        TOTAL FREE ENERGY PREDICTED BY IDOCK:   -7.17 KCAL/MOL
REMARK 923 INTER-LIGAND FREE ENERGY PREDICTED BY IDOCK:   -6.20 KCAL/MOL
REMARK 924 INTRA-LIGAND FREE ENERGY PREDICTED BY IDOCK:   -0.97 KCAL/MOL
REMARK 927      BINDING AFFINITY PREDICTED BY RF-SCORE:    0.00 PKD
ROOT
HETATM    1  C   UNL     1      -8.065  10.518  67.836  1.00  0.00    -0.107 C  
HETATM    2  C   UNL     1      -9.234  10.392  68.828  1.00  0.00    -0.172 C  
HETATM    3  C   UNL     1      -9.085   9.588  69.923  1.00  0.00    -0.216 C  
ENDROOT
BRANCH   2   4
HETATM    4  N   UNL     1     -10.338  11.199  68.491  1.00  0.00    -0.185 N  
HETATM    5  C   UNL     1     -11.066  10.975  67.311  1.00  0.00    -0.294 C  
HETATM    6  O   UNL     1     -11.836  11.764  66.783  1.00  0.00    -0.586 OA 
BRANCH   4   7
HETATM    7  C   UNL     1     -10.442  12.570  69.035  1.00  0.00     0.010 C  
BRANCH   7   8
HETATM    8  C   UNL     1     -10.011  13.658  68.069  1.00  0.00    -0.247 A  
HETATM    9  H2  UNL     1     -12.491  13.910  68.749  1.00  0.00     0.000 HD 
HETATM   10  C   UNL     1      -8.893  13.755  67.318  1.00  0.00    -0.220 A  
HETATM   11  N   UNL     1     -10.405  15.931  67.268  1.00  0.00    -0.286 NA 
HETATM   12  N   UNL     1      -8.377  14.895  66.730  1.00  0.00    -0.188 NA 
HETATM   13  H1  UNL     1     -12.770  15.562  68.183  1.00  0.00     0.000 HD 
HETATM   14  C   UNL     1      -8.507  17.286  66.415  1.00  0.00    -0.304 C  
HETATM   15  N   UNL     1     -12.148  14.762  68.304  1.00  0.00    -0.210 NA 
HETATM   16  C   UNL     1      -9.121  15.961  66.786  1.00  0.00    -0.248 A  
HETATM   17  C   UNL     1     -10.923  14.829  67.892  1.00  0.00    -0.278 A  
ENDBRANCH   7   8
ENDBRANCH   4   7
ENDBRANCH   2   4
BRANCH   3  18
HETATM   18  C   UNL     1      -7.634   9.087  70.345  1.00  0.00    -0.100 C  
BRANCH  18  19
HETATM   19  C   UNL     1      -7.253   7.603  69.968  1.00  0.00    -0.071 C  
BRANCH  19  20
HETATM   20  O   UNL     1      -7.908   7.052  68.764  1.00  0.00    -0.114 OA 
HETATM   21  O   UNL     1      -6.563   6.760  67.020  1.00  0.00    -0.041 OA 
HETATM   22  O   UNL     1      -8.503   5.342  67.425  1.00  0.00    -0.107 OA 
HETATM   23  P   UNL     1      -7.068   5.677  68.134  1.00  0.00    -0.073 P  
HETATM   24  O   UNL     1      -6.316   4.447  67.571  1.00  0.00    -0.035 OA 
ENDBRANCH  19  20
ENDBRANCH  18  19
ENDBRANCH   3  18
BRANCH   3  25
HETATM   25  S   UNL     1     -10.432   9.030  71.023  1.00  0.00    -0.296 SA 
BRANCH  25  26
HETATM   26  C   UNL     1     -11.128   7.427  70.544  1.00  0.00    -0.261 C  
HETATM   27  O   UNL     1     -11.927   7.337  69.620  1.00  0.00     0.252 OA 
BRANCH  26  28
HETATM   28  C   UNL     1     -10.789   6.159  71.363  1.00  0.00    -0.319 A  
HETATM   29  C   UNL     1     -11.234   4.791  73.395  1.00  0.00    -0.425 A  
HETATM   30  C   UNL     1     -11.458   5.935  72.597  1.00  0.00    -0.319 A  
HETATM   31  C   UNL     1      -9.916   5.143  70.968  1.00  0.00    -0.274 A  
HETATM   32  C   UNL     1     -10.343   3.815  72.965  1.00  0.00    -0.243 A  
HETATM   33  C   UNL     1      -9.690   3.992  71.745  1.00  0.00    -0.241 A  
ENDBRANCH  26  28
ENDBRANCH  25  26
ENDBRANCH   3  25
TORSDOF 9
ENDMDL
MODEL      355
REMARK 921   NORMALIZED FREE ENERGY PREDICTED BY IDOCK:   -3.70 KCAL/MOL
REMARK 922        TOTAL FREE ENERGY PREDICTED BY IDOCK:   -7.16 KCAL/MOL
REMARK 923 INTER-LIGAND FREE ENERGY PREDICTED BY IDOCK:   -6.49 KCAL/MOL
REMARK 924 INTRA-LIGAND FREE ENERGY PREDICTED BY IDOCK:   -0.67 KCAL/MOL
REMARK 927      BINDING AFFINITY PREDICTED BY RF-SCORE:    0.00 PKD
ROOT
HETATM    1  C   UNL     1      -7.046   8.720  65.089  1.00  0.00    -0.086 C  
HETATM    2  C   UNL     1      -7.666   8.720  66.496  1.00  0.00    -0.099 C  
HETATM    3  C   UNL     1      -8.507   9.740  66.846  1.00  0.00    -0.120 C  
ENDROOT
BRANCH   2   4
HETATM    4  N   UNL     1      -7.314   7.590  67.259  1.00  0.00    -0.096 N  
HETATM    5  C   UNL     1      -6.870   7.721  68.585  1.00  0.00    -0.062 C  
HETATM    6  O   UNL     1      -6.277   6.868  69.229  1.00  0.00    -0.028 OA 
BRANCH   4   7
HETATM    7  C   UNL     1      -6.891   6.346  66.581  1.00  0.00    -0.066 C  
BRANCH   7   8
HETATM    8  C   UNL     1      -7.705   5.123  66.962  1.00  0.00    -0.092 A  
HETATM    9  H2  UNL     1      -5.419   4.472  65.949  1.00  0.00     0.000 HD 
HETATM   10  C   UNL     1      -9.007   5.022  67.304  1.00  0.00    -0.113 A  
HETATM   11  N   UNL     1      -7.645   2.771  67.615  1.00  0.00    -0.057 NA 
HETATM   12  N   UNL     1      -9.618   3.976  67.971  1.00  0.00    -0.161 NA 
HETATM   13  H1  UNL     1      -5.369   2.773  66.436  1.00  0.00     0.000 HD 
HETATM   14  C   UNL     1      -9.404   1.859  69.112  1.00  0.00    -0.184 C  
HETATM   15  N   UNL     1      -5.848   3.674  66.417  1.00  0.00    -0.022 NA 
HETATM   16  C   UNL     1      -8.894   2.912  68.163  1.00  0.00    -0.127 A  
HETATM   17  C   UNL     1      -7.002   3.803  66.989  1.00  0.00    -0.055 A  
ENDBRANCH   7   8
ENDBRANCH   4   7
ENDBRANCH   2   4
BRANCH   3  18
HETATM   18  C   UNL     1      -9.103  10.695  65.719  1.00  0.00    -0.208 C  
BRANCH  18  19
HETATM   19  C   UNL     1      -9.371  12.196  66.124  1.00  0.00    -0.195 C  
BRANCH  19  20
HETATM   20  O   UNL     1     -10.296  12.948  65.251  1.00  0.00    -0.291 OA 
HETATM   21  O   UNL     1     -12.440  12.413  65.482  1.00  0.00    -0.643 OA 
HETATM   22  O   UNL     1     -11.713  14.650  64.845  1.00  0.00    -0.372 OA 
HETATM   23  P   UNL     1     -11.603  13.654  66.138  1.00  0.00    -0.384 P  
HETATM   24  O   UNL     1     -12.772  14.286  66.931  1.00  0.00    -0.076 OA 
ENDBRANCH  19  20
ENDBRANCH  18  19
ENDBRANCH   3  18
BRANCH   3  25
HETATM   25  S   UNL     1      -9.071  10.118  68.540  1.00  0.00    -0.139 SA 
BRANCH  25  26
HETATM   26  C   UNL     1     -10.870  10.025  68.733  1.00  0.00    -0.219 C  
HETATM   27  O   UNL     1     -11.618  10.292  67.800  1.00  0.00    -0.331 OA 
BRANCH  26  28
HETATM   28  C   UNL     1     -11.486   9.696  70.112  1.00  0.00    -0.238 A  
HETATM   29  C   UNL     1     -13.016  10.393  71.948  1.00  0.00    -0.555 A  
HETATM   30  C   UNL     1     -12.384  10.624  70.707  1.00  0.00    -0.472 A  
HETATM   31  C   UNL     1     -11.301   8.509  70.827  1.00  0.00    -0.296 A  
HETATM   32  C   UNL     1     -12.787   9.202  72.627  1.00  0.00    -0.293 A  
HETATM   33  C   UNL     1     -11.932   8.258  72.058  1.00  0.00    -0.405 A  
ENDBRANCH  26  28
ENDBRANCH  25  26
ENDBRANCH   3  25
TORSDOF 9
ENDMDL
MODEL      356
REMARK 921   NORMALIZED FREE ENERGY PREDICTED BY IDOCK:   -3.70 KCAL/MOL
REMARK 922        TOTAL FREE ENERGY PREDICTED BY IDOCK:   -7.16 KCAL/MOL
REMARK 923 INTER-LIGAND FREE ENERGY PREDICTED BY IDOCK:   -5.99 KCAL/MOL
REMARK 924 INTRA-LIGAND FREE ENERGY PREDICTED BY IDOCK:   -1.17 KCAL/MOL
REMARK 927      BINDING AFFINITY PREDICTED BY RF-SCORE:    0.00 PKD
ROOT
HETATM    1  C   UNL     1      -6.925  10.705  68.555  1.00  0.00    -0.067 C  
HETATM    2  C   UNL     1      -7.425   9.383  67.948  1.00  0.00    -0.084 C  
HETATM    3  C   UNL     1      -8.276   9.429  66.879  1.00  0.00    -0.116 C  
ENDROOT
BRANCH   2   4
HETATM    4  N   UNL     1      -6.874   8.244  68.567  1.00  0.00    -0.063 N  
HETATM    5  C   UNL     1      -5.715   7.634  68.061  1.00  0.00    -0.032 C  
HETATM    6  O   UNL     1      -5.323   6.508  68.329  1.00  0.00    -0.007 OA 
BRANCH   4   7
HETATM    7  C   UNL     1      -7.732   7.365  69.390  1.00  0.00    -0.106 C  
BRANCH   7   8
HETATM    8  C   UNL     1      -7.374   7.350  70.865  1.00  0.00    -0.073 A  
HETATM    9  H2  UNL     1      -7.650   4.960  69.923  1.00  0.00     0.000 HD 
HETATM   10  C   UNL     1      -7.363   8.358  71.763  1.00  0.00    -0.100 A  
HETATM   11  N   UNL     1      -6.349   6.092  72.689  1.00  0.00    -0.057 NA 
HETATM   12  N   UNL     1      -6.711   8.384  72.982  1.00  0.00    -0.142 NA 
HETATM   13  H1  UNL     1      -6.894   4.051  71.237  1.00  0.00     0.000 HD 
HETATM   14  C   UNL     1      -5.219   7.300  74.541  1.00  0.00    -0.058 C  
HETATM   15  N   UNL     1      -7.182   4.941  70.829  1.00  0.00    -0.058 NA 
HETATM   16  C   UNL     1      -6.168   7.268  73.371  1.00  0.00    -0.060 A  
HETATM   17  C   UNL     1      -6.952   6.046  71.463  1.00  0.00    -0.076 A  
ENDBRANCH   7   8
ENDBRANCH   4   7
ENDBRANCH   2   4
BRANCH   3  18
HETATM   18  C   UNL     1      -8.455  10.788  66.069  1.00  0.00    -0.169 C  
BRANCH  18  19
HETATM   19  C   UNL     1      -9.930  11.208  65.698  1.00  0.00    -0.249 C  
BRANCH  19  20
HETATM   20  O   UNL     1     -10.521  12.289  66.514  1.00  0.00    -0.223 OA 
HETATM   21  O   UNL     1     -10.924  14.176  65.413  1.00  0.00    -0.304 OA 
HETATM   22  O   UNL     1     -12.276  13.455  67.307  1.00  0.00    -0.335 OA 
HETATM   23  P   UNL     1     -11.943  12.954  65.786  1.00  0.00    -0.433 P  
HETATM   24  O   UNL     1     -13.215  13.549  65.135  1.00  0.00    -0.720 OA 
ENDBRANCH  19  20
ENDBRANCH  18  19
ENDBRANCH   3  18
BRANCH   3  25
HETATM   25  S   UNL     1      -9.245   8.023  66.232  1.00  0.00    -0.163 SA 
BRANCH  25  26
HETATM   26  C   UNL     1     -10.486   7.413  67.403  1.00  0.00    -0.296 C  
HETATM   27  O   UNL     1     -11.156   6.418  67.149  1.00  0.00    -0.377 OA 
BRANCH  26  28
HETATM   28  C   UNL     1     -10.781   8.198  68.701  1.00  0.00    -0.065 A  
HETATM   29  C   UNL     1     -11.263   8.114  71.143  1.00  0.00    -0.289 A  
HETATM   30  C   UNL     1     -11.016   7.479  69.905  1.00  0.00    -0.223 A  
HETATM   31  C   UNL     1     -10.771   9.589  68.833  1.00  0.00    -0.220 A  
HETATM   32  C   UNL     1     -11.257   9.502  71.218  1.00  0.00    -0.452 A  
HETATM   33  C   UNL     1     -11.003  10.237  70.060  1.00  0.00    -0.371 A  
ENDBRANCH  26  28
ENDBRANCH  25  26
ENDBRANCH   3  25
TORSDOF 9
ENDMDL
MODEL      357
REMARK 921   NORMALIZED FREE ENERGY PREDICTED BY IDOCK:   -3.68 KCAL/MOL
REMARK 922        TOTAL FREE ENERGY PREDICTED BY IDOCK:   -7.13 KCAL/MOL
REMARK 923 INTER-LIGAND FREE ENERGY PREDICTED BY IDOCK:   -6.27 KCAL/MOL
REMARK 924 INTRA-LIGAND FREE ENERGY PREDICTED BY IDOCK:   -0.86 KCAL/MOL
REMARK 927      BINDING AFFINITY PREDICTED BY RF-SCORE:    0.00 PKD
ROOT
HETATM    1  C   UNL     1      -7.711   9.162  64.292  1.00  0.00    -0.120 C  
HETATM    2  C   UNL     1      -8.303   8.145  65.282  1.00  0.00    -0.152 C  
HETATM    3  C   UNL     1      -9.323   8.541  66.102  1.00  0.00    -0.214 C  
ENDROOT
BRANCH   2   4
HETATM    4  N   UNL     1      -7.728   6.864  65.174  1.00  0.00    -0.102 N  
HETATM    5  C   UNL     1      -8.524   5.730  64.946  1.00  0.00    -0.103 C  
HETATM    6  O   UNL     1      -8.183   4.569  65.120  1.00  0.00    -0.107 OA 
BRANCH   4   7
HETATM    7  C   UNL     1      -6.417   6.589  65.800  1.00  0.00    -0.043 C  
BRANCH   7   8
HETATM    8  C   UNL     1      -6.487   6.297  67.288  1.00  0.00    -0.049 A  
HETATM    9  H2  UNL     1      -5.592   8.675  66.821  1.00  0.00     0.000 HD 
HETATM   10  C   UNL     1      -6.681   5.126  67.931  1.00  0.00    -0.055 A  
HETATM   11  N   UNL     1      -6.697   7.238  69.531  1.00  0.00    -0.044 NA 
HETATM   12  N   UNL     1      -7.081   4.949  69.243  1.00  0.00    -0.054 NA 
HETATM   13  H1  UNL     1      -5.759   9.361  68.442  1.00  0.00     0.000 HD 
HETATM   14  C   UNL     1      -7.827   5.935  71.317  1.00  0.00    -0.112 C  
HETATM   15  N   UNL     1      -5.862   8.575  67.800  1.00  0.00    -0.042 NA 
HETATM   16  C   UNL     1      -7.141   6.021  69.978  1.00  0.00    -0.071 A  
HETATM   17  C   UNL     1      -6.336   7.449  68.229  1.00  0.00    -0.040 A  
ENDBRANCH   7   8
ENDBRANCH   4   7
ENDBRANCH   2   4
BRANCH   3  18
HETATM   18  C   UNL     1     -10.107   9.892  65.793  1.00  0.00    -0.317 C  
BRANCH  18  19
HETATM   19  C   UNL     1      -9.419  11.237  66.250  1.00  0.00    -0.204 C  
BRANCH  19  20
HETATM   20  O   UNL     1     -10.073  12.484  65.804  1.00  0.00    -0.256 OA 
HETATM   21  O   UNL     1     -12.273  12.544  66.104  1.00  0.00    -0.609 OA 
HETATM   22  O   UNL     1     -10.891  14.549  66.175  1.00  0.00    -0.305 OA 
HETATM   23  P   UNL     1     -11.082  13.168  67.031  1.00  0.00    -0.300 P  
HETATM   24  O   UNL     1     -11.984  13.781  68.130  1.00  0.00    -0.362 OA 
ENDBRANCH  19  20
ENDBRANCH  18  19
ENDBRANCH   3  18
BRANCH   3  25
HETATM   25  S   UNL     1      -9.930   7.625  67.560  1.00  0.00    -0.197 SA 
BRANCH  25  26
HETATM   26  C   UNL     1     -10.651   8.699  68.829  1.00  0.00    -0.140 C  
HETATM   27  O   UNL     1     -10.991   9.846  68.565  1.00  0.00    -0.225 OA 
BRANCH  26  28
HETATM   28  C   UNL     1     -10.760   8.207  70.291  1.00  0.00    -0.235 A  
HETATM   29  C   UNL     1     -11.582   6.460  71.863  1.00  0.00    -0.367 A  
HETATM   30  C   UNL     1     -11.459   7.000  70.563  1.00  0.00    -0.363 A  
HETATM   31  C   UNL     1     -10.163   8.810  71.401  1.00  0.00    -0.350 A  
HETATM   32  C   UNL     1     -10.983   7.107  72.937  1.00  0.00    -0.359 A  
HETATM   33  C   UNL     1     -10.266   8.280  72.700  1.00  0.00    -0.368 A  
ENDBRANCH  26  28
ENDBRANCH  25  26
ENDBRANCH   3  25
TORSDOF 9
ENDMDL
MODEL      358
REMARK 921   NORMALIZED FREE ENERGY PREDICTED BY IDOCK:   -3.67 KCAL/MOL
REMARK 922        TOTAL FREE ENERGY PREDICTED BY IDOCK:   -7.11 KCAL/MOL
REMARK 923 INTER-LIGAND FREE ENERGY PREDICTED BY IDOCK:   -5.00 KCAL/MOL
REMARK 924 INTRA-LIGAND FREE ENERGY PREDICTED BY IDOCK:   -2.11 KCAL/MOL
REMARK 927      BINDING AFFINITY PREDICTED BY RF-SCORE:    0.00 PKD
ROOT
HETATM    1  C   UNL     1      -9.807   9.238  66.689  1.00  0.00    -0.311 C  
HETATM    2  C   UNL     1      -8.846   8.264  67.391  1.00  0.00    -0.131 C  
HETATM    3  C   UNL     1      -9.053   7.969  68.709  1.00  0.00    -0.144 C  
ENDROOT
BRANCH   2   4
HETATM    4  N   UNL     1      -7.863   7.738  66.530  1.00  0.00    -0.099 N  
HETATM    5  C   UNL     1      -6.555   8.248  66.526  1.00  0.00    -0.056 C  
HETATM    6  O   UNL     1      -5.722   8.076  65.649  1.00  0.00    -0.036 OA 
BRANCH   4   7
HETATM    7  C   UNL     1      -8.266   7.047  65.286  1.00  0.00    -0.128 C  
BRANCH   7   8
HETATM    8  C   UNL     1      -8.633   5.587  65.476  1.00  0.00    -0.150 A  
HETATM    9  H2  UNL     1      -6.396   5.854  64.210  1.00  0.00     0.000 HD 
HETATM   10  C   UNL     1      -9.798   5.033  65.875  1.00  0.00    -0.164 A  
HETATM   11  N   UNL     1      -7.809   3.296  65.656  1.00  0.00    -0.085 NA 
HETATM   12  N   UNL     1      -9.990   3.754  66.365  1.00  0.00    -0.049 NA 
HETATM   13  H1  UNL     1      -5.793   4.198  64.355  1.00  0.00     0.000 HD 
HETATM   14  C   UNL     1      -9.029   1.651  67.060  1.00  0.00    -0.132 C  
HETATM   15  N   UNL     1      -6.514   4.896  64.542  1.00  0.00    -0.037 NA 
HETATM   16  C   UNL     1      -8.969   2.951  66.301  1.00  0.00    -0.148 A  
HETATM   17  C   UNL     1      -7.577   4.565  65.201  1.00  0.00    -0.077 A  
ENDBRANCH   7   8
ENDBRANCH   4   7
ENDBRANCH   2   4
BRANCH   3  18
HETATM   18  C   UNL     1     -10.444   8.337  69.393  1.00  0.00    -0.224 C  
BRANCH  18  19
HETATM   19  C   UNL     1     -10.450   9.570  70.378  1.00  0.00    -0.278 C  
BRANCH  19  20
HETATM   20  O   UNL     1     -11.275   9.423  71.595  1.00  0.00    -0.370 OA 
HETATM   21  O   UNL     1     -13.433   9.054  71.221  1.00  0.00    -0.301 OA 
HETATM   22  O   UNL     1     -12.280   8.183  73.183  1.00  0.00    -0.118 OA 
HETATM   23  P   UNL     1     -12.242   7.989  71.559  1.00  0.00    -0.301 P  
HETATM   24  O   UNL     1     -13.107   6.705  71.527  1.00  0.00    -0.243 OA 
ENDBRANCH  19  20
ENDBRANCH  18  19
ENDBRANCH   3  18
BRANCH   3  25
HETATM   25  S   UNL     1      -7.863   7.129  69.809  1.00  0.00    -0.120 SA 
BRANCH  25  26
HETATM   26  C   UNL     1      -8.603   6.563  71.364  1.00  0.00    -0.126 C  
HETATM   27  O   UNL     1      -8.622   7.286  72.353  1.00  0.00    -0.114 OA 
BRANCH  26  28
HETATM   28  C   UNL     1      -9.138   5.117  71.487  1.00  0.00    -0.169 A  
HETATM   29  C   UNL     1      -9.420   2.885  70.422  1.00  0.00    -0.201 A  
HETATM   30  C   UNL     1      -8.989   4.230  70.387  1.00  0.00    -0.147 A  
HETATM   31  C   UNL     1      -9.709   4.554  72.631  1.00  0.00    -0.189 A  
HETATM   32  C   UNL     1      -9.996   2.376  71.579  1.00  0.00    -0.126 A  
HETATM   33  C   UNL     1     -10.133   3.214  72.687  1.00  0.00    -0.230 A  
ENDBRANCH  26  28
ENDBRANCH  25  26
ENDBRANCH   3  25
TORSDOF 9
ENDMDL
MODEL      359
REMARK 921   NORMALIZED FREE ENERGY PREDICTED BY IDOCK:   -3.67 KCAL/MOL
REMARK 922        TOTAL FREE ENERGY PREDICTED BY IDOCK:   -7.11 KCAL/MOL
REMARK 923 INTER-LIGAND FREE ENERGY PREDICTED BY IDOCK:   -5.63 KCAL/MOL
REMARK 924 INTRA-LIGAND FREE ENERGY PREDICTED BY IDOCK:   -1.48 KCAL/MOL
REMARK 927      BINDING AFFINITY PREDICTED BY RF-SCORE:    0.00 PKD
ROOT
HETATM    1  C   UNL     1     -10.841   9.528  70.878  1.00  0.00    -0.407 C  
HETATM    2  C   UNL     1      -9.930  10.148  69.806  1.00  0.00    -0.220 C  
HETATM    3  C   UNL     1      -8.625   9.744  69.735  1.00  0.00    -0.201 C  
ENDROOT
BRANCH   2   4
HETATM    4  N   UNL     1     -10.601  11.054  68.963  1.00  0.00    -0.216 N  
HETATM    5  C   UNL     1     -11.076  12.283  69.451  1.00  0.00    -0.101 C  
HETATM    6  O   UNL     1     -11.902  12.999  68.905  1.00  0.00    -0.302 OA 
BRANCH   4   7
HETATM    7  C   UNL     1     -11.283  10.563  67.746  1.00  0.00    -0.273 C  
BRANCH   7   8
HETATM    8  C   UNL     1     -10.488  10.752  66.467  1.00  0.00    -0.299 A  
HETATM    9  H2  UNL     1      -9.907   8.521  67.633  1.00  0.00     0.000 HD 
HETATM   10  C   UNL     1     -10.332  11.853  65.701  1.00  0.00    -0.247 A  
HETATM   11  N   UNL     1      -9.299   9.656  64.639  1.00  0.00    -0.250 NA 
HETATM   12  N   UNL     1      -9.901  11.902  64.388  1.00  0.00    -0.216 NA 
HETATM   13  H1  UNL     1      -9.060   7.722  66.303  1.00  0.00     0.000 HD 
HETATM   14  C   UNL     1      -9.243  10.712  62.392  1.00  0.00    -0.300 C  
HETATM   15  N   UNL     1      -9.561   8.530  66.674  1.00  0.00    -0.207 NA 
HETATM   16  C   UNL     1      -9.464  10.787  63.881  1.00  0.00    -0.274 A  
HETATM   17  C   UNL     1      -9.755   9.568  65.925  1.00  0.00    -0.282 A  
ENDBRANCH   7   8
ENDBRANCH   4   7
ENDBRANCH   2   4
BRANCH   3  18
HETATM   18  C   UNL     1      -8.165   8.423  70.497  1.00  0.00    -0.113 C  
BRANCH  18  19
HETATM   19  C   UNL     1      -8.782   7.059  69.998  1.00  0.00    -0.142 C  
BRANCH  19  20
HETATM   20  O   UNL     1      -7.825   5.953  69.790  1.00  0.00    -0.096 OA 
HETATM   21  O   UNL     1      -6.110   5.925  71.202  1.00  0.00    -0.035 OA 
HETATM   22  O   UNL     1      -7.037   3.891  70.232  1.00  0.00    -0.040 OA 
HETATM   23  P   UNL     1      -7.508   5.081  71.250  1.00  0.00    -0.086 P  
HETATM   24  O   UNL     1      -7.225   4.300  72.557  1.00  0.00    -0.062 OA 
ENDBRANCH  19  20
ENDBRANCH  18  19
ENDBRANCH   3  18
BRANCH   3  25
HETATM   25  S   UNL     1      -7.305  10.578  68.790  1.00  0.00    -0.100 SA 
BRANCH  25  26
HETATM   26  C   UNL     1      -6.854  12.197  69.467  1.00  0.00     0.044 C  
HETATM   27  O   UNL     1      -6.203  12.288  70.502  1.00  0.00    -0.193 OA 
BRANCH  26  28
HETATM   28  C   UNL     1      -7.369  13.490  68.794  1.00  0.00    -0.086 A  
HETATM   29  C   UNL     1      -7.597  15.967  68.905  1.00  0.00    -0.190 A  
HETATM   30  C   UNL     1      -7.187  14.734  69.458  1.00  0.00    -0.160 A  
HETATM   31  C   UNL     1      -7.952  13.574  67.527  1.00  0.00    -0.186 A  
HETATM   32  C   UNL     1      -8.186  15.995  67.647  1.00  0.00    -0.162 A  
HETATM   33  C   UNL     1      -8.356  14.794  66.956  1.00  0.00    -0.228 A  
ENDBRANCH  26  28
ENDBRANCH  25  26
ENDBRANCH   3  25
TORSDOF 9
ENDMDL
MODEL      360
REMARK 921   NORMALIZED FREE ENERGY PREDICTED BY IDOCK:   -3.64 KCAL/MOL
REMARK 922        TOTAL FREE ENERGY PREDICTED BY IDOCK:   -7.07 KCAL/MOL
REMARK 923 INTER-LIGAND FREE ENERGY PREDICTED BY IDOCK:   -5.03 KCAL/MOL
REMARK 924 INTRA-LIGAND FREE ENERGY PREDICTED BY IDOCK:   -2.04 KCAL/MOL
REMARK 927      BINDING AFFINITY PREDICTED BY RF-SCORE:    0.00 PKD
ROOT
HETATM    1  C   UNL     1     -11.880   9.174  71.194  1.00  0.00    -0.374 C  
HETATM    2  C   UNL     1     -10.671   9.217  70.244  1.00  0.00    -0.243 C  
HETATM    3  C   UNL     1      -9.679   8.289  70.397  1.00  0.00    -0.168 C  
ENDROOT
BRANCH   2   4
HETATM    4  N   UNL     1     -10.772  10.220  69.261  1.00  0.00    -0.219 N  
HETATM    5  C   UNL     1     -11.061  11.550  69.610  1.00  0.00    -0.143 C  
HETATM    6  O   UNL     1     -11.451  12.422  68.847  1.00  0.00    -0.262 OA 
BRANCH   4   7
HETATM    7  C   UNL     1     -11.106   9.856  67.867  1.00  0.00    -0.152 C  
BRANCH   7   8
HETATM    8  C   UNL     1      -9.921   9.870  66.920  1.00  0.00    -0.268 A  
HETATM    9  H2  UNL     1     -10.666   7.462  67.484  1.00  0.00     0.000 HD 
HETATM   10  C   UNL     1      -9.108  10.889  66.566  1.00  0.00    -0.169 A  
HETATM   11  N   UNL     1      -8.704   8.668  65.177  1.00  0.00    -0.173 NA 
HETATM   12  N   UNL     1      -8.279  10.951  65.461  1.00  0.00    -0.106 NA 
HETATM   13  H1  UNL     1      -9.797   6.594  66.212  1.00  0.00     0.000 HD 
HETATM   14  C   UNL     1      -7.500   9.935  63.414  1.00  0.00    -0.132 C  
HETATM   15  N   UNL     1     -10.042   7.469  66.676  1.00  0.00    -0.224 NA 
HETATM   16  C   UNL     1      -8.159   9.858  64.766  1.00  0.00    -0.151 A  
HETATM   17  C   UNL     1      -9.562   8.588  66.239  1.00  0.00    -0.236 A  
ENDBRANCH   7   8
ENDBRANCH   4   7
ENDBRANCH   2   4
BRANCH   3  18
HETATM   18  C   UNL     1      -9.938   6.995  71.289  1.00  0.00    -0.196 C  
BRANCH  18  19
HETATM   19  C   UNL     1     -10.747   5.817  70.620  1.00  0.00    -0.281 C  
BRANCH  19  20
HETATM   20  O   UNL     1     -10.311   5.418  69.266  1.00  0.00    -0.235 OA 
HETATM   21  O   UNL     1      -8.143   4.971  69.078  1.00  0.00    -0.083 OA 
HETATM   22  O   UNL     1      -9.827   3.870  67.703  1.00  0.00    -0.143 OA 
HETATM   23  P   UNL     1      -9.400   3.947  69.280  1.00  0.00    -0.165 P  
HETATM   24  O   UNL     1      -8.585   2.631  69.293  1.00  0.00    -0.059 OA 
ENDBRANCH  19  20
ENDBRANCH  18  19
ENDBRANCH   3  18
BRANCH   3  25
HETATM   25  S   UNL     1      -8.027   8.363  69.624  1.00  0.00    -0.108 SA 
BRANCH  25  26
HETATM   26  C   UNL     1      -7.018   9.744  70.223  1.00  0.00    -0.135 C  
HETATM   27  O   UNL     1      -6.713   9.834  71.407  1.00  0.00    -0.322 OA 
BRANCH  26  28
HETATM   28  C   UNL     1      -6.608  10.880  69.259  1.00  0.00    -0.079 A  
HETATM   29  C   UNL     1      -7.011  13.203  68.459  1.00  0.00    -0.103 A  
HETATM   30  C   UNL     1      -7.335  12.102  69.282  1.00  0.00     0.156 A  
HETATM   31  C   UNL     1      -5.516  10.856  68.387  1.00  0.00    -0.043 A  
HETATM   32  C   UNL     1      -5.924  13.123  67.597  1.00  0.00    -0.136 A  
HETATM   33  C   UNL     1      -5.173  11.948  67.570  1.00  0.00    -0.082 A  
ENDBRANCH  26  28
ENDBRANCH  25  26
ENDBRANCH   3  25
TORSDOF 9
ENDMDL
MODEL      361
REMARK 921   NORMALIZED FREE ENERGY PREDICTED BY IDOCK:   -3.64 KCAL/MOL
REMARK 922        TOTAL FREE ENERGY PREDICTED BY IDOCK:   -7.07 KCAL/MOL
REMARK 923 INTER-LIGAND FREE ENERGY PREDICTED BY IDOCK:   -5.66 KCAL/MOL
REMARK 924 INTRA-LIGAND FREE ENERGY PREDICTED BY IDOCK:   -1.41 KCAL/MOL
REMARK 927      BINDING AFFINITY PREDICTED BY RF-SCORE:    0.00 PKD
ROOT
HETATM    1  C   UNL     1     -10.552   8.050  66.933  1.00  0.00    -0.324 C  
HETATM    2  C   UNL     1      -9.860   6.765  67.419  1.00  0.00    -0.137 C  
HETATM    3  C   UNL     1      -9.798   6.518  68.762  1.00  0.00    -0.140 C  
ENDROOT
BRANCH   2   4
HETATM    4  N   UNL     1      -9.405   5.947  66.367  1.00  0.00    -0.155 N  
HETATM    5  C   UNL     1     -10.151   4.837  65.938  1.00  0.00    -0.242 C  
HETATM    6  O   UNL     1      -9.734   3.914  65.255  1.00  0.00    -0.172 OA 
BRANCH   4   7
HETATM    7  C   UNL     1      -7.962   5.886  66.051  1.00  0.00    -0.108 C  
BRANCH   7   8
HETATM    8  C   UNL     1      -7.243   7.218  66.164  1.00  0.00    -0.074 A  
HETATM    9  H2  UNL     1      -8.152   6.821  63.778  1.00  0.00     0.000 HD 
HETATM   10  C   UNL     1      -6.451   7.692  67.149  1.00  0.00    -0.055 A  
HETATM   11  N   UNL     1      -7.023   9.484  65.282  1.00  0.00    -0.088 NA 
HETATM   12  N   UNL     1      -6.105   9.011  67.382  1.00  0.00    -0.054 NA 
HETATM   13  H1  UNL     1      -8.007   8.466  63.146  1.00  0.00     0.000 HD 
HETATM   14  C   UNL     1      -6.363  11.339  66.795  1.00  0.00    -0.139 C  
HETATM   15  N   UNL     1      -7.891   7.799  63.909  1.00  0.00    -0.129 NA 
HETATM   16  C   UNL     1      -6.463   9.870  66.473  1.00  0.00    -0.071 A  
HETATM   17  C   UNL     1      -7.413   8.194  65.045  1.00  0.00    -0.087 A  
ENDBRANCH   7   8
ENDBRANCH   4   7
ENDBRANCH   2   4
BRANCH   3  18
HETATM   18  C   UNL     1     -10.721   7.345  69.762  1.00  0.00    -0.252 C  
BRANCH  18  19
HETATM   19  C   UNL     1     -12.010   6.618  70.310  1.00  0.00    -0.240 C  
BRANCH  19  20
HETATM   20  O   UNL     1     -12.727   7.307  71.403  1.00  0.00    -0.362 OA 
HETATM   21  O   UNL     1     -11.438   8.522  72.743  1.00  0.00    -0.296 OA 
HETATM   22  O   UNL     1     -13.761   9.100  72.289  1.00  0.00    -0.443 OA 
HETATM   23  P   UNL     1     -12.349   8.994  71.471  1.00  0.00    -0.358 P  
HETATM   24  O   UNL     1     -12.010  10.503  71.533  1.00  0.00    -0.300 OA 
ENDBRANCH  19  20
ENDBRANCH  18  19
ENDBRANCH   3  18
BRANCH   3  25
HETATM   25  S   UNL     1      -8.746   5.259  69.563  1.00  0.00    -0.105 SA 
BRANCH  25  26
HETATM   26  C   UNL     1      -8.501   5.554  71.334  1.00  0.00    -0.127 C  
HETATM   27  O   UNL     1      -7.797   6.476  71.728  1.00  0.00    -0.101 OA 
BRANCH  26  28
HETATM   28  C   UNL     1      -9.105   4.582  72.373  1.00  0.00    -0.144 A  
HETATM   29  C   UNL     1     -10.346   4.303  74.514  1.00  0.00    -0.291 A  
HETATM   30  C   UNL     1      -9.741   5.114  73.529  1.00  0.00    -0.159 A  
HETATM   31  C   UNL     1      -9.155   3.190  72.257  1.00  0.00    -0.142 A  
HETATM   32  C   UNL     1     -10.355   2.922  74.359  1.00  0.00    -0.218 A  
HETATM   33  C   UNL     1      -9.764   2.369  73.223  1.00  0.00    -0.146 A  
ENDBRANCH  26  28
ENDBRANCH  25  26
ENDBRANCH   3  25
TORSDOF 9
ENDMDL
MODEL      362
REMARK 921   NORMALIZED FREE ENERGY PREDICTED BY IDOCK:   -3.60 KCAL/MOL
REMARK 922        TOTAL FREE ENERGY PREDICTED BY IDOCK:   -7.00 KCAL/MOL
REMARK 923 INTER-LIGAND FREE ENERGY PREDICTED BY IDOCK:   -5.01 KCAL/MOL
REMARK 924 INTRA-LIGAND FREE ENERGY PREDICTED BY IDOCK:   -1.99 KCAL/MOL
REMARK 927      BINDING AFFINITY PREDICTED BY RF-SCORE:    0.00 PKD
ROOT
HETATM    1  C   UNL     1     -10.143   8.718  66.867  1.00  0.00    -0.348 C  
HETATM    2  C   UNL     1      -9.562   8.130  68.164  1.00  0.00    -0.149 C  
HETATM    3  C   UNL     1      -8.313   8.519  68.562  1.00  0.00    -0.123 C  
ENDROOT
BRANCH   2   4
HETATM    4  N   UNL     1     -10.455   7.270  68.832  1.00  0.00    -0.205 N  
HETATM    5  C   UNL     1     -11.272   7.740  69.873  1.00  0.00    -0.062 C  
HETATM    6  O   UNL     1     -11.853   7.048  70.696  1.00  0.00    -0.339 OA 
BRANCH   4   7
HETATM    7  C   UNL     1     -10.200   5.813  68.851  1.00  0.00    -0.204 C  
BRANCH   7   8
HETATM    8  C   UNL     1      -9.955   5.207  67.481  1.00  0.00    -0.211 A  
HETATM    9  H2  UNL     1      -7.764   5.443  68.828  1.00  0.00     0.000 HD 
HETATM   10  C   UNL     1     -10.776   5.125  66.412  1.00  0.00    -0.210 A  
HETATM   11  N   UNL     1      -8.509   3.784  66.123  1.00  0.00    -0.109 NA 
HETATM   12  N   UNL     1     -10.652   4.278  65.326  1.00  0.00    -0.212 NA 
HETATM   13  H1  UNL     1      -6.721   4.399  67.854  1.00  0.00     0.000 HD 
HETATM   14  C   UNL     1      -9.478   2.456  64.262  1.00  0.00    -0.135 C  
HETATM   15  N   UNL     1      -7.632   4.825  68.026  1.00  0.00    -0.081 NA 
HETATM   16  C   UNL     1      -9.553   3.586  65.256  1.00  0.00    -0.140 A  
HETATM   17  C   UNL     1      -8.621   4.583  67.227  1.00  0.00    -0.104 A  
ENDBRANCH   7   8
ENDBRANCH   4   7
ENDBRANCH   2   4
BRANCH   3  18
HETATM   18  C   UNL     1      -7.636   9.799  67.901  1.00  0.00    -0.086 C  
BRANCH  18  19
HETATM   19  C   UNL     1      -6.477   9.538  66.863  1.00  0.00    -0.067 C  
BRANCH  19  20
HETATM   20  O   UNL     1      -6.265   8.130  66.470  1.00  0.00    -0.048 OA 
HETATM   21  O   UNL     1      -7.741   7.335  65.013  1.00  0.00    -0.099 OA 
HETATM   22  O   UNL     1      -5.437   6.547  65.099  1.00  0.00    -0.020 OA 
HETATM   23  P   UNL     1      -6.241   7.928  64.752  1.00  0.00    -0.048 P  
HETATM   24  O   UNL     1      -6.220   7.748  63.214  1.00  0.00    -0.061 OA 
ENDBRANCH  19  20
ENDBRANCH  18  19
ENDBRANCH   3  18
BRANCH   3  25
HETATM   25  S   UNL     1      -7.310   7.707  69.853  1.00  0.00    -0.082 SA 
BRANCH  25  26
HETATM   26  C   UNL     1      -7.860   8.095  71.535  1.00  0.00    -0.108 C  
HETATM   27  O   UNL     1      -7.506   9.128  72.091  1.00  0.00    -0.330 OA 
BRANCH  26  28
HETATM   28  C   UNL     1      -8.711   7.076  72.328  1.00  0.00    -0.134 A  
HETATM   29  C   UNL     1     -10.389   6.691  74.126  1.00  0.00    -0.347 A  
HETATM   30  C   UNL     1      -9.555   7.545  73.371  1.00  0.00    -0.323 A  
HETATM   31  C   UNL     1      -8.792   5.705  72.070  1.00  0.00    -0.138 A  
HETATM   32  C   UNL     1     -10.422   5.331  73.841  1.00  0.00    -0.317 A  
HETATM   33  C   UNL     1      -9.626   4.843  72.805  1.00  0.00    -0.163 A  
ENDBRANCH  26  28
ENDBRANCH  25  26
ENDBRANCH   3  25
TORSDOF 9
ENDMDL
MODEL      363
REMARK 921   NORMALIZED FREE ENERGY PREDICTED BY IDOCK:   -3.57 KCAL/MOL
REMARK 922        TOTAL FREE ENERGY PREDICTED BY IDOCK:   -6.95 KCAL/MOL
REMARK 923 INTER-LIGAND FREE ENERGY PREDICTED BY IDOCK:   -7.91 KCAL/MOL
REMARK 924 INTRA-LIGAND FREE ENERGY PREDICTED BY IDOCK:    0.96 KCAL/MOL
REMARK 927      BINDING AFFINITY PREDICTED BY RF-SCORE:    0.00 PKD
ROOT
HETATM    1  C   UNL     1     -12.324  12.254  69.793  1.00  0.00    -0.081 C  
HETATM    2  C   UNL     1     -11.679  10.885  69.517  1.00  0.00    -0.328 C  
HETATM    3  C   UNL     1     -11.032  10.689  68.329  1.00  0.00    -0.263 C  
ENDROOT
BRANCH   2   4
HETATM    4  N   UNL     1     -11.796   9.988  70.596  1.00  0.00    -0.304 N  
HETATM    5  C   UNL     1     -12.937   9.984  71.415  1.00  0.00    -0.418 C  
HETATM    6  O   UNL     1     -13.025   9.471  72.520  1.00  0.00    -0.356 OA 
BRANCH   4   7
HETATM    7  C   UNL     1     -10.581   9.422  71.221  1.00  0.00    -0.330 C  
BRANCH   7   8
HETATM    8  C   UNL     1     -10.810   8.112  71.952  1.00  0.00    -0.333 A  
HETATM    9  H2  UNL     1     -11.554   7.971  69.482  1.00  0.00     0.000 HD 
HETATM   10  C   UNL     1     -10.767   7.840  73.274  1.00  0.00    -0.272 A  
HETATM   11  N   UNL     1     -11.029   5.689  71.750  1.00  0.00    -0.249 NA 
HETATM   12  N   UNL     1     -10.635   6.599  73.869  1.00  0.00    -0.308 NA 
HETATM   13  H1  UNL     1     -11.697   6.216  69.332  1.00  0.00     0.000 HD 
HETATM   14  C   UNL     1     -10.294   4.222  73.614  1.00  0.00    -0.242 C  
HETATM   15  N   UNL     1     -11.484   7.040  69.894  1.00  0.00    -0.217 NA 
HETATM   16  C   UNL     1     -10.702   5.569  73.076  1.00  0.00    -0.256 A  
HETATM   17  C   UNL     1     -11.123   6.904  71.129  1.00  0.00    -0.260 A  
ENDBRANCH   7   8
ENDBRANCH   4   7
ENDBRANCH   2   4
BRANCH   3  18
HETATM   18  C   UNL     1     -10.652  11.939  67.419  1.00  0.00    -0.257 C  
BRANCH  18  19
HETATM   19  C   UNL     1     -11.841  12.857  66.935  1.00  0.00    -0.379 C  
BRANCH  19  20
HETATM   20  O   UNL     1     -12.305  12.640  65.549  1.00  0.00    -0.563 OA 
HETATM   21  O   UNL     1     -11.341  13.940  64.028  1.00  0.00    -0.270 OA 
HETATM   22  O   UNL     1     -12.129  11.692  63.515  1.00  0.00    -0.441 OA 
HETATM   23  P   UNL     1     -10.990  12.401  64.451  1.00  0.00    -0.399 P  
HETATM   24  O   UNL     1      -9.814  12.188  63.467  1.00  0.00    -0.362 OA 
ENDBRANCH  19  20
ENDBRANCH  18  19
ENDBRANCH   3  18
BRANCH   3  25
HETATM   25  S   UNL     1     -10.506   9.073  67.660  1.00  0.00    -0.241 SA 
BRANCH  25  26
HETATM   26  C   UNL     1      -8.709   8.843  67.680  1.00  0.00    -0.124 C  
HETATM   27  O   UNL     1      -7.950   9.805  67.654  1.00  0.00    -0.104 OA 
BRANCH  26  28
HETATM   28  C   UNL     1      -8.109   7.419  67.636  1.00  0.00    -0.114 A  
HETATM   29  C   UNL     1      -7.379   5.408  68.910  1.00  0.00    -0.070 A  
HETATM   30  C   UNL     1      -7.894   6.722  68.857  1.00  0.00    -0.111 A  
HETATM   31  C   UNL     1      -7.810   6.694  66.479  1.00  0.00    -0.104 A  
HETATM   32  C   UNL     1      -7.084   4.735  67.731  1.00  0.00    -0.062 A  
HETATM   33  C   UNL     1      -7.308   5.381  66.514  1.00  0.00    -0.086 A  
ENDBRANCH  26  28
ENDBRANCH  25  26
ENDBRANCH   3  25
TORSDOF 9
ENDMDL
MODEL      364
REMARK 921   NORMALIZED FREE ENERGY PREDICTED BY IDOCK:   -3.56 KCAL/MOL
REMARK 922        TOTAL FREE ENERGY PREDICTED BY IDOCK:   -6.94 KCAL/MOL
REMARK 923 INTER-LIGAND FREE ENERGY PREDICTED BY IDOCK:   -5.88 KCAL/MOL
REMARK 924 INTRA-LIGAND FREE ENERGY PREDICTED BY IDOCK:   -1.06 KCAL/MOL
REMARK 927      BINDING AFFINITY PREDICTED BY RF-SCORE:    0.00 PKD
ROOT
HETATM    1  C   UNL     1     -11.166   6.604  68.934  1.00  0.00    -0.273 C  
HETATM    2  C   UNL     1      -9.833   7.350  69.115  1.00  0.00    -0.168 C  
HETATM    3  C   UNL     1      -9.706   8.608  68.595  1.00  0.00    -0.163 C  
ENDROOT
BRANCH   2   4
HETATM    4  N   UNL     1      -8.892   6.628  69.874  1.00  0.00    -0.143 N  
HETATM    5  C   UNL     1      -8.605   6.984  71.202  1.00  0.00    -0.133 C  
HETATM    6  O   UNL     1      -7.628   6.629  71.845  1.00  0.00    -0.094 OA 
BRANCH   4   7
HETATM    7  C   UNL     1      -7.826   5.861  69.193  1.00  0.00    -0.095 C  
BRANCH   7   8
HETATM    8  C   UNL     1      -8.248   5.255  67.866  1.00  0.00    -0.099 A  
HETATM    9  H2  UNL     1      -8.831   3.709  69.852  1.00  0.00     0.000 HD 
HETATM   10  C   UNL     1      -7.933   5.626  66.607  1.00  0.00    -0.101 A  
HETATM   11  N   UNL     1      -9.770   3.721  66.731  1.00  0.00    -0.182 NA 
HETATM   12  N   UNL     1      -8.596   5.282  65.443  1.00  0.00    -0.144 NA 
HETATM   13  H1  UNL     1      -9.945   2.608  69.033  1.00  0.00     0.000 HD 
HETATM   14  C   UNL     1     -10.471   4.181  64.393  1.00  0.00    -0.158 C  
HETATM   15  N   UNL     1      -9.323   3.416  69.008  1.00  0.00    -0.164 NA 
HETATM   16  C   UNL     1      -9.538   4.392  65.557  1.00  0.00    -0.186 A  
HETATM   17  C   UNL     1      -9.159   4.071  67.903  1.00  0.00    -0.141 A  
ENDBRANCH   7   8
ENDBRANCH   4   7
ENDBRANCH   2   4
BRANCH   3  18
HETATM   18  C   UNL     1     -11.004   9.408  68.136  1.00  0.00    -0.102 C  
BRANCH  18  19
HETATM   19  C   UNL     1     -11.100  10.922  68.571  1.00  0.00    -0.256 C  
BRANCH  19  20
HETATM   20  O   UNL     1     -11.898  11.800  67.691  1.00  0.00    -0.558 OA 
HETATM   21  O   UNL     1     -12.498  13.736  68.599  1.00  0.00    -0.132 OA 
HETATM   22  O   UNL     1     -12.102  13.482  66.209  1.00  0.00    -0.398 OA 
HETATM   23  P   UNL     1     -11.249  13.401  67.602  1.00  0.00    -0.307 P  
HETATM   24  O   UNL     1     -10.668  14.833  67.521  1.00  0.00    -0.260 OA 
ENDBRANCH  19  20
ENDBRANCH  18  19
ENDBRANCH   3  18
BRANCH   3  25
HETATM   25  S   UNL     1      -8.137   9.520  68.395  1.00  0.00    -0.102 SA 
BRANCH  25  26
HETATM   26  C   UNL     1      -8.256  10.896  67.222  1.00  0.00    -0.123 C  
HETATM   27  O   UNL     1      -8.057  12.051  67.582  1.00  0.00    -0.136 OA 
BRANCH  26  28
HETATM   28  C   UNL     1      -8.705  10.637  65.765  1.00  0.00    -0.192 A  
HETATM   29  C   UNL     1      -8.689   9.103  63.804  1.00  0.00    -0.150 A  
HETATM   30  C   UNL     1      -8.301   9.436  65.121  1.00  0.00    -0.151 A  
HETATM   31  C   UNL     1      -9.553  11.457  65.015  1.00  0.00    -0.250 A  
HETATM   32  C   UNL     1      -9.522   9.959  63.094  1.00  0.00    -0.118 A  
HETATM   33  C   UNL     1      -9.958  11.134  63.707  1.00  0.00    -0.401 A  
ENDBRANCH  26  28
ENDBRANCH  25  26
ENDBRANCH   3  25
TORSDOF 9
ENDMDL
MODEL      365
REMARK 921   NORMALIZED FREE ENERGY PREDICTED BY IDOCK:   -3.55 KCAL/MOL
REMARK 922        TOTAL FREE ENERGY PREDICTED BY IDOCK:   -6.93 KCAL/MOL
REMARK 923 INTER-LIGAND FREE ENERGY PREDICTED BY IDOCK:   -5.27 KCAL/MOL
REMARK 924 INTRA-LIGAND FREE ENERGY PREDICTED BY IDOCK:   -1.66 KCAL/MOL
REMARK 927      BINDING AFFINITY PREDICTED BY RF-SCORE:    0.00 PKD
ROOT
HETATM    1  C   UNL     1     -10.956   6.179  68.989  1.00  0.00    -0.436 C  
HETATM    2  C   UNL     1      -9.624   6.793  69.451  1.00  0.00    -0.146 C  
HETATM    3  C   UNL     1      -9.590   8.117  69.789  1.00  0.00    -0.171 C  
ENDROOT
BRANCH   2   4
HETATM    4  N   UNL     1      -8.575   5.856  69.520  1.00  0.00    -0.116 N  
HETATM    5  C   UNL     1      -8.209   5.267  70.741  1.00  0.00    -0.110 C  
HETATM    6  O   UNL     1      -7.160   4.682  70.969  1.00  0.00    -0.036 OA 
BRANCH   4   7
HETATM    7  C   UNL     1      -7.516   5.856  68.488  1.00  0.00    -0.086 C  
BRANCH   7   8
HETATM    8  C   UNL     1      -7.950   5.282  67.151  1.00  0.00    -0.101 A  
HETATM    9  H2  UNL     1      -6.618   3.562  68.545  1.00  0.00     0.000 HD 
HETATM   10  C   UNL     1      -8.456   5.904  66.066  1.00  0.00    -0.137 A  
HETATM   11  N   UNL     1      -8.490   3.260  65.893  1.00  0.00    -0.107 NA 
HETATM   12  N   UNL     1      -9.153   5.326  65.020  1.00  0.00    -0.081 NA 
HETATM   13  H1  UNL     1      -7.022   2.096  67.643  1.00  0.00     0.000 HD 
HETATM   14  C   UNL     1     -10.167   3.354  64.065  1.00  0.00    -0.212 C  
HETATM   15  N   UNL     1      -7.105   3.105  67.774  1.00  0.00    -0.050 NA 
HETATM   16  C   UNL     1      -9.203   4.026  65.008  1.00  0.00    -0.151 A  
HETATM   17  C   UNL     1      -7.828   3.804  66.960  1.00  0.00    -0.084 A  
ENDBRANCH   7   8
ENDBRANCH   4   7
ENDBRANCH   2   4
BRANCH   3  18
HETATM   18  C   UNL     1     -10.952   8.904  70.040  1.00  0.00    -0.217 C  
BRANCH  18  19
HETATM   19  C   UNL     1     -10.899  10.477  69.926  1.00  0.00    -0.276 C  
BRANCH  19  20
HETATM   20  O   UNL     1     -12.059  11.206  70.479  1.00  0.00    -0.328 OA 
HETATM   21  O   UNL     1     -13.965  10.065  70.478  1.00  0.00     0.232 OA 
HETATM   22  O   UNL     1     -13.453  11.750  72.162  1.00  0.00    -0.446 OA 
HETATM   23  P   UNL     1     -12.891  10.289  71.688  1.00  0.00    -0.457 P  
HETATM   24  O   UNL     1     -13.635   9.469  72.770  1.00  0.00    -0.297 OA 
ENDBRANCH  19  20
ENDBRANCH  18  19
ENDBRANCH   3  18
BRANCH   3  25
HETATM   25  S   UNL     1      -8.080   9.115  70.027  1.00  0.00    -0.147 SA 
BRANCH  25  26
HETATM   26  C   UNL     1      -7.823  10.345  68.722  1.00  0.00    -0.108 C  
HETATM   27  O   UNL     1      -7.561  11.511  68.997  1.00  0.00    -0.119 OA 
BRANCH  26  28
HETATM   28  C   UNL     1      -8.025   9.957  67.239  1.00  0.00    -0.109 A  
HETATM   29  C   UNL     1      -9.617   9.622  65.355  1.00  0.00    -0.361 A  
HETATM   30  C   UNL     1      -9.342   9.935  66.705  1.00  0.00    -0.196 A  
HETATM   31  C   UNL     1      -7.007   9.684  66.322  1.00  0.00    -0.092 A  
HETATM   32  C   UNL     1      -8.570   9.343  64.485  1.00  0.00    -0.219 A  
HETATM   33  C   UNL     1      -7.263   9.382  64.972  1.00  0.00    -0.105 A  
ENDBRANCH  26  28
ENDBRANCH  25  26
ENDBRANCH   3  25
TORSDOF 9
ENDMDL
MODEL      366
REMARK 921   NORMALIZED FREE ENERGY PREDICTED BY IDOCK:   -3.54 KCAL/MOL
REMARK 922        TOTAL FREE ENERGY PREDICTED BY IDOCK:   -6.91 KCAL/MOL
REMARK 923 INTER-LIGAND FREE ENERGY PREDICTED BY IDOCK:   -5.16 KCAL/MOL
REMARK 924 INTRA-LIGAND FREE ENERGY PREDICTED BY IDOCK:   -1.75 KCAL/MOL
REMARK 927      BINDING AFFINITY PREDICTED BY RF-SCORE:    0.00 PKD
ROOT
HETATM    1  C   UNL     1      -7.885   8.063  70.994  1.00  0.00    -0.090 C  
HETATM    2  C   UNL     1      -7.960   6.608  70.501  1.00  0.00    -0.111 C  
HETATM    3  C   UNL     1      -7.580   6.326  69.218  1.00  0.00    -0.099 C  
ENDROOT
BRANCH   2   4
HETATM    4  N   UNL     1      -8.378   5.705  71.497  1.00  0.00    -0.126 N  
HETATM    5  C   UNL     1      -7.453   4.895  72.176  1.00  0.00    -0.088 C  
HETATM    6  O   UNL     1      -7.718   3.898  72.831  1.00  0.00    -0.071 OA 
BRANCH   4   7
HETATM    7  C   UNL     1      -9.766   5.194  71.494  1.00  0.00    -0.166 C  
BRANCH   7   8
HETATM    8  C   UNL     1     -10.825   6.271  71.646  1.00  0.00    -0.298 A  
HETATM    9  H2  UNL     1      -9.793   5.616  73.922  1.00  0.00     0.000 HD 
HETATM   10  C   UNL     1     -11.737   6.719  70.758  1.00  0.00    -0.386 A  
HETATM   11  N   UNL     1     -11.640   8.137  72.994  1.00  0.00    -0.231 NA 
HETATM   12  N   UNL     1     -12.436   7.912  70.806  1.00  0.00    -0.021 NA 
HETATM   13  H1  UNL     1     -10.370   6.976  74.894  1.00  0.00     0.000 HD 
HETATM   14  C   UNL     1     -12.815  10.031  71.901  1.00  0.00    -0.524 C  
HETATM   15  N   UNL     1     -10.314   6.490  73.998  1.00  0.00    -0.341 NA 
HETATM   16  C   UNL     1     -12.309   8.612  71.896  1.00  0.00    -0.354 A  
HETATM   17  C   UNL     1     -10.906   6.983  72.959  1.00  0.00    -0.309 A  
ENDBRANCH   7   8
ENDBRANCH   4   7
ENDBRANCH   2   4
BRANCH   3  18
HETATM   18  C   UNL     1      -6.753   7.402  68.384  1.00  0.00    -0.054 C  
BRANCH  18  19
HETATM   19  C   UNL     1      -7.322   7.797  66.966  1.00  0.00    -0.091 C  
BRANCH  19  20
HETATM   20  O   UNL     1      -6.453   7.493  65.811  1.00  0.00    -0.044 OA 
HETATM   21  O   UNL     1      -6.666   5.438  64.997  1.00  0.00    -0.045 OA 
HETATM   22  O   UNL     1      -6.058   7.339  63.600  1.00  0.00    -0.043 OA 
HETATM   23  P   UNL     1      -7.340   6.834  64.481  1.00  0.00    -0.105 P  
HETATM   24  O   UNL     1      -8.135   6.244  63.290  1.00  0.00    -0.112 OA 
ENDBRANCH  19  20
ENDBRANCH  18  19
ENDBRANCH   3  18
BRANCH   3  25
HETATM   25  S   UNL     1      -7.907   4.764  68.332  1.00  0.00    -0.081 SA 
BRANCH  25  26
HETATM   26  C   UNL     1      -9.461   4.782  67.401  1.00  0.00    -0.146 C  
HETATM   27  O   UNL     1     -10.410   5.463  67.771  1.00  0.00    -0.189 OA 
BRANCH  26  28
HETATM   28  C   UNL     1      -9.640   3.860  66.172  1.00  0.00    -0.193 A  
HETATM   29  C   UNL     1     -10.674   3.524  63.932  1.00  0.00    -0.248 A  
HETATM   30  C   UNL     1     -10.477   4.287  65.105  1.00  0.00    -0.195 A  
HETATM   31  C   UNL     1      -8.988   2.642  65.964  1.00  0.00    -0.133 A  
HETATM   32  C   UNL     1     -10.014   2.311  63.780  1.00  0.00    -0.140 A  
HETATM   33  C   UNL     1      -9.164   1.876  64.798  1.00  0.00    -0.124 A  
ENDBRANCH  26  28
ENDBRANCH  25  26
ENDBRANCH   3  25
TORSDOF 9
ENDMDL
MODEL      367
REMARK 921   NORMALIZED FREE ENERGY PREDICTED BY IDOCK:   -3.53 KCAL/MOL
REMARK 922        TOTAL FREE ENERGY PREDICTED BY IDOCK:   -6.90 KCAL/MOL
REMARK 923 INTER-LIGAND FREE ENERGY PREDICTED BY IDOCK:   -6.49 KCAL/MOL
REMARK 924 INTRA-LIGAND FREE ENERGY PREDICTED BY IDOCK:   -0.41 KCAL/MOL
REMARK 927      BINDING AFFINITY PREDICTED BY RF-SCORE:    0.00 PKD
ROOT
HETATM    1  C   UNL     1     -11.272  11.663  66.813  1.00  0.00    -0.371 C  
HETATM    2  C   UNL     1     -10.758  11.441  68.245  1.00  0.00    -0.204 C  
HETATM    3  C   UNL     1      -9.646  10.666  68.433  1.00  0.00    -0.168 C  
ENDROOT
BRANCH   2   4
HETATM    4  N   UNL     1     -11.500  12.139  69.217  1.00  0.00    -0.287 N  
HETATM    5  C   UNL     1     -11.957  11.496  70.379  1.00  0.00    -0.368 C  
HETATM    6  O   UNL     1     -12.830  11.907  71.129  1.00  0.00    -0.343 OA 
BRANCH   4   7
HETATM    7  C   UNL     1     -12.258  13.350  68.837  1.00  0.00    -0.129 C  
BRANCH   7   8
HETATM    8  C   UNL     1     -11.405  14.596  68.684  1.00  0.00    -0.305 A  
HETATM    9  H2  UNL     1     -12.254  13.733  66.402  1.00  0.00     0.000 HD 
HETATM   10  C   UNL     1     -10.607  15.213  69.581  1.00  0.00    -0.263 A  
HETATM   11  N   UNL     1     -10.906  16.556  67.317  1.00  0.00    -0.234 NA 
HETATM   12  N   UNL     1     -10.131  16.510  69.523  1.00  0.00    -0.209 NA 
HETATM   13  H1  UNL     1     -11.907  15.158  65.416  1.00  0.00     0.000 HD 
HETATM   14  C   UNL     1     -10.111  18.646  68.397  1.00  0.00    -0.426 C  
HETATM   15  N   UNL     1     -11.895  14.684  66.319  1.00  0.00    -0.336 NA 
HETATM   16  C   UNL     1     -10.357  17.160  68.419  1.00  0.00    -0.362 A  
HETATM   17  C   UNL     1     -11.423  15.291  67.360  1.00  0.00    -0.241 A  
ENDBRANCH   7   8
ENDBRANCH   4   7
ENDBRANCH   2   4
BRANCH   3  18
HETATM   18  C   UNL     1      -8.714  10.307  67.193  1.00  0.00    -0.131 C  
BRANCH  18  19
HETATM   19  C   UNL     1      -7.503   9.334  67.469  1.00  0.00    -0.088 C  
BRANCH  19  20
HETATM   20  O   UNL     1      -7.045   8.527  66.319  1.00  0.00    -0.075 OA 
HETATM   21  O   UNL     1      -8.343   8.643  64.521  1.00  0.00    -0.162 OA 
HETATM   22  O   UNL     1      -5.939   8.278  64.374  1.00  0.00    -0.062 OA 
HETATM   23  P   UNL     1      -6.966   9.454  64.861  1.00  0.00    -0.107 P  
HETATM   24  O   UNL     1      -6.896  10.283  63.555  1.00  0.00    -0.136 OA 
ENDBRANCH  19  20
ENDBRANCH  18  19
ENDBRANCH   3  18
BRANCH   3  25
HETATM   25  S   UNL     1      -9.075   9.999  70.034  1.00  0.00     0.019 SA 
BRANCH  25  26
HETATM   26  C   UNL     1      -9.683   8.325  70.368  1.00  0.00    -0.168 C  
HETATM   27  O   UNL     1     -10.484   7.784  69.615  1.00  0.00    -0.221 OA 
BRANCH  26  28
HETATM   28  C   UNL     1      -9.267   7.594  71.665  1.00  0.00    -0.159 A  
HETATM   29  C   UNL     1      -8.184   7.738  73.902  1.00  0.00    -0.263 A  
HETATM   30  C   UNL     1      -8.575   8.317  72.674  1.00  0.00    -0.264 A  
HETATM   31  C   UNL     1      -9.572   6.269  71.988  1.00  0.00    -0.161 A  
HETATM   32  C   UNL     1      -8.498   6.411  74.169  1.00  0.00    -0.129 A  
HETATM   33  C   UNL     1      -9.200   5.680  73.210  1.00  0.00    -0.132 A  
ENDBRANCH  26  28
ENDBRANCH  25  26
ENDBRANCH   3  25
TORSDOF 9
ENDMDL
MODEL      368
REMARK 921   NORMALIZED FREE ENERGY PREDICTED BY IDOCK:   -3.53 KCAL/MOL
REMARK 922        TOTAL FREE ENERGY PREDICTED BY IDOCK:   -6.89 KCAL/MOL
REMARK 923 INTER-LIGAND FREE ENERGY PREDICTED BY IDOCK:   -4.92 KCAL/MOL
REMARK 924 INTRA-LIGAND FREE ENERGY PREDICTED BY IDOCK:   -1.97 KCAL/MOL
REMARK 927      BINDING AFFINITY PREDICTED BY RF-SCORE:    0.00 PKD
ROOT
HETATM    1  C   UNL     1     -10.154   9.020  66.401  1.00  0.00    -0.351 C  
HETATM    2  C   UNL     1      -9.626   8.371  67.691  1.00  0.00    -0.153 C  
HETATM    3  C   UNL     1      -8.352   8.654  68.098  1.00  0.00    -0.127 C  
ENDROOT
BRANCH   2   4
HETATM    4  N   UNL     1     -10.586   7.574  68.345  1.00  0.00    -0.172 N  
HETATM    5  C   UNL     1     -10.872   7.756  69.707  1.00  0.00    -0.209 C  
HETATM    6  O   UNL     1     -11.452   6.959  70.431  1.00  0.00    -0.308 OA 
BRANCH   4   7
HETATM    7  C   UNL     1     -10.918   6.234  67.813  1.00  0.00    -0.332 C  
BRANCH   7   8
HETATM    8  C   UNL     1      -9.833   5.194  68.022  1.00  0.00    -0.199 A  
HETATM    9  H2  UNL     1      -9.979   5.941  65.553  1.00  0.00     0.000 HD 
HETATM   10  C   UNL     1      -9.587   4.403  69.088  1.00  0.00    -0.181 A  
HETATM   11  N   UNL     1      -7.718   4.281  67.214  1.00  0.00    -0.081 NA 
HETATM   12  N   UNL     1      -8.412   3.736  69.381  1.00  0.00    -0.063 NA 
HETATM   13  H1  UNL     1      -8.440   5.292  64.973  1.00  0.00     0.000 HD 
HETATM   14  C   UNL     1      -6.105   3.291  68.822  1.00  0.00    -0.028 C  
HETATM   15  N   UNL     1      -9.109   5.437  65.729  1.00  0.00    -0.158 NA 
HETATM   16  C   UNL     1      -7.492   3.756  68.461  1.00  0.00    -0.054 A  
HETATM   17  C   UNL     1      -8.853   4.982  66.913  1.00  0.00    -0.106 A  
ENDBRANCH   7   8
ENDBRANCH   4   7
ENDBRANCH   2   4
BRANCH   3  18
HETATM   18  C   UNL     1      -7.573   9.887  67.457  1.00  0.00    -0.091 C  
BRANCH  18  19
HETATM   19  C   UNL     1      -6.048  10.040  67.832  1.00  0.00    -0.053 C  
BRANCH  19  20
HETATM   20  O   UNL     1      -5.672  11.294  68.517  1.00  0.00    -0.043 OA 
HETATM   21  O   UNL     1      -5.890  13.131  67.287  1.00  0.00    -0.343 OA 
HETATM   22  O   UNL     1      -6.168  13.140  69.708  1.00  0.00    -0.125 OA 
HETATM   23  P   UNL     1      -6.908  12.499  68.398  1.00  0.00    -0.104 P  
HETATM   24  O   UNL     1      -8.014  13.577  68.291  1.00  0.00    -0.133 OA 
ENDBRANCH  19  20
ENDBRANCH  18  19
ENDBRANCH   3  18
BRANCH   3  25
HETATM   25  S   UNL     1      -7.420   7.748  69.380  1.00  0.00    -0.090 SA 
BRANCH  25  26
HETATM   26  C   UNL     1      -7.574   8.482  71.029  1.00  0.00    -0.090 C  
HETATM   27  O   UNL     1      -7.204   9.631  71.244  1.00  0.00    -0.329 OA 
BRANCH  26  28
HETATM   28  C   UNL     1      -8.090   7.632  72.212  1.00  0.00    -0.127 A  
HETATM   29  C   UNL     1      -8.704   5.375  73.065  1.00  0.00    -0.121 A  
HETATM   30  C   UNL     1      -8.266   6.232  72.032  1.00  0.00    -0.110 A  
HETATM   31  C   UNL     1      -8.344   8.100  73.504  1.00  0.00    -0.299 A  
HETATM   32  C   UNL     1      -8.958   5.892  74.329  1.00  0.00    -0.124 A  
HETATM   33  C   UNL     1      -8.769   7.257  74.547  1.00  0.00    -0.215 A  
ENDBRANCH  26  28
ENDBRANCH  25  26
ENDBRANCH   3  25
TORSDOF 9
ENDMDL
MODEL      369
REMARK 921   NORMALIZED FREE ENERGY PREDICTED BY IDOCK:   -3.52 KCAL/MOL
REMARK 922        TOTAL FREE ENERGY PREDICTED BY IDOCK:   -6.88 KCAL/MOL
REMARK 923 INTER-LIGAND FREE ENERGY PREDICTED BY IDOCK:   -5.72 KCAL/MOL
REMARK 924 INTRA-LIGAND FREE ENERGY PREDICTED BY IDOCK:   -1.17 KCAL/MOL
REMARK 927      BINDING AFFINITY PREDICTED BY RF-SCORE:    0.00 PKD
ROOT
HETATM    1  C   UNL     1      -7.748   8.050  71.836  1.00  0.00    -0.114 C  
HETATM    2  C   UNL     1      -7.908   7.453  70.427  1.00  0.00    -0.098 C  
HETATM    3  C   UNL     1      -8.194   8.290  69.385  1.00  0.00    -0.117 C  
ENDROOT
BRANCH   2   4
HETATM    4  N   UNL     1      -7.676   6.065  70.383  1.00  0.00    -0.095 N  
HETATM    5  C   UNL     1      -6.414   5.551  70.044  1.00  0.00    -0.034 C  
HETATM    6  O   UNL     1      -6.176   4.403  69.699  1.00  0.00    -0.025 OA 
BRANCH   4   7
HETATM    7  C   UNL     1      -8.805   5.135  70.164  1.00  0.00    -0.115 C  
BRANCH   7   8
HETATM    8  C   UNL     1     -10.157   5.689  70.576  1.00  0.00    -0.280 A  
HETATM    9  H2  UNL     1      -8.954   4.534  72.550  1.00  0.00     0.000 HD 
HETATM   10  C   UNL     1     -11.170   6.153  69.815  1.00  0.00    -0.423 A  
HETATM   11  N   UNL     1     -11.528   6.529  72.413  1.00  0.00    -0.277 NA 
HETATM   12  N   UNL     1     -12.220   6.957  70.220  1.00  0.00    -0.159 NA 
HETATM   13  H1  UNL     1      -9.938   5.156  73.881  1.00  0.00     0.000 HD 
HETATM   14  C   UNL     1     -13.264   8.249  71.972  1.00  0.00    -0.342 C  
HETATM   15  N   UNL     1      -9.732   5.104  72.883  1.00  0.00    -0.147 NA 
HETATM   16  C   UNL     1     -12.322   7.173  71.498  1.00  0.00    -0.370 A  
HETATM   17  C   UNL     1     -10.459   5.763  72.039  1.00  0.00    -0.218 A  
ENDBRANCH   7   8
ENDBRANCH   4   7
ENDBRANCH   2   4
BRANCH   3  18
HETATM   18  C   UNL     1      -8.012   9.862  69.560  1.00  0.00    -0.149 C  
BRANCH  18  19
HETATM   19  C   UNL     1      -8.636  10.783  68.441  1.00  0.00    -0.141 C  
BRANCH  19  20
HETATM   20  O   UNL     1     -10.078  10.593  68.176  1.00  0.00    -0.152 OA 
HETATM   21  O   UNL     1     -11.377  10.677  69.976  1.00  0.00    -0.278 OA 
HETATM   22  O   UNL     1     -12.149  11.377  67.774  1.00  0.00    -0.637 OA 
HETATM   23  P   UNL     1     -11.041  11.844  68.883  1.00  0.00    -0.254 P  
HETATM   24  O   UNL     1     -11.904  12.963  69.515  1.00  0.00    -0.308 OA 
ENDBRANCH  19  20
ENDBRANCH  18  19
ENDBRANCH   3  18
BRANCH   3  25
HETATM   25  S   UNL     1      -8.755   7.769  67.727  1.00  0.00    -0.123 SA 
BRANCH  25  26
HETATM   26  C   UNL     1      -7.552   6.729  66.860  1.00  0.00    -0.091 C  
HETATM   27  O   UNL     1      -6.360   7.013  66.856  1.00  0.00    -0.048 OA 
BRANCH  26  28
HETATM   28  C   UNL     1      -8.031   5.514  66.031  1.00  0.00    -0.106 A  
HETATM   29  C   UNL     1      -9.253   3.345  65.999  1.00  0.00    -0.164 A  
HETATM   30  C   UNL     1      -8.752   4.475  66.681  1.00  0.00    -0.111 A  
HETATM   31  C   UNL     1      -7.885   5.360  64.650  1.00  0.00    -0.105 A  
HETATM   32  C   UNL     1      -9.068   3.232  64.626  1.00  0.00    -0.135 A  
HETATM   33  C   UNL     1      -8.389   4.247  63.953  1.00  0.00    -0.100 A  
ENDBRANCH  26  28
ENDBRANCH  25  26
ENDBRANCH   3  25
TORSDOF 9
ENDMDL
MODEL      370
REMARK 921   NORMALIZED FREE ENERGY PREDICTED BY IDOCK:   -3.51 KCAL/MOL
REMARK 922        TOTAL FREE ENERGY PREDICTED BY IDOCK:   -6.86 KCAL/MOL
REMARK 923 INTER-LIGAND FREE ENERGY PREDICTED BY IDOCK:   -5.15 KCAL/MOL
REMARK 924 INTRA-LIGAND FREE ENERGY PREDICTED BY IDOCK:   -1.72 KCAL/MOL
REMARK 927      BINDING AFFINITY PREDICTED BY RF-SCORE:    0.00 PKD
ROOT
HETATM    1  C   UNL     1      -9.450   3.332  69.269  1.00  0.00    -0.199 C  
HETATM    2  C   UNL     1      -9.542   4.867  69.228  1.00  0.00    -0.171 C  
HETATM    3  C   UNL     1      -8.890   5.540  68.232  1.00  0.00    -0.104 C  
ENDROOT
BRANCH   2   4
HETATM    4  N   UNL     1     -10.367   5.401  70.236  1.00  0.00    -0.271 N  
HETATM    5  C   UNL     1     -11.458   6.226  69.918  1.00  0.00    -0.389 C  
HETATM    6  O   UNL     1     -12.051   6.961  70.694  1.00  0.00    -0.371 OA 
BRANCH   4   7
HETATM    7  C   UNL     1      -9.841   5.567  71.609  1.00  0.00    -0.173 C  
BRANCH   7   8
HETATM    8  C   UNL     1      -8.801   6.663  71.748  1.00  0.00    -0.130 A  
HETATM    9  H2  UNL     1      -7.753   4.314  71.990  1.00  0.00     0.000 HD 
HETATM   10  C   UNL     1      -8.963   7.994  71.906  1.00  0.00    -0.149 A  
HETATM   11  N   UNL     1      -6.445   7.263  71.522  1.00  0.00    -0.040 NA 
HETATM   12  N   UNL     1      -8.022   8.983  71.683  1.00  0.00    -0.348 NA 
HETATM   13  H1  UNL     1      -6.049   4.747  71.810  1.00  0.00     0.000 HD 
HETATM   14  C   UNL     1      -5.815   9.585  70.912  1.00  0.00    -0.065 C  
HETATM   15  N   UNL     1      -7.031   5.020  71.843  1.00  0.00    -0.063 NA 
HETATM   16  C   UNL     1      -6.811   8.581  71.431  1.00  0.00    -0.076 A  
HETATM   17  C   UNL     1      -7.361   6.263  71.700  1.00  0.00    -0.089 A  
ENDBRANCH   7   8
ENDBRANCH   4   7
ENDBRANCH   2   4
BRANCH   3  18
HETATM   18  C   UNL     1      -8.357   4.746  66.959  1.00  0.00    -0.106 C  
BRANCH  18  19
HETATM   19  C   UNL     1      -9.336   4.633  65.726  1.00  0.00    -0.158 C  
BRANCH  19  20
HETATM   20  O   UNL     1      -8.697   4.549  64.397  1.00  0.00    -0.137 OA 
HETATM   21  O   UNL     1      -7.050   6.001  64.060  1.00  0.00    -0.048 OA 
HETATM   22  O   UNL     1      -7.094   3.808  62.999  1.00  0.00    -0.042 OA 
HETATM   23  P   UNL     1      -6.974   4.432  64.507  1.00  0.00    -0.047 P  
HETATM   24  O   UNL     1      -5.433   4.326  64.605  1.00  0.00    -0.012 OA 
ENDBRANCH  19  20
ENDBRANCH  18  19
ENDBRANCH   3  18
BRANCH   3  25
HETATM   25  S   UNL     1      -8.584   7.339  68.190  1.00  0.00    -0.121 SA 
BRANCH  25  26
HETATM   26  C   UNL     1      -9.972   8.286  67.512  1.00  0.00    -0.193 C  
HETATM   27  O   UNL     1     -10.785   7.761  66.760  1.00  0.00    -0.311 OA 
BRANCH  26  28
HETATM   28  C   UNL     1     -10.095   9.799  67.802  1.00  0.00    -0.223 A  
HETATM   29  C   UNL     1     -11.583  11.785  68.000  1.00  0.00    -0.386 A  
HETATM   30  C   UNL     1     -11.373  10.417  67.722  1.00  0.00    -0.205 A  
HETATM   31  C   UNL     1      -9.056  10.637  68.217  1.00  0.00    -0.153 A  
HETATM   32  C   UNL     1     -10.514  12.581  68.394  1.00  0.00    -0.250 A  
HETATM   33  C   UNL     1      -9.250  11.999  68.509  1.00  0.00    -0.116 A  
ENDBRANCH  26  28
ENDBRANCH  25  26
ENDBRANCH   3  25
TORSDOF 9
ENDMDL
MODEL      371
REMARK 921   NORMALIZED FREE ENERGY PREDICTED BY IDOCK:   -3.50 KCAL/MOL
REMARK 922        TOTAL FREE ENERGY PREDICTED BY IDOCK:   -6.86 KCAL/MOL
REMARK 923 INTER-LIGAND FREE ENERGY PREDICTED BY IDOCK:   -4.82 KCAL/MOL
REMARK 924 INTRA-LIGAND FREE ENERGY PREDICTED BY IDOCK:   -2.03 KCAL/MOL
REMARK 927      BINDING AFFINITY PREDICTED BY RF-SCORE:    0.00 PKD
ROOT
HETATM    1  C   UNL     1     -10.222   4.930  66.114  1.00  0.00    -0.309 C  
HETATM    2  C   UNL     1      -9.406   6.170  66.515  1.00  0.00    -0.153 C  
HETATM    3  C   UNL     1      -9.780   6.873  67.627  1.00  0.00    -0.127 C  
ENDROOT
BRANCH   2   4
HETATM    4  N   UNL     1      -8.297   6.400  65.679  1.00  0.00    -0.143 N  
HETATM    5  C   UNL     1      -8.469   6.764  64.333  1.00  0.00     0.222 C  
HETATM    6  O   UNL     1      -7.614   6.707  63.461  1.00  0.00    -0.086 OA 
BRANCH   4   7
HETATM    7  C   UNL     1      -6.993   5.779  65.994  1.00  0.00    -0.059 C  
BRANCH   7   8
HETATM    8  C   UNL     1      -6.252   6.437  67.143  1.00  0.00    -0.036 A  
HETATM    9  H2  UNL     1      -5.729   7.581  64.886  1.00  0.00     0.000 HD 
HETATM   10  C   UNL     1      -6.077   6.017  68.414  1.00  0.00    -0.021 A  
HETATM   11  N   UNL     1      -5.208   8.482  67.975  1.00  0.00    -0.034 NA 
HETATM   12  N   UNL     1      -5.708   6.783  69.504  1.00  0.00    -0.015 NA 
HETATM   13  H1  UNL     1      -4.988   9.068  65.489  1.00  0.00     0.000 HD 
HETATM   14  C   UNL     1      -5.207   8.965  70.410  1.00  0.00    -0.020 C  
HETATM   15  N   UNL     1      -5.428   8.165  65.666  1.00  0.00    -0.032 NA 
HETATM   16  C   UNL     1      -5.352   8.010  69.254  1.00  0.00    -0.030 A  
HETATM   17  C   UNL     1      -5.606   7.761  66.883  1.00  0.00    -0.032 A  
ENDBRANCH   7   8
ENDBRANCH   4   7
ENDBRANCH   2   4
BRANCH   3  18
HETATM   18  C   UNL     1     -10.798   6.226  68.666  1.00  0.00    -0.401 C  
BRANCH  18  19
HETATM   19  C   UNL     1     -10.192   5.695  70.023  1.00  0.00    -0.252 C  
BRANCH  19  20
HETATM   20  O   UNL     1     -10.007   4.233  70.121  1.00  0.00    -0.220 OA 
HETATM   21  O   UNL     1      -8.271   3.434  68.989  1.00  0.00    -0.060 OA 
HETATM   22  O   UNL     1      -9.079   2.399  71.041  1.00  0.00    -0.084 OA 
HETATM   23  P   UNL     1      -8.392   3.808  70.574  1.00  0.00    -0.062 P  
HETATM   24  O   UNL     1      -6.947   3.428  70.980  1.00  0.00    -0.032 OA 
ENDBRANCH  19  20
ENDBRANCH  18  19
ENDBRANCH   3  18
BRANCH   3  25
HETATM   25  S   UNL     1      -9.181   8.537  68.082  1.00  0.00    -0.137 SA 
BRANCH  25  26
HETATM   26  C   UNL     1     -10.481   9.798  68.047  1.00  0.00    -0.226 C  
HETATM   27  O   UNL     1     -10.770  10.378  67.006  1.00  0.00    -0.261 OA 
BRANCH  26  28
HETATM   28  C   UNL     1     -11.181  10.228  69.357  1.00  0.00    -0.292 A  
HETATM   29  C   UNL     1     -12.350  12.027  70.621  1.00  0.00    -0.394 A  
HETATM   30  C   UNL     1     -11.672  11.557  69.475  1.00  0.00    -0.413 A  
HETATM   31  C   UNL     1     -11.452   9.397  70.448  1.00  0.00    -0.272 A  
HETATM   32  C   UNL     1     -12.581  11.165  71.686  1.00  0.00    -0.386 A  
HETATM   33  C   UNL     1     -12.136   9.846  71.592  1.00  0.00    -0.457 A  
ENDBRANCH  26  28
ENDBRANCH  25  26
ENDBRANCH   3  25
TORSDOF 9
ENDMDL
MODEL      372
REMARK 921   NORMALIZED FREE ENERGY PREDICTED BY IDOCK:   -3.49 KCAL/MOL
REMARK 922        TOTAL FREE ENERGY PREDICTED BY IDOCK:   -6.83 KCAL/MOL
REMARK 923 INTER-LIGAND FREE ENERGY PREDICTED BY IDOCK:   -5.47 KCAL/MOL
REMARK 924 INTRA-LIGAND FREE ENERGY PREDICTED BY IDOCK:   -1.35 KCAL/MOL
REMARK 927      BINDING AFFINITY PREDICTED BY RF-SCORE:    0.00 PKD
ROOT
HETATM    1  C   UNL     1      -7.889   8.058  70.988  1.00  0.00    -0.090 C  
HETATM    2  C   UNL     1      -7.921   6.601  70.496  1.00  0.00    -0.111 C  
HETATM    3  C   UNL     1      -7.509   6.327  69.221  1.00  0.00    -0.094 C  
ENDROOT
BRANCH   2   4
HETATM    4  N   UNL     1      -8.338   5.690  71.485  1.00  0.00    -0.126 N  
HETATM    5  C   UNL     1      -7.417   4.850  72.131  1.00  0.00    -0.088 C  
HETATM    6  O   UNL     1      -7.690   3.847  72.774  1.00  0.00    -0.071 OA 
BRANCH   4   7
HETATM    7  C   UNL     1      -9.736   5.208  71.502  1.00  0.00    -0.166 C  
BRANCH   7   8
HETATM    8  C   UNL     1     -10.771   6.307  71.662  1.00  0.00    -0.284 A  
HETATM    9  H2  UNL     1      -9.719   5.645  73.927  1.00  0.00     0.000 HD 
HETATM   10  C   UNL     1     -11.686   6.769  70.784  1.00  0.00    -0.386 A  
HETATM   11  N   UNL     1     -11.528   8.197  73.010  1.00  0.00    -0.236 NA 
HETATM   12  N   UNL     1     -12.360   7.975  70.835  1.00  0.00    -0.140 NA 
HETATM   13  H1  UNL     1     -10.254   7.021  74.899  1.00  0.00     0.000 HD 
HETATM   14  C   UNL     1     -12.680  10.108  71.922  1.00  0.00    -0.493 C  
HETATM   15  N   UNL     1     -10.221   6.529  74.006  1.00  0.00    -0.326 NA 
HETATM   16  C   UNL     1     -12.203   8.679  71.918  1.00  0.00    -0.355 A  
HETATM   17  C   UNL     1     -10.819   7.028  72.971  1.00  0.00    -0.309 A  
ENDBRANCH   7   8
ENDBRANCH   4   7
ENDBRANCH   2   4
BRANCH   3  18
HETATM   18  C   UNL     1      -6.691   7.421  68.403  1.00  0.00    -0.054 C  
BRANCH  18  19
HETATM   19  C   UNL     1      -7.239   7.799  66.972  1.00  0.00    -0.089 C  
BRANCH  19  20
HETATM   20  O   UNL     1      -7.941   9.095  66.869  1.00  0.00    -0.103 OA 
HETATM   21  O   UNL     1      -7.159  10.689  68.204  1.00  0.00    -0.079 OA 
HETATM   22  O   UNL     1      -8.171  11.177  66.042  1.00  0.00    -0.161 OA 
HETATM   23  P   UNL     1      -6.847  10.413  66.624  1.00  0.00    -0.113 P  
HETATM   24  O   UNL     1      -5.869  11.592  66.404  1.00  0.00    -0.179 OA 
ENDBRANCH  19  20
ENDBRANCH  18  19
ENDBRANCH   3  18
BRANCH   3  25
HETATM   25  S   UNL     1      -7.782   4.757  68.332  1.00  0.00    -0.081 SA 
BRANCH  25  26
HETATM   26  C   UNL     1      -9.317   4.738  67.370  1.00  0.00    -0.137 C  
HETATM   27  O   UNL     1     -10.290   5.396  67.721  1.00  0.00    -0.189 OA 
BRANCH  26  28
HETATM   28  C   UNL     1      -9.450   3.812  66.138  1.00  0.00    -0.184 A  
HETATM   29  C   UNL     1     -10.431   3.452  63.878  1.00  0.00    -0.248 A  
HETATM   30  C   UNL     1     -10.276   4.219  65.054  1.00  0.00    -0.213 A  
HETATM   31  C   UNL     1      -8.765   2.610  65.944  1.00  0.00    -0.127 A  
HETATM   32  C   UNL     1      -9.739   2.255  63.740  1.00  0.00    -0.131 A  
HETATM   33  C   UNL     1      -8.900   1.840  64.774  1.00  0.00    -0.112 A  
ENDBRANCH  26  28
ENDBRANCH  25  26
ENDBRANCH   3  25
TORSDOF 9
ENDMDL
MODEL      373
REMARK 921   NORMALIZED FREE ENERGY PREDICTED BY IDOCK:   -3.44 KCAL/MOL
REMARK 922        TOTAL FREE ENERGY PREDICTED BY IDOCK:   -6.76 KCAL/MOL
REMARK 923 INTER-LIGAND FREE ENERGY PREDICTED BY IDOCK:   -7.59 KCAL/MOL
REMARK 924 INTRA-LIGAND FREE ENERGY PREDICTED BY IDOCK:    0.83 KCAL/MOL
REMARK 927      BINDING AFFINITY PREDICTED BY RF-SCORE:    0.00 PKD
ROOT
HETATM    1  C   UNL     1     -12.240  12.458  70.518  1.00  0.00    -0.382 C  
HETATM    2  C   UNL     1     -11.767  11.126  69.910  1.00  0.00    -0.355 C  
HETATM    3  C   UNL     1     -11.276  11.122  68.634  1.00  0.00    -0.255 C  
ENDROOT
BRANCH   2   4
HETATM    4  N   UNL     1     -11.855  10.044  70.807  1.00  0.00    -0.321 N  
HETATM    5  C   UNL     1     -13.014   9.829  71.570  1.00  0.00    -0.407 C  
HETATM    6  O   UNL     1     -13.097   9.120  72.562  1.00  0.00    -0.429 OA 
BRANCH   4   7
HETATM    7  C   UNL     1     -10.623   9.445  71.363  1.00  0.00    -0.311 C  
BRANCH   7   8
HETATM    8  C   UNL     1     -10.810   8.046  71.923  1.00  0.00    -0.316 A  
HETATM    9  H2  UNL     1     -11.124   8.100  69.359  1.00  0.00     0.000 HD 
HETATM   10  C   UNL     1     -10.949   7.638  73.202  1.00  0.00    -0.353 A  
HETATM   11  N   UNL     1     -10.704   5.650  71.468  1.00  0.00    -0.248 NA 
HETATM   12  N   UNL     1     -10.768   6.359  73.696  1.00  0.00    -0.259 NA 
HETATM   13  H1  UNL     1     -11.031   6.366  69.029  1.00  0.00     0.000 HD 
HETATM   14  C   UNL     1     -10.111   4.072  73.291  1.00  0.00    -0.200 C  
HETATM   15  N   UNL     1     -11.011   7.142  69.691  1.00  0.00    -0.235 NA 
HETATM   16  C   UNL     1     -10.583   5.421  72.815  1.00  0.00    -0.229 A  
HETATM   17  C   UNL     1     -10.840   6.909  70.953  1.00  0.00    -0.244 A  
ENDBRANCH   7   8
ENDBRANCH   4   7
ENDBRANCH   2   4
BRANCH   3  18
HETATM   18  C   UNL     1     -10.875  12.496  67.937  1.00  0.00    -0.251 C  
BRANCH  18  19
HETATM   19  C   UNL     1     -12.034  13.306  67.237  1.00  0.00    -0.343 C  
BRANCH  19  20
HETATM   20  O   UNL     1     -11.802  14.756  67.071  1.00  0.00    -0.362 OA 
HETATM   21  O   UNL     1     -11.954  15.946  68.941  1.00  0.00    -0.370 OA 
HETATM   22  O   UNL     1     -10.482  16.580  67.106  1.00  0.00    -0.307 OA 
HETATM   23  P   UNL     1     -10.627  15.362  68.188  1.00  0.00    -0.281 P  
HETATM   24  O   UNL     1      -9.576  15.904  69.186  1.00  0.00    -0.222 OA 
ENDBRANCH  19  20
ENDBRANCH  18  19
ENDBRANCH   3  18
BRANCH   3  25
HETATM   25  S   UNL     1     -10.987   9.636  67.613  1.00  0.00     0.005 SA 
BRANCH  25  26
HETATM   26  C   UNL     1      -9.402   9.670  66.735  1.00  0.00    -0.152 C  
HETATM   27  O   UNL     1      -9.066  10.648  66.078  1.00  0.00    -0.168 OA 
BRANCH  26  28
HETATM   28  C   UNL     1      -8.492   8.419  66.729  1.00  0.00    -0.114 A  
HETATM   29  C   UNL     1      -6.375   7.360  67.499  1.00  0.00    -0.052 A  
HETATM   30  C   UNL     1      -7.254   8.463  67.426  1.00  0.00    -0.088 A  
HETATM   31  C   UNL     1      -8.803   7.187  66.147  1.00  0.00    -0.171 A  
HETATM   32  C   UNL     1      -6.724   6.160  66.891  1.00  0.00    -0.061 A  
HETATM   33  C   UNL     1      -7.944   6.075  66.221  1.00  0.00    -0.106 A  
ENDBRANCH  26  28
ENDBRANCH  25  26
ENDBRANCH   3  25
TORSDOF 9
ENDMDL
MODEL      374
REMARK 921   NORMALIZED FREE ENERGY PREDICTED BY IDOCK:   -3.38 KCAL/MOL
REMARK 922        TOTAL FREE ENERGY PREDICTED BY IDOCK:   -6.67 KCAL/MOL
REMARK 923 INTER-LIGAND FREE ENERGY PREDICTED BY IDOCK:   -7.90 KCAL/MOL
REMARK 924 INTRA-LIGAND FREE ENERGY PREDICTED BY IDOCK:    1.24 KCAL/MOL
REMARK 927      BINDING AFFINITY PREDICTED BY RF-SCORE:    0.00 PKD
ROOT
HETATM    1  C   UNL     1      -9.164  12.779  65.229  1.00  0.00     0.531 C  
HETATM    2  C   UNL     1      -9.629  13.698  66.371  1.00  0.00    -0.268 C  
HETATM    3  C   UNL     1     -10.798  13.407  67.018  1.00  0.00    -0.273 C  
ENDROOT
BRANCH   2   4
HETATM    4  N   UNL     1      -8.722  14.739  66.650  1.00  0.00    -0.233 N  
HETATM    5  C   UNL     1      -7.482  14.476  67.255  1.00  0.00    -0.097 C  
HETATM    6  O   UNL     1      -6.760  15.300  67.795  1.00  0.00    -0.137 OA 
BRANCH   4   7
HETATM    7  C   UNL     1      -9.217  16.122  66.820  1.00  0.00    -0.231 C  
BRANCH   7   8
HETATM    8  C   UNL     1      -8.271  17.189  66.299  1.00  0.00    -0.306 A  
HETATM    9  H2  UNL     1     -10.737  17.949  66.167  1.00  0.00     0.000 HD 
HETATM   10  C   UNL     1      -6.959  17.107  65.993  1.00  0.00    -0.045 A  
HETATM   11  N   UNL     1      -7.923  19.574  65.909  1.00  0.00    -0.425 NA 
HETATM   12  N   UNL     1      -6.065  18.154  65.860  1.00  0.00    -0.209 NA 
HETATM   13  H1  UNL     1     -10.484  19.678  65.901  1.00  0.00     0.000 HD 
HETATM   14  C   UNL     1      -5.632  20.524  66.028  1.00  0.00    -0.219 C  
HETATM   15  N   UNL     1     -10.107  18.742  66.048  1.00  0.00    -0.535 NA 
HETATM   16  C   UNL     1      -6.570  19.353  65.891  1.00  0.00    -0.232 A  
HETATM   17  C   UNL     1      -8.826  18.561  66.083  1.00  0.00    -0.111 A  
ENDBRANCH   7   8
ENDBRANCH   4   7
ENDBRANCH   2   4
BRANCH   3  18
HETATM   18  C   UNL     1     -11.465  11.972  66.836  1.00  0.00    -0.402 C  
BRANCH  18  19
HETATM   19  C   UNL     1     -10.937  10.816  67.772  1.00  0.00    -0.297 C  
BRANCH  19  20
HETATM   20  O   UNL     1     -10.798   9.486  67.144  1.00  0.00    -0.224 OA 
HETATM   21  O   UNL     1      -8.838   8.496  67.477  1.00  0.00    -0.134 OA 
HETATM   22  O   UNL     1     -10.905   7.238  67.195  1.00  0.00    -0.337 OA 
HETATM   23  P   UNL     1     -10.253   8.288  68.267  1.00  0.00    -0.181 P  
HETATM   24  O   UNL     1      -9.765   7.215  69.271  1.00  0.00    -0.158 OA 
ENDBRANCH  19  20
ENDBRANCH  18  19
ENDBRANCH   3  18
BRANCH   3  25
HETATM   25  S   UNL     1     -11.697  14.527  68.144  1.00  0.00    -0.324 SA 
BRANCH  25  26
HETATM   26  C   UNL     1     -10.871  14.747  69.742  1.00  0.00    -0.198 C  
HETATM   27  O   UNL     1      -9.660  14.594  69.852  1.00  0.00     0.236 OA 
BRANCH  26  28
HETATM   28  C   UNL     1     -11.703  15.042  71.011  1.00  0.00    -0.379 A  
HETATM   29  C   UNL     1     -13.443  14.257  72.610  1.00  0.00    -0.623 A  
HETATM   30  C   UNL     1     -12.661  14.085  71.446  1.00  0.00    -0.451 A  
HETATM   31  C   UNL     1     -11.558  16.156  71.842  1.00  0.00    -0.491 A  
HETATM   32  C   UNL     1     -13.271  15.391  73.395  1.00  0.00    -0.570 A  
HETATM   33  C   UNL     1     -12.321  16.337  73.010  1.00  0.00    -0.581 A  
ENDBRANCH  26  28
ENDBRANCH  25  26
ENDBRANCH   3  25
TORSDOF 9
ENDMDL
MODEL      375
REMARK 921   NORMALIZED FREE ENERGY PREDICTED BY IDOCK:   -3.34 KCAL/MOL
REMARK 922        TOTAL FREE ENERGY PREDICTED BY IDOCK:   -6.61 KCAL/MOL
REMARK 923 INTER-LIGAND FREE ENERGY PREDICTED BY IDOCK:   -4.82 KCAL/MOL
REMARK 924 INTRA-LIGAND FREE ENERGY PREDICTED BY IDOCK:   -1.79 KCAL/MOL
REMARK 927      BINDING AFFINITY PREDICTED BY RF-SCORE:    0.00 PKD
ROOT
HETATM    1  C   UNL     1     -12.367  13.520  66.381  1.00  0.00    -0.413 C  
HETATM    2  C   UNL     1     -11.321  13.209  67.464  1.00  0.00    -0.298 C  
HETATM    3  C   UNL     1     -10.002  13.445  67.194  1.00  0.00    -0.242 C  
ENDROOT
BRANCH   2   4
HETATM    4  N   UNL     1     -11.888  12.750  68.669  1.00  0.00    -0.315 N  
HETATM    5  C   UNL     1     -11.680  13.438  69.876  1.00  0.00    -0.267 C  
HETATM    6  O   UNL     1     -11.871  12.991  70.997  1.00  0.00     0.023 OA 
BRANCH   4   7
HETATM    7  C   UNL     1     -12.247  11.324  68.820  1.00  0.00    -0.032 C  
BRANCH   7   8
HETATM    8  C   UNL     1     -11.065  10.411  69.091  1.00  0.00    -0.296 A  
HETATM    9  H2  UNL     1     -12.147   9.918  66.797  1.00  0.00     0.000 HD 
HETATM   10  C   UNL     1     -10.383  10.195  70.236  1.00  0.00    -0.174 A  
HETATM   11  N   UNL     1      -9.298   9.037  68.114  1.00  0.00    -0.141 NA 
HETATM   12  N   UNL     1      -9.123   9.640  70.367  1.00  0.00    -0.238 NA 
HETATM   13  H1  UNL     1     -10.861   8.937  66.084  1.00  0.00     0.000 HD 
HETATM   14  C   UNL     1      -7.135   8.777  69.304  1.00  0.00    -0.062 C  
HETATM   15  N   UNL     1     -11.228   9.481  66.866  1.00  0.00     0.356 NA 
HETATM   16  C   UNL     1      -8.596   9.142  69.287  1.00  0.00    -0.137 A  
HETATM   17  C   UNL     1     -10.527   9.614  67.945  1.00  0.00    -0.246 A  
ENDBRANCH   7   8
ENDBRANCH   4   7
ENDBRANCH   2   4
BRANCH   3  18
HETATM   18  C   UNL     1      -9.600  14.342  65.942  1.00  0.00    -0.252 C  
BRANCH  18  19
HETATM   19  C   UNL     1      -9.771  15.903  66.098  1.00  0.00    -0.321 C  
BRANCH  19  20
HETATM   20  O   UNL     1      -8.815  16.739  65.342  1.00  0.00    -0.102 OA 
HETATM   21  O   UNL     1      -9.026  18.926  65.667  1.00  0.00    -0.284 OA 
HETATM   22  O   UNL     1      -6.885  17.883  65.152  1.00  0.00    -0.231 OA 
HETATM   23  P   UNL     1      -7.990  17.870  66.359  1.00  0.00    -0.226 P  
HETATM   24  O   UNL     1      -7.251  18.881  67.268  1.00  0.00    -0.212 OA 
ENDBRANCH  19  20
ENDBRANCH  18  19
ENDBRANCH   3  18
BRANCH   3  25
HETATM   25  S   UNL     1      -8.590  12.840  68.182  1.00  0.00    -0.177 SA 
BRANCH  25  26
HETATM   26  C   UNL     1      -7.049  12.735  67.236  1.00  0.00    -0.082 C  
HETATM   27  O   UNL     1      -6.283  13.690  67.171  1.00  0.00    -0.229 OA 
BRANCH  26  28
HETATM   28  C   UNL     1      -6.726  11.464  66.417  1.00  0.00    -0.014 A  
HETATM   29  C   UNL     1      -5.135   9.600  65.974  1.00  0.00    -0.035 A  
HETATM   30  C   UNL     1      -5.499  10.784  66.652  1.00  0.00    -0.069 A  
HETATM   31  C   UNL     1      -7.573  10.854  65.489  1.00  0.00     0.076 A  
HETATM   32  C   UNL     1      -6.008   9.041  65.048  1.00  0.00    -0.060 A  
HETATM   33  C   UNL     1      -7.231   9.668  64.813  1.00  0.00    -0.119 A  
ENDBRANCH  26  28
ENDBRANCH  25  26
ENDBRANCH   3  25
TORSDOF 9
ENDMDL
MODEL      376
REMARK 921   NORMALIZED FREE ENERGY PREDICTED BY IDOCK:   -3.34 KCAL/MOL
REMARK 922        TOTAL FREE ENERGY PREDICTED BY IDOCK:   -6.60 KCAL/MOL
REMARK 923 INTER-LIGAND FREE ENERGY PREDICTED BY IDOCK:   -6.88 KCAL/MOL
REMARK 924 INTRA-LIGAND FREE ENERGY PREDICTED BY IDOCK:    0.28 KCAL/MOL
REMARK 927      BINDING AFFINITY PREDICTED BY RF-SCORE:    0.00 PKD
ROOT
HETATM    1  C   UNL     1      -6.985  12.215  67.154  1.00  0.00    -0.117 C  
HETATM    2  C   UNL     1      -8.352  11.537  66.959  1.00  0.00    -0.165 C  
HETATM    3  C   UNL     1      -9.469  12.321  66.867  1.00  0.00    -0.217 C  
ENDROOT
BRANCH   2   4
HETATM    4  N   UNL     1      -8.266  10.137  66.842  1.00  0.00    -0.121 N  
HETATM    5  C   UNL     1      -9.235   9.408  66.133  1.00  0.00    -0.190 C  
HETATM    6  O   UNL     1      -9.422   8.203  66.207  1.00  0.00    -0.208 OA 
BRANCH   4   7
HETATM    7  C   UNL     1      -7.515   9.356  67.849  1.00  0.00    -0.084 C  
BRANCH   7   8
HETATM    8  C   UNL     1      -8.317   9.007  69.090  1.00  0.00    -0.123 A  
HETATM    9  H2  UNL     1      -7.583   6.893  67.798  1.00  0.00     0.000 HD 
HETATM   10  C   UNL     1      -9.056   9.800  69.894  1.00  0.00    -0.229 A  
HETATM   11  N   UNL     1      -8.773   7.327  70.801  1.00  0.00    -0.145 NA 
HETATM   12  N   UNL     1      -9.476   9.525  71.182  1.00  0.00    -0.196 NA 
HETATM   13  H1  UNL     1      -7.899   5.679  69.043  1.00  0.00     0.000 HD 
HETATM   14  C   UNL     1      -9.438   8.039  73.085  1.00  0.00    -0.349 C  
HETATM   15  N   UNL     1      -7.903   6.652  68.736  1.00  0.00    -0.109 NA 
HETATM   16  C   UNL     1      -9.258   8.318  71.615  1.00  0.00    -0.185 A  
HETATM   17  C   UNL     1      -8.312   7.581  69.539  1.00  0.00    -0.131 A  
ENDBRANCH   7   8
ENDBRANCH   4   7
ENDBRANCH   2   4
BRANCH   3  18
HETATM   18  C   UNL     1      -9.318  13.885  66.610  1.00  0.00    -0.282 C  
BRANCH  18  19
HETATM   19  C   UNL     1      -7.938  14.543  67.003  1.00  0.00    -0.041 C  
BRANCH  19  20
HETATM   20  O   UNL     1      -8.015  15.832  67.720  1.00  0.00    -0.133 OA 
HETATM   21  O   UNL     1      -8.323  15.663  69.913  1.00  0.00    -0.072 OA 
HETATM   22  O   UNL     1      -7.096  17.511  68.906  1.00  0.00    -0.241 OA 
HETATM   23  P   UNL     1      -6.940  15.891  69.074  1.00  0.00    -0.179 P  
HETATM   24  O   UNL     1      -5.978  15.945  70.286  1.00  0.00    -0.161 OA 
ENDBRANCH  19  20
ENDBRANCH  18  19
ENDBRANCH   3  18
BRANCH   3  25
HETATM   25  S   UNL     1     -11.192  11.730  66.979  1.00  0.00    -0.322 SA 
BRANCH  25  26
HETATM   26  C   UNL     1     -11.906  11.916  68.634  1.00  0.00    -0.308 C  
HETATM   27  O   UNL     1     -12.441  10.970  69.200  1.00  0.00    -0.432 OA 
BRANCH  26  28
HETATM   28  C   UNL     1     -11.930  13.303  69.317  1.00  0.00    -0.354 A  
HETATM   29  C   UNL     1     -11.992  14.595  71.444  1.00  0.00    -0.405 A  
HETATM   30  C   UNL     1     -11.996  13.374  70.736  1.00  0.00    -0.223 A  
HETATM   31  C   UNL     1     -11.821  14.535  68.667  1.00  0.00    -0.355 A  
HETATM   32  C   UNL     1     -11.897  15.795  70.750  1.00  0.00    -0.438 A  
HETATM   33  C   UNL     1     -11.804  15.760  69.358  1.00  0.00    -0.361 A  
ENDBRANCH  26  28
ENDBRANCH  25  26
ENDBRANCH   3  25
TORSDOF 9
ENDMDL
MODEL      377
REMARK 921   NORMALIZED FREE ENERGY PREDICTED BY IDOCK:   -3.33 KCAL/MOL
REMARK 922        TOTAL FREE ENERGY PREDICTED BY IDOCK:   -6.59 KCAL/MOL
REMARK 923 INTER-LIGAND FREE ENERGY PREDICTED BY IDOCK:   -5.18 KCAL/MOL
REMARK 924 INTRA-LIGAND FREE ENERGY PREDICTED BY IDOCK:   -1.40 KCAL/MOL
REMARK 927      BINDING AFFINITY PREDICTED BY RF-SCORE:    0.00 PKD
ROOT
HETATM    1  C   UNL     1     -10.678   5.775  71.619  1.00  0.00    -0.314 C  
HETATM    2  C   UNL     1      -9.955   6.785  70.713  1.00  0.00    -0.187 C  
HETATM    3  C   UNL     1      -9.672   8.029  71.207  1.00  0.00    -0.163 C  
ENDROOT
BRANCH   2   4
HETATM    4  N   UNL     1      -9.614   6.258  69.453  1.00  0.00    -0.141 N  
HETATM    5  C   UNL     1     -10.501   5.425  68.752  1.00  0.00    -0.149 C  
HETATM    6  O   UNL     1     -10.210   4.694  67.816  1.00  0.00    -0.078 OA 
BRANCH   4   7
HETATM    7  C   UNL     1      -8.192   6.109  69.075  1.00  0.00    -0.112 C  
BRANCH   7   8
HETATM    8  C   UNL     1      -7.824   6.773  67.761  1.00  0.00    -0.113 A  
HETATM    9  H2  UNL     1      -6.531   4.563  68.111  1.00  0.00     0.000 HD 
HETATM   10  C   UNL     1      -8.096   8.017  67.315  1.00  0.00    -0.121 A  
HETATM   11  N   UNL     1      -6.985   6.449  65.491  1.00  0.00    -0.052 NA 
HETATM   12  N   UNL     1      -8.054   8.465  66.007  1.00  0.00    -0.100 NA 
HETATM   13  H1  UNL     1      -5.937   4.321  66.463  1.00  0.00     0.000 HD 
HETATM   14  C   UNL     1      -7.744   7.954  63.668  1.00  0.00    -0.136 C  
HETATM   15  N   UNL     1      -6.465   4.872  67.141  1.00  0.00    -0.047 NA 
HETATM   16  C   UNL     1      -7.564   7.638  65.130  1.00  0.00    -0.095 A  
HETATM   17  C   UNL     1      -7.050   5.965  66.768  1.00  0.00    -0.070 A  
ENDBRANCH   7   8
ENDBRANCH   4   7
ENDBRANCH   2   4
BRANCH   3  18
HETATM   18  C   UNL     1      -9.766   8.297  72.773  1.00  0.00    -0.336 C  
BRANCH  18  19
HETATM   19  C   UNL     1      -8.484   7.964  73.632  1.00  0.00    -0.242 C  
BRANCH  19  20
HETATM   20  O   UNL     1      -7.387   7.278  72.920  1.00  0.00    -0.072 OA 
HETATM   21  O   UNL     1      -5.904   6.275  74.234  1.00  0.00    -0.060 OA 
HETATM   22  O   UNL     1      -6.440   5.451  72.005  1.00  0.00    -0.047 OA 
HETATM   23  P   UNL     1      -7.188   5.643  73.447  1.00  0.00    -0.087 P  
HETATM   24  O   UNL     1      -7.010   4.179  73.919  1.00  0.00    -0.057 OA 
ENDBRANCH  19  20
ENDBRANCH  18  19
ENDBRANCH   3  18
BRANCH   3  25
HETATM   25  S   UNL     1      -9.143   9.469  70.218  1.00  0.00    -0.233 SA 
BRANCH  25  26
HETATM   26  C   UNL     1     -10.508  10.581  69.788  1.00  0.00    -0.200 C  
HETATM   27  O   UNL     1     -11.477  10.705  70.528  1.00  0.00    -0.311 OA 
BRANCH  26  28
HETATM   28  C   UNL     1     -10.509  11.320  68.429  1.00  0.00    -0.219 A  
HETATM   29  C   UNL     1      -9.177  12.428  66.642  1.00  0.00    -0.218 A  
HETATM   30  C   UNL     1      -9.274  11.773  67.889  1.00  0.00    -0.181 A  
HETATM   31  C   UNL     1     -11.626  11.533  67.618  1.00  0.00    -0.320 A  
HETATM   32  C   UNL     1     -10.321  12.630  65.879  1.00  0.00    -0.295 A  
HETATM   33  C   UNL     1     -11.545  12.174  66.368  1.00  0.00    -0.429 A  
ENDBRANCH  26  28
ENDBRANCH  25  26
ENDBRANCH   3  25
TORSDOF 9
ENDMDL
MODEL      378
REMARK 921   NORMALIZED FREE ENERGY PREDICTED BY IDOCK:   -3.28 KCAL/MOL
REMARK 922        TOTAL FREE ENERGY PREDICTED BY IDOCK:   -6.52 KCAL/MOL
REMARK 923 INTER-LIGAND FREE ENERGY PREDICTED BY IDOCK:   -6.47 KCAL/MOL
REMARK 924 INTRA-LIGAND FREE ENERGY PREDICTED BY IDOCK:   -0.05 KCAL/MOL
REMARK 927      BINDING AFFINITY PREDICTED BY RF-SCORE:    0.00 PKD
ROOT
HETATM    1  C   UNL     1     -11.685  12.198  67.109  1.00  0.00    -0.372 C  
HETATM    2  C   UNL     1     -11.202  11.691  68.478  1.00  0.00    -0.256 C  
HETATM    3  C   UNL     1     -10.163  10.804  68.523  1.00  0.00    -0.178 C  
ENDROOT
BRANCH   2   4
HETATM    4  N   UNL     1     -11.890  12.272  69.561  1.00  0.00    -0.319 N  
HETATM    5  C   UNL     1     -12.343  11.490  70.635  1.00  0.00    -0.364 C  
HETATM    6  O   UNL     1     -13.179  11.824  71.462  1.00  0.00    -0.361 OA 
BRANCH   4   7
HETATM    7  C   UNL     1     -12.608  13.552  69.376  1.00  0.00     0.261 C  
BRANCH   7   8
HETATM    8  C   UNL     1     -11.710  14.724  69.026  1.00  0.00    -0.343 A  
HETATM    9  H2  UNL     1     -12.025  14.491  71.580  1.00  0.00     0.000 HD 
HETATM   10  C   UNL     1     -11.481  15.311  67.832  1.00  0.00    -0.316 A  
HETATM   11  N   UNL     1      -9.912  16.195  69.776  1.00  0.00    -0.188 NA 
HETATM   12  N   UNL     1     -10.418  16.129  67.493  1.00  0.00    -0.297 NA 
HETATM   13  H1  UNL     1     -10.713  15.543  72.122  1.00  0.00     0.000 HD 
HETATM   14  C   UNL     1      -8.317  17.138  68.123  1.00  0.00    -0.226 C  
HETATM   15  N   UNL     1     -11.245  15.112  71.366  1.00  0.00    -0.319 NA 
HETATM   16  C   UNL     1      -9.631  16.486  68.466  1.00  0.00    -0.233 A  
HETATM   17  C   UNL     1     -10.930  15.356  70.134  1.00  0.00    -0.310 A  
ENDBRANCH   7   8
ENDBRANCH   4   7
ENDBRANCH   2   4
BRANCH   3  18
HETATM   18  C   UNL     1      -9.255  10.585  67.233  1.00  0.00    -0.156 C  
BRANCH  18  19
HETATM   19  C   UNL     1      -9.822   9.626  66.116  1.00  0.00    -0.265 C  
BRANCH  19  20
HETATM   20  O   UNL     1      -9.697  10.107  64.724  1.00  0.00    -0.294 OA 
HETATM   21  O   UNL     1      -7.634  10.652  64.107  1.00  0.00     0.012 OA 
HETATM   22  O   UNL     1      -9.282   9.786  62.535  1.00  0.00    -0.283 OA 
HETATM   23  P   UNL     1      -8.462   9.267  63.851  1.00  0.00    -0.149 P  
HETATM   24  O   UNL     1      -7.357   8.515  63.070  1.00  0.00    -0.094 OA 
ENDBRANCH  19  20
ENDBRANCH  18  19
ENDBRANCH   3  18
BRANCH   3  25
HETATM   25  S   UNL     1      -9.663   9.826  69.981  1.00  0.00    -0.234 SA 
BRANCH  25  26
HETATM   26  C   UNL     1      -9.976   8.052  69.794  1.00  0.00    -0.191 C  
HETATM   27  O   UNL     1     -10.860   7.643  69.049  1.00  0.00    -0.161 OA 
BRANCH  26  28
HETATM   28  C   UNL     1      -9.189   7.030  70.647  1.00  0.00    -0.158 A  
HETATM   29  C   UNL     1      -9.089   4.740  71.617  1.00  0.00    -0.169 A  
HETATM   30  C   UNL     1      -9.750   5.744  70.877  1.00  0.00    -0.218 A  
HETATM   31  C   UNL     1      -7.909   7.222  71.175  1.00  0.00    -0.093 A  
HETATM   32  C   UNL     1      -7.823   4.986  72.135  1.00  0.00    -0.110 A  
HETATM   33  C   UNL     1      -7.232   6.229  71.905  1.00  0.00    -0.087 A  
ENDBRANCH  26  28
ENDBRANCH  25  26
ENDBRANCH   3  25
TORSDOF 9
ENDMDL
MODEL      379
REMARK 921   NORMALIZED FREE ENERGY PREDICTED BY IDOCK:   -3.26 KCAL/MOL
REMARK 922        TOTAL FREE ENERGY PREDICTED BY IDOCK:   -6.48 KCAL/MOL
REMARK 923 INTER-LIGAND FREE ENERGY PREDICTED BY IDOCK:   -5.42 KCAL/MOL
REMARK 924 INTRA-LIGAND FREE ENERGY PREDICTED BY IDOCK:   -1.06 KCAL/MOL
REMARK 927      BINDING AFFINITY PREDICTED BY RF-SCORE:    0.00 PKD
ROOT
HETATM    1  C   UNL     1      -7.949  10.910  68.379  1.00  0.00    -0.127 C  
HETATM    2  C   UNL     1      -8.002   9.509  67.748  1.00  0.00    -0.099 C  
HETATM    3  C   UNL     1      -8.596   8.494  68.445  1.00  0.00    -0.139 C  
ENDROOT
BRANCH   2   4
HETATM    4  N   UNL     1      -7.453   9.462  66.452  1.00  0.00    -0.092 N  
HETATM    5  C   UNL     1      -6.283  10.171  66.134  1.00  0.00    -0.082 C  
HETATM    6  O   UNL     1      -5.889  10.434  65.008  1.00  0.00    -0.118 OA 
BRANCH   4   7
HETATM    7  C   UNL     1      -8.318   9.138  65.296  1.00  0.00    -0.146 C  
BRANCH   7   8
HETATM    8  C   UNL     1      -9.293  10.240  64.921  1.00  0.00    -0.306 A  
HETATM    9  H2  UNL     1      -7.537   9.844  63.067  1.00  0.00     0.000 HD 
HETATM   10  C   UNL     1     -10.197  10.891  65.683  1.00  0.00    -0.263 A  
HETATM   11  N   UNL     1     -10.366  11.464  63.101  1.00  0.00    -0.334 NA 
HETATM   12  N   UNL     1     -11.286  11.622  65.246  1.00  0.00    -0.212 NA 
HETATM   13  H1  UNL     1      -8.323  10.717  61.746  1.00  0.00     0.000 HD 
HETATM   14  C   UNL     1     -12.659  12.368  63.405  1.00  0.00    -0.481 C  
HETATM   15  N   UNL     1      -8.317  10.400  62.716  1.00  0.00    -0.160 NA 
HETATM   16  C   UNL     1     -11.369  11.824  63.964  1.00  0.00    -0.381 A  
HETATM   17  C   UNL     1      -9.301  10.704  63.500  1.00  0.00    -0.290 A  
ENDBRANCH   7   8
ENDBRANCH   4   7
ENDBRANCH   2   4
BRANCH   3  18
HETATM   18  C   UNL     1      -9.515   8.830  69.702  1.00  0.00    -0.170 C  
BRANCH  18  19
HETATM   19  C   UNL     1     -11.031   8.401  69.612  1.00  0.00    -0.087 C  
BRANCH  19  20
HETATM   20  O   UNL     1     -11.499   7.457  70.648  1.00  0.00    -0.284 OA 
HETATM   21  O   UNL     1     -10.970   8.017  72.731  1.00  0.00    -0.363 OA 
HETATM   22  O   UNL     1     -12.989   6.767  72.188  1.00  0.00    -0.187 OA 
HETATM   23  P   UNL     1     -12.365   8.254  71.915  1.00  0.00    -0.374 P  
HETATM   24  O   UNL     1     -13.141   8.967  73.050  1.00  0.00    -0.309 OA 
ENDBRANCH  19  20
ENDBRANCH  18  19
ENDBRANCH   3  18
BRANCH   3  25
HETATM   25  S   UNL     1      -8.468   6.716  68.049  1.00  0.00    -0.115 SA 
BRANCH  25  26
HETATM   26  C   UNL     1      -6.846   6.011  68.442  1.00  0.00    -0.074 C  
HETATM   27  O   UNL     1      -5.815   6.542  68.044  1.00  0.00    -0.014 OA 
BRANCH  26  28
HETATM   28  C   UNL     1      -6.747   4.673  69.210  1.00  0.00    -0.045 A  
HETATM   29  C   UNL     1      -7.941   2.845  70.405  1.00  0.00    -0.050 A  
HETATM   30  C   UNL     1      -7.934   4.079  69.719  1.00  0.00    -0.057 A  
HETATM   31  C   UNL     1      -5.581   3.927  69.402  1.00  0.00    -0.017 A  
HETATM   32  C   UNL     1      -6.752   2.148  70.583  1.00  0.00    -0.032 A  
HETATM   33  C   UNL     1      -5.572   2.690  70.073  1.00  0.00    -0.017 A  
ENDBRANCH  26  28
ENDBRANCH  25  26
ENDBRANCH   3  25
TORSDOF 9
ENDMDL
MODEL      380
REMARK 921   NORMALIZED FREE ENERGY PREDICTED BY IDOCK:   -3.24 KCAL/MOL
REMARK 922        TOTAL FREE ENERGY PREDICTED BY IDOCK:   -6.46 KCAL/MOL
REMARK 923 INTER-LIGAND FREE ENERGY PREDICTED BY IDOCK:   -4.61 KCAL/MOL
REMARK 924 INTRA-LIGAND FREE ENERGY PREDICTED BY IDOCK:   -1.85 KCAL/MOL
REMARK 927      BINDING AFFINITY PREDICTED BY RF-SCORE:    0.00 PKD
ROOT
HETATM    1  C   UNL     1     -10.914   6.108  69.144  1.00  0.00    -0.450 C  
HETATM    2  C   UNL     1      -9.383   6.255  69.140  1.00  0.00    -0.131 C  
HETATM    3  C   UNL     1      -8.821   7.319  69.788  1.00  0.00    -0.142 C  
ENDROOT
BRANCH   2   4
HETATM    4  N   UNL     1      -8.725   5.196  68.484  1.00  0.00    -0.097 N  
HETATM    5  C   UNL     1      -8.537   5.210  67.093  1.00  0.00    -0.105 C  
HETATM    6  O   UNL     1      -8.250   4.246  66.398  1.00  0.00    -0.102 OA 
BRANCH   4   7
HETATM    7  C   UNL     1      -8.691   3.853  69.103  1.00  0.00    -0.085 C  
BRANCH   7   8
HETATM    8  C   UNL     1      -8.249   3.847  70.555  1.00  0.00    -0.071 A  
HETATM    9  H2  UNL     1      -6.232   3.883  68.941  1.00  0.00     0.000 HD 
HETATM   10  C   UNL     1      -8.963   3.610  71.675  1.00  0.00    -0.106 A  
HETATM   11  N   UNL     1      -6.492   4.445  72.141  1.00  0.00    -0.021 NA 
HETATM   12  N   UNL     1      -8.622   3.949  72.972  1.00  0.00    -0.094 NA 
HETATM   13  H1  UNL     1      -4.963   4.331  70.087  1.00  0.00     0.000 HD 
HETATM   14  C   UNL     1      -7.089   5.058  74.472  1.00  0.00    -0.078 C  
HETATM   15  N   UNL     1      -5.942   4.121  69.890  1.00  0.00    -0.018 NA 
HETATM   16  C   UNL     1      -7.422   4.420  73.149  1.00  0.00    -0.081 A  
HETATM   17  C   UNL     1      -6.815   4.156  70.844  1.00  0.00    -0.032 A  
ENDBRANCH   7   8
ENDBRANCH   4   7
ENDBRANCH   2   4
BRANCH   3  18
HETATM   18  C   UNL     1      -9.694   8.173  70.810  1.00  0.00    -0.189 C  
BRANCH  18  19
HETATM   19  C   UNL     1      -9.959   9.683  70.434  1.00  0.00    -0.271 C  
BRANCH  19  20
HETATM   20  O   UNL     1     -11.360  10.140  70.538  1.00  0.00    -0.291 OA 
HETATM   21  O   UNL     1     -12.862   8.514  70.719  1.00  0.00     0.063 OA 
HETATM   22  O   UNL     1     -13.188  10.709  71.724  1.00  0.00    -0.438 OA 
HETATM   23  P   UNL     1     -12.180   9.431  71.886  1.00  0.00    -0.291 P  
HETATM   24  O   UNL     1     -12.914   8.796  73.093  1.00  0.00    -0.182 OA 
ENDBRANCH  19  20
ENDBRANCH  18  19
ENDBRANCH   3  18
BRANCH   3  25
HETATM   25  S   UNL     1      -7.088   7.869  69.623  1.00  0.00    -0.063 SA 
BRANCH  25  26
HETATM   26  C   UNL     1      -6.779   8.818  68.111  1.00  0.00    -0.065 C  
HETATM   27  O   UNL     1      -5.643   8.951  67.670  1.00  0.00    -0.038 OA 
BRANCH  26  28
HETATM   28  C   UNL     1      -7.942   9.554  67.406  1.00  0.00    -0.106 A  
HETATM   29  C   UNL     1      -9.897   9.407  65.871  1.00  0.00    -0.362 A  
HETATM   30  C   UNL     1      -8.793   8.824  66.532  1.00  0.00    -0.156 A  
HETATM   31  C   UNL     1      -8.298  10.891  67.600  1.00  0.00    -0.116 A  
HETATM   32  C   UNL     1     -10.200  10.746  66.085  1.00  0.00    -0.308 A  
HETATM   33  C   UNL     1      -9.400  11.485  66.958  1.00  0.00    -0.185 A  
ENDBRANCH  26  28
ENDBRANCH  25  26
ENDBRANCH   3  25
TORSDOF 9
ENDMDL
MODEL      381
REMARK 921   NORMALIZED FREE ENERGY PREDICTED BY IDOCK:   -3.19 KCAL/MOL
REMARK 922        TOTAL FREE ENERGY PREDICTED BY IDOCK:   -6.37 KCAL/MOL
REMARK 923 INTER-LIGAND FREE ENERGY PREDICTED BY IDOCK:   -4.72 KCAL/MOL
REMARK 924 INTRA-LIGAND FREE ENERGY PREDICTED BY IDOCK:   -1.64 KCAL/MOL
REMARK 927      BINDING AFFINITY PREDICTED BY RF-SCORE:    0.00 PKD
ROOT
HETATM    1  C   UNL     1     -11.081   5.860  69.362  1.00  0.00    -0.369 C  
HETATM    2  C   UNL     1      -9.646   6.346  69.096  1.00  0.00    -0.136 C  
HETATM    3  C   UNL     1      -9.060   7.193  69.995  1.00  0.00    -0.145 C  
ENDROOT
BRANCH   2   4
HETATM    4  N   UNL     1      -9.075   5.786  67.936  1.00  0.00    -0.110 N  
HETATM    5  C   UNL     1      -9.317   6.342  66.670  1.00  0.00    -0.153 C  
HETATM    6  O   UNL     1      -9.123   5.791  65.596  1.00  0.00    -0.149 OA 
BRANCH   4   7
HETATM    7  C   UNL     1      -8.673   4.363  67.925  1.00  0.00    -0.105 C  
BRANCH   7   8
HETATM    8  C   UNL     1      -7.898   3.926  69.154  1.00  0.00    -0.052 A  
HETATM    9  H2  UNL     1     -10.076   2.567  68.863  1.00  0.00     0.000 HD 
HETATM   10  C   UNL     1      -6.852   4.515  69.771  1.00  0.00    -0.041 A  
HETATM   11  N   UNL     1      -7.434   2.109  70.718  1.00  0.00    -0.033 NA 
HETATM   12  N   UNL     1      -5.965   3.928  70.656  1.00  0.00    -0.017 NA 
HETATM   13  H1  UNL     1      -9.733   1.243  69.984  1.00  0.00     0.000 HD 
HETATM   14  C   UNL     1      -5.197   1.934  71.779  1.00  0.00     0.000 C  
HETATM   15  N   UNL     1      -9.453   2.115  69.534  1.00  0.00    -0.086 NA 
HETATM   16  C   UNL     1      -6.251   2.720  71.045  1.00  0.00    -0.019 A  
HETATM   17  C   UNL     1      -8.308   2.648  69.814  1.00  0.00    -0.045 A  
ENDBRANCH   7   8
ENDBRANCH   4   7
ENDBRANCH   2   4
BRANCH   3  18
HETATM   18  C   UNL     1      -9.705   7.383  71.439  1.00  0.00    -0.175 C  
BRANCH  18  19
HETATM   19  C   UNL     1      -9.817   8.861  71.982  1.00  0.00    -0.255 C  
BRANCH  19  20
HETATM   20  O   UNL     1     -11.180   9.427  72.041  1.00  0.00    -0.287 OA 
HETATM   21  O   UNL     1     -12.495   8.877  70.338  1.00  0.00     0.198 OA 
HETATM   22  O   UNL     1     -13.365   9.311  72.572  1.00  0.00    -0.457 OA 
HETATM   23  P   UNL     1     -12.399   8.219  71.830  1.00  0.00    -0.361 P  
HETATM   24  O   UNL     1     -13.491   7.138  71.641  1.00  0.00    -0.379 OA 
ENDBRANCH  19  20
ENDBRANCH  18  19
ENDBRANCH   3  18
BRANCH   3  25
HETATM   25  S   UNL     1      -7.529   8.148  69.713  1.00  0.00    -0.086 SA 
BRANCH  25  26
HETATM   26  C   UNL     1      -7.657   9.311  68.330  1.00  0.00    -0.083 C  
HETATM   27  O   UNL     1      -6.665   9.640  67.689  1.00  0.00    -0.065 OA 
BRANCH  26  28
HETATM   28  C   UNL     1      -9.012   9.979  68.000  1.00  0.00    -0.128 A  
HETATM   29  C   UNL     1     -10.891  11.414  68.781  1.00  0.00    -0.251 A  
HETATM   30  C   UNL     1      -9.667  10.745  69.003  1.00  0.00    -0.201 A  
HETATM   31  C   UNL     1      -9.648   9.964  66.756  1.00  0.00    -0.231 A  
HETATM   32  C   UNL     1     -11.491  11.356  67.529  1.00  0.00    -0.336 A  
HETATM   33  C   UNL     1     -10.861  10.634  66.515  1.00  0.00    -0.168 A  
ENDBRANCH  26  28
ENDBRANCH  25  26
ENDBRANCH   3  25
TORSDOF 9
ENDMDL
MODEL      382
REMARK 921   NORMALIZED FREE ENERGY PREDICTED BY IDOCK:   -3.18 KCAL/MOL
REMARK 922        TOTAL FREE ENERGY PREDICTED BY IDOCK:   -6.37 KCAL/MOL
REMARK 923 INTER-LIGAND FREE ENERGY PREDICTED BY IDOCK:   -5.32 KCAL/MOL
REMARK 924 INTRA-LIGAND FREE ENERGY PREDICTED BY IDOCK:   -1.05 KCAL/MOL
REMARK 927      BINDING AFFINITY PREDICTED BY RF-SCORE:    0.00 PKD
ROOT
HETATM    1  C   UNL     1      -6.575  11.176  65.102  1.00  0.00     0.624 C  
HETATM    2  C   UNL     1      -7.552  10.285  65.889  1.00  0.00    -0.134 C  
HETATM    3  C   UNL     1      -7.374  10.142  67.237  1.00  0.00    -0.090 C  
ENDROOT
BRANCH   2   4
HETATM    4  N   UNL     1      -8.582   9.751  65.091  1.00  0.00    -0.147 N  
HETATM    5  C   UNL     1      -8.360   9.426  63.743  1.00  0.00    -0.183 C  
HETATM    6  O   UNL     1      -9.224   9.237  62.900  1.00  0.00    -0.116 OA 
BRANCH   4   7
HETATM    7  C   UNL     1      -9.995  10.003  65.445  1.00  0.00    -0.294 C  
BRANCH   7   8
HETATM    8  C   UNL     1     -10.497  11.383  65.059  1.00  0.00    -0.361 A  
HETATM    9  H2  UNL     1     -11.701  10.480  67.160  1.00  0.00     0.000 HD 
HETATM   10  C   UNL     1     -10.295  12.091  63.928  1.00  0.00    -0.402 A  
HETATM   11  N   UNL     1     -11.531  13.454  65.836  1.00  0.00    -0.314 NA 
HETATM   12  N   UNL     1     -10.466  13.452  63.752  1.00  0.00    -0.031 NA 
HETATM   13  H1  UNL     1     -12.436  11.984  67.730  1.00  0.00     0.000 HD 
HETATM   14  C   UNL     1     -10.977  15.604  64.723  1.00  0.00    -0.418 C  
HETATM   15  N   UNL     1     -11.862  11.482  67.051  1.00  0.00    -0.530 NA 
HETATM   16  C   UNL     1     -11.015  14.098  64.740  1.00  0.00    -0.400 A  
HETATM   17  C   UNL     1     -11.338  12.118  66.053  1.00  0.00    -0.358 A  
ENDBRANCH   7   8
ENDBRANCH   4   7
ENDBRANCH   2   4
BRANCH   3  18
HETATM   18  C   UNL     1      -6.412  11.142  68.018  1.00  0.00    -0.057 C  
BRANCH  18  19
HETATM   19  C   UNL     1      -7.074  12.441  68.623  1.00  0.00    -0.103 C  
BRANCH  19  20
HETATM   20  O   UNL     1      -7.782  13.315  67.665  1.00  0.00    -0.142 OA 
HETATM   21  O   UNL     1      -9.678  14.189  68.423  1.00  0.00    -0.217 OA 
HETATM   22  O   UNL     1      -8.272  15.333  66.795  1.00  0.00    -0.230 OA 
HETATM   23  P   UNL     1      -8.185  14.849  68.355  1.00  0.00    -0.167 P  
HETATM   24  O   UNL     1      -8.546  16.222  68.972  1.00  0.00    -0.242 OA 
ENDBRANCH  19  20
ENDBRANCH  18  19
ENDBRANCH   3  18
BRANCH   3  25
HETATM   25  S   UNL     1      -8.185   8.889  68.288  1.00  0.00    -0.121 SA 
BRANCH  25  26
HETATM   26  C   UNL     1      -7.739   7.189  67.846  1.00  0.00    -0.113 C  
HETATM   27  O   UNL     1      -7.220   6.934  66.766  1.00  0.00    -0.073 OA 
BRANCH  26  28
HETATM   28  C   UNL     1      -8.097   6.021  68.795  1.00  0.00    -0.104 A  
HETATM   29  C   UNL     1      -8.867   5.312  71.054  1.00  0.00    -0.148 A  
HETATM   30  C   UNL     1      -8.494   6.312  70.129  1.00  0.00    -0.134 A  
HETATM   31  C   UNL     1      -8.138   4.669  68.445  1.00  0.00    -0.083 A  
HETATM   32  C   UNL     1      -8.878   3.980  70.661  1.00  0.00    -0.132 A  
HETATM   33  C   UNL     1      -8.518   3.662  69.350  1.00  0.00    -0.097 A  
ENDBRANCH  26  28
ENDBRANCH  25  26
ENDBRANCH   3  25
TORSDOF 9
ENDMDL
MODEL      383
REMARK 921   NORMALIZED FREE ENERGY PREDICTED BY IDOCK:   -3.18 KCAL/MOL
REMARK 922        TOTAL FREE ENERGY PREDICTED BY IDOCK:   -6.36 KCAL/MOL
REMARK 923 INTER-LIGAND FREE ENERGY PREDICTED BY IDOCK:   -5.98 KCAL/MOL
REMARK 924 INTRA-LIGAND FREE ENERGY PREDICTED BY IDOCK:   -0.38 KCAL/MOL
REMARK 927      BINDING AFFINITY PREDICTED BY RF-SCORE:    0.00 PKD
ROOT
HETATM    1  C   UNL     1      -9.410  13.822  66.371  1.00  0.00    -0.215 C  
HETATM    2  C   UNL     1     -10.084  12.443  66.463  1.00  0.00    -0.232 C  
HETATM    3  C   UNL     1     -10.686  12.081  67.636  1.00  0.00    -0.217 C  
ENDROOT
BRANCH   2   4
HETATM    4  N   UNL     1     -10.039  11.721  65.254  1.00  0.00    -0.254 N  
HETATM    5  C   UNL     1     -10.753  12.153  64.125  1.00  0.00    -0.360 C  
HETATM    6  O   UNL     1     -11.017  11.477  63.142  1.00  0.00    -0.286 OA 
BRANCH   4   7
HETATM    7  C   UNL     1      -9.711  10.279  65.269  1.00  0.00    -0.291 C  
BRANCH   7   8
HETATM    8  C   UNL     1      -8.530   9.901  64.394  1.00  0.00    -0.183 A  
HETATM    9  H2  UNL     1      -7.803  11.340  66.412  1.00  0.00     0.000 HD 
HETATM   10  C   UNL     1      -8.508   9.361  63.156  1.00  0.00    -0.205 A  
HETATM   11  N   UNL     1      -6.121   9.520  64.294  1.00  0.00    -0.079 NA 
HETATM   12  N   UNL     1      -7.448   8.718  62.543  1.00  0.00    -0.101 NA 
HETATM   13  H1  UNL     1      -6.060  11.051  66.350  1.00  0.00     0.000 HD 
HETATM   14  C   UNL     1      -5.197   7.859  62.697  1.00  0.00    -0.055 C  
HETATM   15  N   UNL     1      -6.996  10.895  65.975  1.00  0.00    -0.105 NA 
HETATM   16  C   UNL     1      -6.308   8.762  63.167  1.00  0.00    -0.090 A  
HETATM   17  C   UNL     1      -7.159  10.131  64.943  1.00  0.00    -0.131 A  
ENDBRANCH   7   8
ENDBRANCH   4   7
ENDBRANCH   2   4
BRANCH   3  18
HETATM   18  C   UNL     1     -10.990  13.184  68.742  1.00  0.00    -0.298 C  
BRANCH  18  19
HETATM   19  C   UNL     1     -12.283  14.064  68.537  1.00  0.00    -0.174 C  
BRANCH  19  20
HETATM   20  O   UNL     1     -12.058  15.511  68.338  1.00  0.00    -0.210 OA 
HETATM   21  O   UNL     1     -10.913  16.509  69.959  1.00  0.00    -0.350 OA 
HETATM   22  O   UNL     1     -10.819  17.258  67.643  1.00  0.00    -0.335 OA 
HETATM   23  P   UNL     1     -10.392  15.943  68.517  1.00  0.00    -0.255 P  
HETATM   24  O   UNL     1      -8.902  16.330  68.677  1.00  0.00    -0.204 OA 
ENDBRANCH  19  20
ENDBRANCH  18  19
ENDBRANCH   3  18
BRANCH   3  25
HETATM   25  S   UNL     1     -11.233  10.394  68.072  1.00  0.00    -0.198 SA 
BRANCH  25  26
HETATM   26  C   UNL     1     -10.264   9.652  69.411  1.00  0.00    -0.209 C  
HETATM   27  O   UNL     1     -10.208  10.180  70.516  1.00  0.00    -0.190 OA 
BRANCH  26  28
HETATM   28  C   UNL     1      -9.416   8.387  69.145  1.00  0.00    -0.155 A  
HETATM   29  C   UNL     1      -7.391   7.402  68.083  1.00  0.00    -0.100 A  
HETATM   30  C   UNL     1      -8.241   8.497  68.351  1.00  0.00    -0.123 A  
HETATM   31  C   UNL     1      -9.654   7.118  69.680  1.00  0.00    -0.154 A  
HETATM   32  C   UNL     1      -7.680   6.156  68.626  1.00  0.00    -0.100 A  
HETATM   33  C   UNL     1      -8.811   6.020  69.432  1.00  0.00    -0.120 A  
ENDBRANCH  26  28
ENDBRANCH  25  26
ENDBRANCH   3  25
TORSDOF 9
ENDMDL
MODEL      384
REMARK 921   NORMALIZED FREE ENERGY PREDICTED BY IDOCK:   -3.09 KCAL/MOL
REMARK 922        TOTAL FREE ENERGY PREDICTED BY IDOCK:   -6.23 KCAL/MOL
REMARK 923 INTER-LIGAND FREE ENERGY PREDICTED BY IDOCK:   -4.72 KCAL/MOL
REMARK 924 INTRA-LIGAND FREE ENERGY PREDICTED BY IDOCK:   -1.51 KCAL/MOL
REMARK 927      BINDING AFFINITY PREDICTED BY RF-SCORE:    0.00 PKD
ROOT
HETATM    1  C   UNL     1     -10.654   7.350  67.074  1.00  0.00    -0.414 C  
HETATM    2  C   UNL     1      -9.783   6.240  67.685  1.00  0.00    -0.119 C  
HETATM    3  C   UNL     1      -9.649   6.181  69.044  1.00  0.00    -0.127 C  
ENDROOT
BRANCH   2   4
HETATM    4  N   UNL     1      -9.255   5.355  66.725  1.00  0.00    -0.124 N  
HETATM    5  C   UNL     1      -9.905   4.149  66.417  1.00  0.00    -0.195 C  
HETATM    6  O   UNL     1      -9.408   3.196  65.835  1.00  0.00    -0.154 OA 
BRANCH   4   7
HETATM    7  C   UNL     1      -7.810   5.381  66.414  1.00  0.00    -0.100 C  
BRANCH   7   8
HETATM    8  C   UNL     1      -7.213   6.774  66.343  1.00  0.00    -0.072 A  
HETATM    9  H2  UNL     1      -8.285   6.078  64.098  1.00  0.00     0.000 HD 
HETATM   10  C   UNL     1      -6.386   7.406  67.204  1.00  0.00    -0.055 A  
HETATM   11  N   UNL     1      -7.285   8.958  65.253  1.00  0.00    -0.087 NA 
HETATM   12  N   UNL     1      -6.147   8.765  67.288  1.00  0.00    -0.054 NA 
HETATM   13  H1  UNL     1      -8.352   7.662  63.316  1.00  0.00     0.000 HD 
HETATM   14  C   UNL     1      -6.673  10.997  66.531  1.00  0.00    -0.135 C  
HETATM   15  N   UNL     1      -8.107   7.082  64.120  1.00  0.00    -0.081 NA 
HETATM   16  C   UNL     1      -6.663   9.502  66.348  1.00  0.00    -0.075 A  
HETATM   17  C   UNL     1      -7.571   7.623  65.166  1.00  0.00    -0.095 A  
ENDBRANCH   7   8
ENDBRANCH   4   7
ENDBRANCH   2   4
BRANCH   3  18
HETATM   18  C   UNL     1     -10.643   7.007  69.974  1.00  0.00    -0.251 C  
BRANCH  18  19
HETATM   19  C   UNL     1     -11.768   6.190  70.720  1.00  0.00    -0.098 C  
BRANCH  19  20
HETATM   20  O   UNL     1     -12.500   6.914  71.779  1.00  0.00    -0.345 OA 
HETATM   21  O   UNL     1     -11.308   8.444  72.860  1.00  0.00    -0.278 OA 
HETATM   22  O   UNL     1     -13.712   8.657  72.530  1.00  0.00    -0.368 OA 
HETATM   23  P   UNL     1     -12.353   8.630  71.619  1.00  0.00    -0.369 P  
HETATM   24  O   UNL     1     -12.222  10.166  71.476  1.00  0.00    -0.373 OA 
ENDBRANCH  19  20
ENDBRANCH  18  19
ENDBRANCH   3  18
BRANCH   3  25
HETATM   25  S   UNL     1      -8.415   5.184  69.948  1.00  0.00    -0.097 SA 
BRANCH  25  26
HETATM   26  C   UNL     1      -7.700   6.048  71.371  1.00  0.00    -0.104 C  
HETATM   27  O   UNL     1      -7.714   5.543  72.487  1.00  0.00    -0.099 OA 
BRANCH  26  28
HETATM   28  C   UNL     1      -7.145   7.482  71.209  1.00  0.00    -0.058 A  
HETATM   29  C   UNL     1      -5.231   9.042  71.531  1.00  0.00    -0.042 A  
HETATM   30  C   UNL     1      -5.830   7.769  71.665  1.00  0.00    -0.035 A  
HETATM   31  C   UNL     1      -7.799   8.544  70.577  1.00  0.00    -0.086 A  
HETATM   32  C   UNL     1      -5.929  10.069  70.908  1.00  0.00    -0.082 A  
HETATM   33  C   UNL     1      -7.213   9.813  70.425  1.00  0.00    -0.149 A  
ENDBRANCH  26  28
ENDBRANCH  25  26
ENDBRANCH   3  25
TORSDOF 9
ENDMDL
MODEL      385
REMARK 921   NORMALIZED FREE ENERGY PREDICTED BY IDOCK:   -3.07 KCAL/MOL
REMARK 922        TOTAL FREE ENERGY PREDICTED BY IDOCK:   -6.19 KCAL/MOL
REMARK 923 INTER-LIGAND FREE ENERGY PREDICTED BY IDOCK:   -5.18 KCAL/MOL
REMARK 924 INTRA-LIGAND FREE ENERGY PREDICTED BY IDOCK:   -1.01 KCAL/MOL
REMARK 927      BINDING AFFINITY PREDICTED BY RF-SCORE:    0.00 PKD
ROOT
HETATM    1  C   UNL     1      -8.062   8.025  71.868  1.00  0.00    -0.150 C  
HETATM    2  C   UNL     1      -8.019   7.486  70.428  1.00  0.00    -0.102 C  
HETATM    3  C   UNL     1      -8.123   8.369  69.390  1.00  0.00    -0.114 C  
ENDROOT
BRANCH   2   4
HETATM    4  N   UNL     1      -7.815   6.094  70.362  1.00  0.00    -0.104 N  
HETATM    5  C   UNL     1      -6.521   5.555  70.269  1.00  0.00    -0.034 C  
HETATM    6  O   UNL     1      -6.243   4.416  69.922  1.00  0.00    -0.025 OA 
BRANCH   4   7
HETATM    7  C   UNL     1      -8.893   5.213  69.864  1.00  0.00    -0.103 C  
BRANCH   7   8
HETATM    8  C   UNL     1     -10.290   5.655  70.259  1.00  0.00    -0.336 A  
HETATM    9  H2  UNL     1      -9.177   4.235  72.108  1.00  0.00     0.000 HD 
HETATM   10  C   UNL     1     -11.268   6.205  69.509  1.00  0.00    -0.411 A  
HETATM   11  N   UNL     1     -11.814   6.151  72.101  1.00  0.00    -0.318 NA 
HETATM   12  N   UNL     1     -12.374   6.904  69.958  1.00  0.00     0.112 NA 
HETATM   13  H1  UNL     1     -10.271   4.608  73.446  1.00  0.00     0.000 HD 
HETATM   14  C   UNL     1     -13.584   7.869  71.812  1.00  0.00    -0.396 C  
HETATM   15  N   UNL     1      -9.997   4.722  72.470  1.00  0.00    -0.160 NA 
HETATM   16  C   UNL     1     -12.570   6.909  71.244  1.00  0.00    -0.345 A  
HETATM   17  C   UNL     1     -10.692   5.486  71.690  1.00  0.00    -0.231 A  
ENDBRANCH   7   8
ENDBRANCH   4   7
ENDBRANCH   2   4
BRANCH   3  18
HETATM   18  C   UNL     1      -7.933   9.928  69.657  1.00  0.00    -0.166 C  
BRANCH  18  19
HETATM   19  C   UNL     1      -8.696  10.915  68.690  1.00  0.00    -0.154 C  
BRANCH  19  20
HETATM   20  O   UNL     1     -10.102  10.572  68.391  1.00  0.00    -0.155 OA 
HETATM   21  O   UNL     1     -11.372  10.202  70.175  1.00  0.00    -0.262 OA 
HETATM   22  O   UNL     1     -12.267  11.117  68.102  1.00  0.00    -0.612 OA 
HETATM   23  P   UNL     1     -11.216  11.557  69.275  1.00  0.00    -0.261 P  
HETATM   24  O   UNL     1     -12.213  12.438  70.066  1.00  0.00    -0.272 OA 
ENDBRANCH  19  20
ENDBRANCH  18  19
ENDBRANCH   3  18
BRANCH   3  25
HETATM   25  S   UNL     1      -8.437   7.927  67.647  1.00  0.00    -0.128 SA 
BRANCH  25  26
HETATM   26  C   UNL     1      -6.999   7.190  66.826  1.00  0.00    -0.073 C  
HETATM   27  O   UNL     1      -6.259   6.418  67.424  1.00  0.00    -0.029 OA 
BRANCH  26  28
HETATM   28  C   UNL     1      -6.634   7.604  65.382  1.00  0.00    -0.045 A  
HETATM   29  C   UNL     1      -5.482   7.010  63.256  1.00  0.00    -0.033 A  
HETATM   30  C   UNL     1      -5.838   6.729  64.593  1.00  0.00    -0.031 A  
HETATM   31  C   UNL     1      -7.079   8.754  64.725  1.00  0.00    -0.077 A  
HETATM   32  C   UNL     1      -5.937   8.176  62.653  1.00  0.00    -0.074 A  
HETATM   33  C   UNL     1      -6.743   9.044  63.390  1.00  0.00    -0.089 A  
ENDBRANCH  26  28
ENDBRANCH  25  26
ENDBRANCH   3  25
TORSDOF 9
ENDMDL
MODEL      386
REMARK 921   NORMALIZED FREE ENERGY PREDICTED BY IDOCK:   -3.02 KCAL/MOL
REMARK 922        TOTAL FREE ENERGY PREDICTED BY IDOCK:   -6.12 KCAL/MOL
REMARK 923 INTER-LIGAND FREE ENERGY PREDICTED BY IDOCK:   -5.88 KCAL/MOL
REMARK 924 INTRA-LIGAND FREE ENERGY PREDICTED BY IDOCK:   -0.24 KCAL/MOL
REMARK 927      BINDING AFFINITY PREDICTED BY RF-SCORE:    0.00 PKD
ROOT
HETATM    1  C   UNL     1      -9.260  11.837  66.596  1.00  0.00    -0.201 C  
HETATM    2  C   UNL     1      -9.314  11.442  68.082  1.00  0.00    -0.181 C  
HETATM    3  C   UNL     1      -8.328  10.640  68.587  1.00  0.00    -0.137 C  
ENDROOT
BRANCH   2   4
HETATM    4  N   UNL     1     -10.392  12.027  68.774  1.00  0.00    -0.198 N  
HETATM    5  C   UNL     1     -11.496  11.259  69.179  1.00  0.00    -0.297 C  
HETATM    6  O   UNL     1     -12.587  11.695  69.516  1.00  0.00    -0.028 OA 
BRANCH   4   7
HETATM    7  C   UNL     1     -10.660  13.475  68.633  1.00  0.00    -0.244 C  
BRANCH   7   8
HETATM    8  C   UNL     1     -11.245  13.872  67.290  1.00  0.00    -0.329 A  
HETATM    9  H2  UNL     1      -9.071  15.169  67.808  1.00  0.00     0.000 HD 
HETATM   10  C   UNL     1     -12.458  13.604  66.762  1.00  0.00    -0.191 A  
HETATM   11  N   UNL     1     -10.788  14.770  65.066  1.00  0.00    -0.399 NA 
HETATM   12  N   UNL     1     -12.824  13.677  65.430  1.00  0.00    -0.683 NA 
HETATM   13  H1  UNL     1      -8.732  15.805  66.194  1.00  0.00     0.000 HD 
HETATM   14  C   UNL     1     -12.172  14.049  63.135  1.00  0.00     0.558 C  
HETATM   15  N   UNL     1      -9.320  15.258  66.823  1.00  0.00    -0.228 NA 
HETATM   16  C   UNL     1     -11.949  14.194  64.618  1.00  0.00    -0.445 A  
HETATM   17  C   UNL     1     -10.383  14.675  66.369  1.00  0.00    -0.289 A  
ENDBRANCH   7   8
ENDBRANCH   4   7
ENDBRANCH   2   4
BRANCH   3  18
HETATM   18  C   UNL     1      -6.986  10.421  67.759  1.00  0.00    -0.083 C  
BRANCH  18  19
HETATM   19  C   UNL     1      -5.818  11.453  68.006  1.00  0.00    -0.042 C  
BRANCH  19  20
HETATM   20  O   UNL     1      -6.121  12.863  67.686  1.00  0.00    -0.131 OA 
HETATM   21  O   UNL     1      -7.360  13.919  69.197  1.00  0.00    -0.092 OA 
HETATM   22  O   UNL     1      -5.707  15.072  67.828  1.00  0.00    -0.203 OA 
HETATM   23  P   UNL     1      -5.739  13.927  68.996  1.00  0.00    -0.089 P  
HETATM   24  O   UNL     1      -5.397  14.879  70.167  1.00  0.00    -0.104 OA 
ENDBRANCH  19  20
ENDBRANCH  18  19
ENDBRANCH   3  18
BRANCH   3  25
HETATM   25  S   UNL     1      -8.378   9.784  70.198  1.00  0.00    -0.119 SA 
BRANCH  25  26
HETATM   26  C   UNL     1      -9.445   8.319  70.197  1.00  0.00    -0.167 C  
HETATM   27  O   UNL     1     -10.156   8.059  69.233  1.00  0.00    -0.188 OA 
BRANCH  26  28
HETATM   28  C   UNL     1      -9.542   7.428  71.456  1.00  0.00    -0.163 A  
HETATM   29  C   UNL     1      -9.265   7.244  73.924  1.00  0.00    -0.290 A  
HETATM   30  C   UNL     1      -9.179   7.974  72.718  1.00  0.00    -0.318 A  
HETATM   31  C   UNL     1     -10.030   6.120  71.495  1.00  0.00    -0.211 A  
HETATM   32  C   UNL     1      -9.744   5.939  73.907  1.00  0.00    -0.174 A  
HETATM   33  C   UNL     1     -10.133   5.382  72.688  1.00  0.00    -0.211 A  
ENDBRANCH  26  28
ENDBRANCH  25  26
ENDBRANCH   3  25
TORSDOF 9
ENDMDL
MODEL      387
REMARK 921   NORMALIZED FREE ENERGY PREDICTED BY IDOCK:   -2.98 KCAL/MOL
REMARK 922        TOTAL FREE ENERGY PREDICTED BY IDOCK:   -6.05 KCAL/MOL
REMARK 923 INTER-LIGAND FREE ENERGY PREDICTED BY IDOCK:   -4.72 KCAL/MOL
REMARK 924 INTRA-LIGAND FREE ENERGY PREDICTED BY IDOCK:   -1.33 KCAL/MOL
REMARK 927      BINDING AFFINITY PREDICTED BY RF-SCORE:    0.00 PKD
ROOT
HETATM    1  C   UNL     1      -9.388   9.850  69.881  1.00  0.00    -0.250 C  
HETATM    2  C   UNL     1      -8.546   8.622  69.499  1.00  0.00    -0.131 C  
HETATM    3  C   UNL     1      -8.205   8.437  68.188  1.00  0.00    -0.124 C  
ENDROOT
BRANCH   2   4
HETATM    4  N   UNL     1      -8.172   7.838  70.608  1.00  0.00    -0.113 N  
HETATM    5  C   UNL     1      -6.858   7.861  71.102  1.00  0.00    -0.045 C  
HETATM    6  O   UNL     1      -6.358   7.033  71.849  1.00  0.00    -0.041 OA 
BRANCH   4   7
HETATM    7  C   UNL     1      -8.941   6.620  70.944  1.00  0.00    -0.147 C  
BRANCH   7   8
HETATM    8  C   UNL     1     -10.382   6.884  71.343  1.00  0.00    -0.219 A  
HETATM    9  H2  UNL     1      -8.807   6.878  73.392  1.00  0.00     0.000 HD 
HETATM   10  C   UNL     1     -11.517   6.751  70.625  1.00  0.00    -0.351 A  
HETATM   11  N   UNL     1     -11.876   7.898  72.986  1.00  0.00    -0.184 NA 
HETATM   12  N   UNL     1     -12.748   7.320  70.894  1.00  0.00    -0.229 NA 
HETATM   13  H1  UNL     1      -9.885   7.626  74.576  1.00  0.00     0.000 HD 
HETATM   14  C   UNL     1     -14.075   8.798  72.265  1.00  0.00    -0.511 C  
HETATM   15  N   UNL     1      -9.710   7.288  73.630  1.00  0.00    -0.262 NA 
HETATM   16  C   UNL     1     -12.864   7.932  72.035  1.00  0.00    -0.263 A  
HETATM   17  C   UNL     1     -10.637   7.380  72.731  1.00  0.00    -0.297 A  
ENDBRANCH   7   8
ENDBRANCH   4   7
ENDBRANCH   2   4
BRANCH   3  18
HETATM   18  C   UNL     1      -8.368   9.636  67.153  1.00  0.00    -0.121 C  
BRANCH  18  19
HETATM   19  C   UNL     1      -9.644   9.610  66.225  1.00  0.00    -0.221 C  
BRANCH  19  20
HETATM   20  O   UNL     1      -9.533  10.345  64.949  1.00  0.00    -0.217 OA 
HETATM   21  O   UNL     1      -7.648   9.990  63.828  1.00  0.00    -0.136 OA 
HETATM   22  O   UNL     1      -9.753  10.502  62.713  1.00  0.00    -0.313 OA 
HETATM   23  P   UNL     1      -9.118   9.305  63.630  1.00  0.00     0.484 P  
HETATM   24  O   UNL     1      -8.747   8.374  62.450  1.00  0.00    -0.153 OA 
ENDBRANCH  19  20
ENDBRANCH  18  19
ENDBRANCH   3  18
BRANCH   3  25
HETATM   25  S   UNL     1      -7.521   6.902  67.474  1.00  0.00    -0.099 SA 
BRANCH  25  26
HETATM   26  C   UNL     1      -8.751   5.922  66.575  1.00  0.00    -0.126 C  
HETATM   27  O   UNL     1      -9.945   6.016  66.836  1.00  0.00    -0.146 OA 
BRANCH  26  28
HETATM   28  C   UNL     1      -8.298   4.880  65.527  1.00  0.00    -0.123 A  
HETATM   29  C   UNL     1      -8.791   3.699  63.391  1.00  0.00    -0.097 A  
HETATM   30  C   UNL     1      -9.138   4.611  64.412  1.00  0.00    -0.122 A  
HETATM   31  C   UNL     1      -7.075   4.204  65.525  1.00  0.00    -0.063 A  
HETATM   32  C   UNL     1      -7.568   3.040  63.443  1.00  0.00    -0.063 A  
HETATM   33  C   UNL     1      -6.708   3.301  64.510  1.00  0.00    -0.036 A  
ENDBRANCH  26  28
ENDBRANCH  25  26
ENDBRANCH   3  25
TORSDOF 9
ENDMDL
MODEL      388
REMARK 921   NORMALIZED FREE ENERGY PREDICTED BY IDOCK:   -2.97 KCAL/MOL
REMARK 922        TOTAL FREE ENERGY PREDICTED BY IDOCK:   -6.05 KCAL/MOL
REMARK 923 INTER-LIGAND FREE ENERGY PREDICTED BY IDOCK:   -4.68 KCAL/MOL
REMARK 924 INTRA-LIGAND FREE ENERGY PREDICTED BY IDOCK:   -1.36 KCAL/MOL
REMARK 927      BINDING AFFINITY PREDICTED BY RF-SCORE:    0.00 PKD
ROOT
HETATM    1  C   UNL     1     -10.188   7.630  66.782  1.00  0.00    -0.333 C  
HETATM    2  C   UNL     1      -9.884   6.148  67.059  1.00  0.00    -0.149 C  
HETATM    3  C   UNL     1      -9.931   5.695  68.348  1.00  0.00    -0.156 C  
ENDROOT
BRANCH   2   4
HETATM    4  N   UNL     1      -9.638   5.403  65.889  1.00  0.00    -0.134 N  
HETATM    5  C   UNL     1     -10.604   4.523  65.375  1.00  0.00    -0.162 C  
HETATM    6  O   UNL     1     -10.401   3.634  64.560  1.00  0.00    -0.199 OA 
BRANCH   4   7
HETATM    7  C   UNL     1      -8.248   5.109  65.481  1.00  0.00    -0.121 C  
BRANCH   7   8
HETATM    8  C   UNL     1      -7.536   6.272  64.815  1.00  0.00    -0.086 A  
HETATM    9  H2  UNL     1      -8.459   4.596  63.079  1.00  0.00     0.000 HD 
HETATM   10  C   UNL     1      -6.740   7.222  65.352  1.00  0.00    -0.048 A  
HETATM   11  N   UNL     1      -7.335   7.643  62.805  1.00  0.00    -0.089 NA 
HETATM   12  N   UNL     1      -6.400   8.441  64.796  1.00  0.00    -0.064 NA 
HETATM   13  H1  UNL     1      -8.328   5.595  61.627  1.00  0.00     0.000 HD 
HETATM   14  C   UNL     1      -6.675  10.029  62.998  1.00  0.00    -0.129 C  
HETATM   15  N   UNL     1      -8.203   5.477  62.633  1.00  0.00    -0.103 NA 
HETATM   16  C   UNL     1      -6.769   8.636  63.564  1.00  0.00    -0.088 A  
HETATM   17  C   UNL     1      -7.719   6.445  63.341  1.00  0.00    -0.102 A  
ENDBRANCH   7   8
ENDBRANCH   4   7
ENDBRANCH   2   4
BRANCH   3  18
HETATM   18  C   UNL     1     -10.624   6.584  69.473  1.00  0.00    -0.293 C  
BRANCH  18  19
HETATM   19  C   UNL     1     -11.240   5.819  70.708  1.00  0.00    -0.128 C  
BRANCH  19  20
HETATM   20  O   UNL     1     -12.226   6.572  71.511  1.00  0.00    -0.340 OA 
HETATM   21  O   UNL     1     -11.354   8.092  72.875  1.00  0.00    -0.408 OA 
HETATM   22  O   UNL     1     -13.560   8.350  71.874  1.00  0.00    -0.352 OA 
HETATM   23  P   UNL     1     -11.999   8.282  71.387  1.00  0.00    -0.300 P  
HETATM   24  O   UNL     1     -11.797   9.813  71.276  1.00  0.00    -0.340 OA 
ENDBRANCH  19  20
ENDBRANCH  18  19
ENDBRANCH   3  18
BRANCH   3  25
HETATM   25  S   UNL     1      -9.284   4.092  68.936  1.00  0.00    -0.159 SA 
BRANCH  25  26
HETATM   26  C   UNL     1      -7.740   4.245  69.873  1.00  0.00    -0.053 C  
HETATM   27  O   UNL     1      -6.795   4.887  69.430  1.00  0.00    -0.050 OA 
BRANCH  26  28
HETATM   28  C   UNL     1      -7.565   3.486  71.208  1.00  0.00    -0.048 A  
HETATM   29  C   UNL     1      -8.240   3.247  73.592  1.00  0.00    -0.074 A  
HETATM   30  C   UNL     1      -8.314   3.901  72.342  1.00  0.00    -0.094 A  
HETATM   31  C   UNL     1      -6.771   2.352  71.403  1.00  0.00    -0.027 A  
HETATM   32  C   UNL     1      -7.424   2.132  73.740  1.00  0.00    -0.037 A  
HETATM   33  C   UNL     1      -6.695   1.683  72.638  1.00  0.00    -0.018 A  
ENDBRANCH  26  28
ENDBRANCH  25  26
ENDBRANCH   3  25
TORSDOF 9
ENDMDL
MODEL      389
REMARK 921   NORMALIZED FREE ENERGY PREDICTED BY IDOCK:   -2.97 KCAL/MOL
REMARK 922        TOTAL FREE ENERGY PREDICTED BY IDOCK:   -6.04 KCAL/MOL
REMARK 923 INTER-LIGAND FREE ENERGY PREDICTED BY IDOCK:   -7.77 KCAL/MOL
REMARK 924 INTRA-LIGAND FREE ENERGY PREDICTED BY IDOCK:    1.73 KCAL/MOL
REMARK 927      BINDING AFFINITY PREDICTED BY RF-SCORE:    0.00 PKD
ROOT
HETATM    1  C   UNL     1      -9.491  13.011  65.174  1.00  0.00     0.321 C  
HETATM    2  C   UNL     1     -10.236  11.918  65.959  1.00  0.00    -0.229 C  
HETATM    3  C   UNL     1     -11.244  12.286  66.806  1.00  0.00    -0.318 C  
ENDROOT
BRANCH   2   4
HETATM    4  N   UNL     1      -9.800  10.616  65.648  1.00  0.00    -0.236 N  
HETATM    5  C   UNL     1      -9.231  10.321  64.398  1.00  0.00    -0.252 C  
HETATM    6  O   UNL     1      -9.088   9.205  63.921  1.00  0.00    -0.084 OA 
BRANCH   4   7
HETATM    7  C   UNL     1     -10.381   9.455  66.356  1.00  0.00    -0.167 C  
BRANCH   7   8
HETATM    8  C   UNL     1      -9.363   8.412  66.781  1.00  0.00    -0.235 A  
HETATM    9  H2  UNL     1      -8.742  10.765  67.651  1.00  0.00     0.000 HD 
HETATM   10  C   UNL     1      -9.200   7.140  66.359  1.00  0.00    -0.157 A  
HETATM   11  N   UNL     1      -7.666   7.786  68.421  1.00  0.00    -0.116 NA 
HETATM   12  N   UNL     1      -8.507   6.129  67.000  1.00  0.00    -0.105 NA 
HETATM   13  H1  UNL     1      -7.526  10.309  68.849  1.00  0.00     0.000 HD 
HETATM   14  C   UNL     1      -7.275   5.389  68.940  1.00  0.00    -0.066 C  
HETATM   15  N   UNL     1      -8.201  10.046  68.132  1.00  0.00    -0.108 NA 
HETATM   16  C   UNL     1      -7.820   6.475  68.049  1.00  0.00    -0.105 A  
HETATM   17  C   UNL     1      -8.372   8.798  67.832  1.00  0.00    -0.118 A  
ENDBRANCH   7   8
ENDBRANCH   4   7
ENDBRANCH   2   4
BRANCH   3  18
HETATM   18  C   UNL     1     -11.860  13.752  66.712  1.00  0.00    -0.454 C  
BRANCH  18  19
HETATM   19  C   UNL     1     -11.889  14.424  65.285  1.00  0.00    -0.373 C  
BRANCH  19  20
HETATM   20  O   UNL     1     -10.737  15.288  64.952  1.00  0.00    -0.419 OA 
HETATM   21  O   UNL     1     -11.216  17.448  64.760  1.00  0.00    -0.895 OA 
HETATM   22  O   UNL     1      -9.042  16.655  65.521  1.00  0.00    -0.405 OA 
HETATM   23  P   UNL     1     -10.596  16.632  66.032  1.00  0.00    -0.087 P  
HETATM   24  O   UNL     1     -10.468  17.834  66.998  1.00  0.00    -0.347 OA 
ENDBRANCH  19  20
ENDBRANCH  18  19
ENDBRANCH   3  18
BRANCH   3  25
HETATM   25  S   UNL     1     -12.015  11.216  68.068  1.00  0.00     0.218 SA 
BRANCH  25  26
HETATM   26  C   UNL     1     -11.586  11.688  69.764  1.00  0.00    -0.315 C  
HETATM   27  O   UNL     1     -10.716  11.089  70.385  1.00  0.00     0.156 OA 
BRANCH  26  28
HETATM   28  C   UNL     1     -12.385  12.799  70.485  1.00  0.00    -0.355 A  
HETATM   29  C   UNL     1     -13.820  13.436  72.417  1.00  0.00    -0.665 A  
HETATM   30  C   UNL     1     -13.091  12.479  71.677  1.00  0.00    -0.414 A  
HETATM   31  C   UNL     1     -12.429  14.145  70.112  1.00  0.00    -0.391 A  
HETATM   32  C   UNL     1     -13.846  14.760  71.996  1.00  0.00    -0.548 A  
HETATM   33  C   UNL     1     -13.141  15.112  70.844  1.00  0.00    -0.498 A  
ENDBRANCH  26  28
ENDBRANCH  25  26
ENDBRANCH   3  25
TORSDOF 9
ENDMDL
MODEL      390
REMARK 921   NORMALIZED FREE ENERGY PREDICTED BY IDOCK:   -2.90 KCAL/MOL
REMARK 922        TOTAL FREE ENERGY PREDICTED BY IDOCK:   -5.93 KCAL/MOL
REMARK 923 INTER-LIGAND FREE ENERGY PREDICTED BY IDOCK:   -7.90 KCAL/MOL
REMARK 924 INTRA-LIGAND FREE ENERGY PREDICTED BY IDOCK:    1.97 KCAL/MOL
REMARK 927      BINDING AFFINITY PREDICTED BY RF-SCORE:    0.00 PKD
ROOT
HETATM    1  C   UNL     1      -9.423  13.936  65.416  1.00  0.00     0.219 C  
HETATM    2  C   UNL     1      -9.517  14.643  66.779  1.00  0.00    -0.260 C  
HETATM    3  C   UNL     1     -10.649  15.348  67.079  1.00  0.00    -0.309 C  
ENDROOT
BRANCH   2   4
HETATM    4  N   UNL     1      -8.396  14.417  67.600  1.00  0.00    -0.165 N  
HETATM    5  C   UNL     1      -7.451  15.431  67.832  1.00  0.00    -0.140 C  
HETATM    6  O   UNL     1      -6.323  15.271  68.274  1.00  0.00    -0.098 OA 
BRANCH   4   7
HETATM    7  C   UNL     1      -7.893  13.041  67.800  1.00  0.00    -0.157 C  
BRANCH   7   8
HETATM    8  C   UNL     1      -8.935  12.067  68.318  1.00  0.00    -0.186 A  
HETATM    9  H2  UNL     1      -6.699  10.885  67.793  1.00  0.00     0.000 HD 
HETATM   10  C   UNL     1     -10.264  12.233  68.491  1.00  0.00    -0.206 A  
HETATM   11  N   UNL     1      -9.338   9.947  69.460  1.00  0.00    -0.207 NA 
HETATM   12  N   UNL     1     -11.107  11.467  69.274  1.00  0.00    -0.247 NA 
HETATM   13  H1  UNL     1      -6.985   9.356  68.634  1.00  0.00     0.000 HD 
HETATM   14  C   UNL     1     -11.369   9.665  70.860  1.00  0.00    -0.431 C  
HETATM   15  N   UNL     1      -7.302  10.286  68.357  1.00  0.00    -0.083 NA 
HETATM   16  C   UNL     1     -10.596  10.386  69.788  1.00  0.00    -0.258 A  
HETATM   17  C   UNL     1      -8.471  10.705  68.723  1.00  0.00    -0.149 A  
ENDBRANCH   7   8
ENDBRANCH   4   7
ENDBRANCH   2   4
BRANCH   3  18
HETATM   18  C   UNL     1     -11.962  15.147  66.200  1.00  0.00     0.193 C  
BRANCH  18  19
HETATM   19  C   UNL     1     -11.757  14.913  64.653  1.00  0.00    -0.404 C  
BRANCH  19  20
HETATM   20  O   UNL     1     -11.241  13.585  64.261  1.00  0.00    -0.377 OA 
HETATM   21  O   UNL     1     -12.309  11.863  65.172  1.00  0.00    -0.333 OA 
HETATM   22  O   UNL     1     -11.267  11.738  62.974  1.00  0.00    -0.189 OA 
HETATM   23  P   UNL     1     -12.497  12.538  63.696  1.00  0.00    -0.340 P  
HETATM   24  O   UNL     1     -13.620  11.600  63.190  1.00  0.00    -0.173 OA 
ENDBRANCH  19  20
ENDBRANCH  18  19
ENDBRANCH   3  18
BRANCH   3  25
HETATM   25  S   UNL     1     -10.832  16.525  68.463  1.00  0.00    -0.351 SA 
BRANCH  25  26
HETATM   26  C   UNL     1     -10.670  15.744  70.090  1.00  0.00    -0.344 C  
HETATM   27  O   UNL     1      -9.611  15.240  70.445  1.00  0.00     0.123 OA 
BRANCH  26  28
HETATM   28  C   UNL     1     -11.901  15.622  71.018  1.00  0.00    -0.442 A  
HETATM   29  C   UNL     1     -12.888  16.049  73.263  1.00  0.00    -0.649 A  
HETATM   30  C   UNL     1     -11.806  16.093  72.356  1.00  0.00    -0.637 A  
HETATM   31  C   UNL     1     -13.160  15.144  70.645  1.00  0.00    -0.385 A  
HETATM   32  C   UNL     1     -14.116  15.550  72.848  1.00  0.00    -0.268 A  
HETATM   33  C   UNL     1     -14.251  15.105  71.532  1.00  0.00    -0.647 A  
ENDBRANCH  26  28
ENDBRANCH  25  26
ENDBRANCH   3  25
TORSDOF 9
ENDMDL
MODEL      391
REMARK 921   NORMALIZED FREE ENERGY PREDICTED BY IDOCK:   -2.81 KCAL/MOL
REMARK 922        TOTAL FREE ENERGY PREDICTED BY IDOCK:   -5.80 KCAL/MOL
REMARK 923 INTER-LIGAND FREE ENERGY PREDICTED BY IDOCK:   -4.43 KCAL/MOL
REMARK 924 INTRA-LIGAND FREE ENERGY PREDICTED BY IDOCK:   -1.36 KCAL/MOL
REMARK 927      BINDING AFFINITY PREDICTED BY RF-SCORE:    0.00 PKD
ROOT
HETATM    1  C   UNL     1      -7.582  15.306  70.251  1.00  0.00     0.490 C  
HETATM    2  C   UNL     1      -8.549  14.794  69.170  1.00  0.00    -0.089 C  
HETATM    3  C   UNL     1      -9.848  14.541  69.514  1.00  0.00     0.178 C  
ENDROOT
BRANCH   2   4
HETATM    4  N   UNL     1      -7.958  14.701  67.895  1.00  0.00    -0.132 N  
HETATM    5  C   UNL     1      -7.819  15.833  67.076  1.00  0.00    -0.236 C  
HETATM    6  O   UNL     1      -7.596  15.825  65.874  1.00  0.00     0.804 OA 
BRANCH   4   7
HETATM    7  C   UNL     1      -7.957  13.409  67.175  1.00  0.00    -0.054 C  
BRANCH   7   8
HETATM    8  C   UNL     1      -7.342  12.262  67.957  1.00  0.00    -0.105 A  
HETATM    9  H2  UNL     1      -9.773  11.744  67.253  1.00  0.00     0.000 HD 
HETATM   10  C   UNL     1      -6.202  12.221  68.679  1.00  0.00    -0.067 A  
HETATM   11  N   UNL     1      -7.369   9.859  68.389  1.00  0.00    -0.077 NA 
HETATM   12  N   UNL     1      -5.505  11.095  69.077  1.00  0.00    -0.040 NA 
HETATM   13  H1  UNL     1      -9.787  10.001  67.552  1.00  0.00     0.000 HD 
HETATM   14  C   UNL     1      -5.267   8.693  69.012  1.00  0.00    -0.036 C  
HETATM   15  N   UNL     1      -9.295  10.895  67.557  1.00  0.00    -0.154 NA 
HETATM   16  C   UNL     1      -6.082   9.950  68.856  1.00  0.00    -0.041 A  
HETATM   17  C   UNL     1      -8.063  10.952  67.949  1.00  0.00    -0.113 A  
ENDBRANCH   7   8
ENDBRANCH   4   7
ENDBRANCH   2   4
BRANCH   3  18
HETATM   18  C   UNL     1     -10.424  15.095  70.891  1.00  0.00     0.197 C  
BRANCH  18  19
HETATM   19  C   UNL     1     -11.570  16.176  70.802  1.00  0.00    -0.351 C  
BRANCH  19  20
HETATM   20  O   UNL     1     -12.738  15.956  71.680  1.00  0.00    -0.451 OA 
HETATM   21  O   UNL     1     -14.187  14.443  70.943  1.00  0.00    -0.029 OA 
HETATM   22  O   UNL     1     -13.820  14.852  73.316  1.00  0.00    -0.364 OA 
HETATM   23  P   UNL     1     -12.982  14.280  72.033  1.00  0.00    -0.379 P  
HETATM   24  O   UNL     1     -13.201  12.781  72.350  1.00  0.00    -0.456 OA 
ENDBRANCH  19  20
ENDBRANCH  18  19
ENDBRANCH   3  18
BRANCH   3  25
HETATM   25  S   UNL     1     -11.055  13.621  68.499  1.00  0.00    -0.290 SA 
BRANCH  25  26
HETATM   26  C   UNL     1     -11.299  14.338  66.853  1.00  0.00    -0.343 C  
HETATM   27  O   UNL     1     -11.373  15.552  66.699  1.00  0.00    -0.197 OA 
BRANCH  26  28
HETATM   28  C   UNL     1     -11.511  13.417  65.629  1.00  0.00    -0.335 A  
HETATM   29  C   UNL     1     -13.125  12.272  64.119  1.00  0.00    -0.144 A  
HETATM   30  C   UNL     1     -12.837  13.080  65.240  1.00  0.00    -0.284 A  
HETATM   31  C   UNL     1     -10.504  12.921  64.796  1.00  0.00    -0.371 A  
HETATM   32  C   UNL     1     -12.087  11.790  63.331  1.00  0.00    -0.449 A  
HETATM   33  C   UNL     1     -10.775  12.124  63.670  1.00  0.00    -0.518 A  
ENDBRANCH  26  28
ENDBRANCH  25  26
ENDBRANCH   3  25
TORSDOF 9
ENDMDL
MODEL      392
REMARK 921   NORMALIZED FREE ENERGY PREDICTED BY IDOCK:   -2.75 KCAL/MOL
REMARK 922        TOTAL FREE ENERGY PREDICTED BY IDOCK:   -5.71 KCAL/MOL
REMARK 923 INTER-LIGAND FREE ENERGY PREDICTED BY IDOCK:   -4.83 KCAL/MOL
REMARK 924 INTRA-LIGAND FREE ENERGY PREDICTED BY IDOCK:   -0.88 KCAL/MOL
REMARK 927      BINDING AFFINITY PREDICTED BY RF-SCORE:    0.00 PKD
ROOT
HETATM    1  C   UNL     1     -10.795   5.616  71.154  1.00  0.00    -0.288 C  
HETATM    2  C   UNL     1      -9.906   6.458  70.224  1.00  0.00    -0.168 C  
HETATM    3  C   UNL     1      -9.106   7.422  70.771  1.00  0.00    -0.151 C  
ENDROOT
BRANCH   2   4
HETATM    4  N   UNL     1      -9.994   6.074  68.872  1.00  0.00    -0.145 N  
HETATM    5  C   UNL     1     -10.957   6.638  68.020  1.00  0.00    -0.249 C  
HETATM    6  O   UNL     1     -11.311   6.188  66.940  1.00  0.00    -0.199 OA 
BRANCH   4   7
HETATM    7  C   UNL     1      -9.485   4.752  68.446  1.00  0.00    -0.144 C  
BRANCH   7   8
HETATM    8  C   UNL     1      -8.182   4.808  67.669  1.00  0.00    -0.104 A  
HETATM    9  H2  UNL     1      -9.672   2.845  66.896  1.00  0.00     0.000 HD 
HETATM   10  C   UNL     1      -7.062   5.523  67.909  1.00  0.00    -0.071 A  
HETATM   11  N   UNL     1      -7.038   4.248  65.586  1.00  0.00    -0.062 NA 
HETATM   12  N   UNL     1      -6.049   5.815  67.014  1.00  0.00    -0.025 NA 
HETATM   13  H1  UNL     1      -8.853   2.450  65.380  1.00  0.00     0.000 HD 
HETATM   14  C   UNL     1      -5.203   5.701  64.756  1.00  0.00    -0.010 C  
HETATM   15  N   UNL     1      -8.927   3.022  66.222  1.00  0.00    -0.144 NA 
HETATM   16  C   UNL     1      -6.110   5.220  65.859  1.00  0.00    -0.033 A  
HETATM   17  C   UNL     1      -8.074   3.971  66.435  1.00  0.00    -0.098 A  
ENDBRANCH   7   8
ENDBRANCH   4   7
ENDBRANCH   2   4
BRANCH   3  18
HETATM   18  C   UNL     1      -8.837   7.429  72.341  1.00  0.00    -0.151 C  
BRANCH  18  19
HETATM   19  C   UNL     1      -8.009   6.221  72.928  1.00  0.00    -0.104 C  
BRANCH  19  20
HETATM   20  O   UNL     1      -6.709   6.565  73.542  1.00  0.00    -0.072 OA 
HETATM   21  O   UNL     1      -5.255   7.530  72.169  1.00  0.00    -0.035 OA 
HETATM   22  O   UNL     1      -5.303   7.999  74.559  1.00  0.00    -0.068 OA 
HETATM   23  P   UNL     1      -6.267   8.212  73.255  1.00  0.00    -0.096 P  
HETATM   24  O   UNL     1      -5.871   9.687  72.998  1.00  0.00    -0.307 OA 
ENDBRANCH  19  20
ENDBRANCH  18  19
ENDBRANCH   3  18
BRANCH   3  25
HETATM   25  S   UNL     1      -8.247   8.742  69.847  1.00  0.00    -0.125 SA 
BRANCH  25  26
HETATM   26  C   UNL     1      -9.064   9.169  68.287  1.00  0.00    -0.132 C  
HETATM   27  O   UNL     1      -8.779   8.588  67.246  1.00  0.00    -0.128 OA 
BRANCH  26  28
HETATM   28  C   UNL     1     -10.069  10.343  68.234  1.00  0.00    -0.174 A  
HETATM   29  C   UNL     1     -11.068  12.193  66.901  1.00  0.00    -0.348 A  
HETATM   30  C   UNL     1     -10.158  11.123  67.049  1.00  0.00    -0.235 A  
HETATM   31  C   UNL     1     -10.978  10.685  69.239  1.00  0.00    -0.294 A  
HETATM   32  C   UNL     1     -11.941  12.503  67.936  1.00  0.00    -0.283 A  
HETATM   33  C   UNL     1     -11.898  11.740  69.103  1.00  0.00    -0.389 A  
ENDBRANCH  26  28
ENDBRANCH  25  26
ENDBRANCH   3  25
TORSDOF 9
ENDMDL
MODEL      393
REMARK 921   NORMALIZED FREE ENERGY PREDICTED BY IDOCK:   -2.75 KCAL/MOL
REMARK 922        TOTAL FREE ENERGY PREDICTED BY IDOCK:   -5.71 KCAL/MOL
REMARK 923 INTER-LIGAND FREE ENERGY PREDICTED BY IDOCK:   -4.19 KCAL/MOL
REMARK 924 INTRA-LIGAND FREE ENERGY PREDICTED BY IDOCK:   -1.52 KCAL/MOL
REMARK 927      BINDING AFFINITY PREDICTED BY RF-SCORE:    0.00 PKD
ROOT
HETATM    1  C   UNL     1     -11.263   5.988  69.377  1.00  0.00    -0.397 C  
HETATM    2  C   UNL     1      -9.764   5.651  69.448  1.00  0.00    -0.157 C  
HETATM    3  C   UNL     1      -8.863   6.673  69.561  1.00  0.00    -0.139 C  
ENDROOT
BRANCH   2   4
HETATM    4  N   UNL     1      -9.505   4.267  69.440  1.00  0.00    -0.171 N  
HETATM    5  C   UNL     1      -8.706   3.674  70.431  1.00  0.00    -0.073 C  
HETATM    6  O   UNL     1      -8.187   2.569  70.366  1.00  0.00    -0.042 OA 
BRANCH   4   7
HETATM    7  C   UNL     1      -9.594   3.507  68.175  1.00  0.00    -0.100 C  
BRANCH   7   8
HETATM    8  C   UNL     1      -8.703   4.038  67.066  1.00  0.00    -0.116 A  
HETATM    9  H2  UNL     1     -11.207   4.259  66.469  1.00  0.00     0.000 HD 
HETATM   10  C   UNL     1      -7.371   3.907  66.889  1.00  0.00    -0.072 A  
HETATM   11  N   UNL     1      -8.518   5.567  65.172  1.00  0.00    -0.146 NA 
HETATM   12  N   UNL     1      -6.555   4.678  66.082  1.00  0.00    -0.044 NA 
HETATM   13  H1  UNL     1     -11.073   5.378  65.108  1.00  0.00     0.000 HD 
HETATM   14  C   UNL     1      -6.320   6.577  64.610  1.00  0.00    -0.038 C  
HETATM   15  N   UNL     1     -10.634   4.826  65.845  1.00  0.00    -0.301 NA 
HETATM   16  C   UNL     1      -7.153   5.529  65.301  1.00  0.00    -0.066 A  
HETATM   17  C   UNL     1      -9.347   4.847  65.986  1.00  0.00    -0.156 A  
ENDBRANCH   7   8
ENDBRANCH   4   7
ENDBRANCH   2   4
BRANCH   3  18
HETATM   18  C   UNL     1      -9.366   8.129  69.967  1.00  0.00    -0.159 C  
BRANCH  18  19
HETATM   19  C   UNL     1      -9.779   9.095  68.789  1.00  0.00    -0.162 C  
BRANCH  19  20
HETATM   20  O   UNL     1     -10.438  10.356  69.187  1.00  0.00    -0.199 OA 
HETATM   21  O   UNL     1      -9.564  12.190  68.287  1.00  0.00    -0.206 OA 
HETATM   22  O   UNL     1     -11.925  12.016  68.863  1.00  0.00    -0.297 OA 
HETATM   23  P   UNL     1     -10.870  11.326  67.821  1.00  0.00    -0.276 P  
HETATM   24  O   UNL     1     -11.257  12.194  66.599  1.00  0.00    -0.288 OA 
ENDBRANCH  19  20
ENDBRANCH  18  19
ENDBRANCH   3  18
BRANCH   3  25
HETATM   25  S   UNL     1      -7.060   6.531  69.319  1.00  0.00    -0.087 SA 
BRANCH  25  26
HETATM   26  C   UNL     1      -6.175   6.026  70.817  1.00  0.00    -0.038 C  
HETATM   27  O   UNL     1      -5.430   5.052  70.812  1.00  0.00    -0.004 OA 
BRANCH  26  28
HETATM   28  C   UNL     1      -6.423   6.766  72.152  1.00  0.00    -0.053 A  
HETATM   29  C   UNL     1      -6.397   8.925  73.392  1.00  0.00     0.042 A  
HETATM   30  C   UNL     1      -6.170   8.163  72.224  1.00  0.00    -0.056 A  
HETATM   31  C   UNL     1      -6.954   6.199  73.313  1.00  0.00    -0.080 A  
HETATM   32  C   UNL     1      -6.913   8.310  74.526  1.00  0.00    -0.206 A  
HETATM   33  C   UNL     1      -7.197   6.945  74.480  1.00  0.00    -0.102 A  
ENDBRANCH  26  28
ENDBRANCH  25  26
ENDBRANCH   3  25
TORSDOF 9
ENDMDL
MODEL      394
REMARK 921   NORMALIZED FREE ENERGY PREDICTED BY IDOCK:   -2.72 KCAL/MOL
REMARK 922        TOTAL FREE ENERGY PREDICTED BY IDOCK:   -5.66 KCAL/MOL
REMARK 923 INTER-LIGAND FREE ENERGY PREDICTED BY IDOCK:   -4.28 KCAL/MOL
REMARK 924 INTRA-LIGAND FREE ENERGY PREDICTED BY IDOCK:   -1.38 KCAL/MOL
REMARK 927      BINDING AFFINITY PREDICTED BY RF-SCORE:    0.00 PKD
ROOT
HETATM    1  C   UNL     1     -11.269   6.260  69.728  1.00  0.00    -0.499 C  
HETATM    2  C   UNL     1     -10.021   6.418  68.844  1.00  0.00    -0.147 C  
HETATM    3  C   UNL     1      -9.069   7.331  69.205  1.00  0.00    -0.138 C  
ENDROOT
BRANCH   2   4
HETATM    4  N   UNL     1      -9.993   5.524  67.756  1.00  0.00    -0.145 N  
HETATM    5  C   UNL     1     -10.739   5.775  66.594  1.00  0.00    -0.262 C  
HETATM    6  O   UNL     1     -11.016   4.956  65.730  1.00  0.00    -0.230 OA 
BRANCH   4   7
HETATM    7  C   UNL     1      -9.643   4.105  67.977  1.00  0.00    -0.142 C  
BRANCH   7   8
HETATM    8  C   UNL     1      -8.294   3.701  67.409  1.00  0.00    -0.097 A  
HETATM    9  H2  UNL     1      -8.658   2.743  69.781  1.00  0.00     0.000 HD 
HETATM   10  C   UNL     1      -7.640   4.163  66.322  1.00  0.00    -0.089 A  
HETATM   11  N   UNL     1      -6.488   2.058  67.447  1.00  0.00    -0.031 NA 
HETATM   12  N   UNL     1      -6.603   3.547  65.646  1.00  0.00    -0.036 NA 
HETATM   13  H1  UNL     1      -7.360   1.543  69.801  1.00  0.00     0.000 HD 
HETATM   14  C   UNL     1      -5.178   1.615  65.385  1.00  0.00    -0.005 C  
HETATM   15  N   UNL     1      -7.876   2.279  69.318  1.00  0.00    -0.042 NA 
HETATM   16  C   UNL     1      -6.109   2.477  66.197  1.00  0.00    -0.024 A  
HETATM   17  C   UNL     1      -7.538   2.623  68.117  1.00  0.00    -0.055 A  
ENDBRANCH   7   8
ENDBRANCH   4   7
ENDBRANCH   2   4
BRANCH   3  18
HETATM   18  C   UNL     1      -9.082   7.947  70.674  1.00  0.00    -0.153 C  
BRANCH  18  19
HETATM   19  C   UNL     1      -7.704   8.466  71.242  1.00  0.00    -0.098 C  
BRANCH  19  20
HETATM   20  O   UNL     1      -6.962   7.523  72.105  1.00  0.00    -0.061 OA 
HETATM   21  O   UNL     1      -7.133   7.919  74.283  1.00  0.00    -0.121 OA 
HETATM   22  O   UNL     1      -6.830   5.675  73.384  1.00  0.00    -0.080 OA 
HETATM   23  P   UNL     1      -7.958   6.859  73.354  1.00  0.00    -0.098 P  
HETATM   24  O   UNL     1      -8.849   6.265  74.472  1.00  0.00    -0.132 OA 
ENDBRANCH  19  20
ENDBRANCH  18  19
ENDBRANCH   3  18
BRANCH   3  25
HETATM   25  S   UNL     1      -7.704   7.919  68.145  1.00  0.00    -0.128 SA 
BRANCH  25  26
HETATM   26  C   UNL     1      -8.273   8.632  66.579  1.00  0.00    -0.107 C  
HETATM   27  O   UNL     1      -8.298   7.961  65.553  1.00  0.00    -0.135 OA 
BRANCH  26  28
HETATM   28  C   UNL     1      -8.645  10.130  66.498  1.00  0.00    -0.132 A  
HETATM   29  C   UNL     1     -10.101  11.880  65.490  1.00  0.00    -0.277 A  
HETATM   30  C   UNL     1      -9.675  10.539  65.607  1.00  0.00    -0.289 A  
HETATM   31  C   UNL     1      -8.105  11.149  67.287  1.00  0.00    -0.137 A  
HETATM   32  C   UNL     1      -9.521  12.860  66.287  1.00  0.00    -0.205 A  
HETATM   33  C   UNL     1      -8.526  12.488  67.192  1.00  0.00    -0.186 A  
ENDBRANCH  26  28
ENDBRANCH  25  26
ENDBRANCH   3  25
TORSDOF 9
ENDMDL
MODEL      395
REMARK 921   NORMALIZED FREE ENERGY PREDICTED BY IDOCK:   -2.71 KCAL/MOL
REMARK 922        TOTAL FREE ENERGY PREDICTED BY IDOCK:   -5.64 KCAL/MOL
REMARK 923 INTER-LIGAND FREE ENERGY PREDICTED BY IDOCK:   -3.72 KCAL/MOL
REMARK 924 INTRA-LIGAND FREE ENERGY PREDICTED BY IDOCK:   -1.92 KCAL/MOL
REMARK 927      BINDING AFFINITY PREDICTED BY RF-SCORE:    0.00 PKD
ROOT
HETATM    1  C   UNL     1     -10.799   5.601  71.177  1.00  0.00    -0.288 C  
HETATM    2  C   UNL     1      -9.916   6.419  70.220  1.00  0.00    -0.168 C  
HETATM    3  C   UNL     1      -9.043   7.330  70.745  1.00  0.00    -0.152 C  
ENDROOT
BRANCH   2   4
HETATM    4  N   UNL     1     -10.091   6.069  68.867  1.00  0.00    -0.162 N  
HETATM    5  C   UNL     1     -10.865   6.865  68.007  1.00  0.00    -0.200 C  
HETATM    6  O   UNL     1     -11.315   6.521  66.924  1.00  0.00    -0.330 OA 
BRANCH   4   7
HETATM    7  C   UNL     1      -9.941   4.660  68.444  1.00  0.00    -0.064 C  
BRANCH   7   8
HETATM    8  C   UNL     1      -8.673   4.378  67.658  1.00  0.00    -0.113 A  
HETATM    9  H2  UNL     1      -8.268   4.248  70.206  1.00  0.00     0.000 HD 
HETATM   10  C   UNL     1      -8.410   4.561  66.347  1.00  0.00    -0.106 A  
HETATM   11  N   UNL     1      -6.498   3.269  67.650  1.00  0.00    -0.036 NA 
HETATM   12  N   UNL     1      -7.393   3.982  65.609  1.00  0.00    -0.075 NA 
HETATM   13  H1  UNL     1      -6.700   3.431  70.200  1.00  0.00     0.000 HD 
HETATM   14  C   UNL     1      -5.550   2.425  65.516  1.00  0.00    -0.017 C  
HETATM   15  N   UNL     1      -7.492   3.828  69.694  1.00  0.00    -0.052 NA 
HETATM   16  C   UNL     1      -6.511   3.299  66.279  1.00  0.00    -0.036 A  
HETATM   17  C   UNL     1      -7.512   3.797  68.400  1.00  0.00    -0.054 A  
ENDBRANCH   7   8
ENDBRANCH   4   7
ENDBRANCH   2   4
BRANCH   3  18
HETATM   18  C   UNL     1      -8.697   7.289  72.299  1.00  0.00    -0.136 C  
BRANCH  18  19
HETATM   19  C   UNL     1      -7.793   6.095  72.797  1.00  0.00    -0.106 C  
BRANCH  19  20
HETATM   20  O   UNL     1      -6.497   6.472  73.400  1.00  0.00    -0.064 OA 
HETATM   21  O   UNL     1      -5.166   7.666  72.082  1.00  0.00    -0.035 OA 
HETATM   22  O   UNL     1      -5.154   7.900  74.507  1.00  0.00    -0.060 OA 
HETATM   23  P   UNL     1      -6.180   8.167  73.261  1.00  0.00    -0.096 P  
HETATM   24  O   UNL     1      -5.896   9.683  73.137  1.00  0.00    -0.306 OA 
ENDBRANCH  19  20
ENDBRANCH  18  19
ENDBRANCH   3  18
BRANCH   3  25
HETATM   25  S   UNL     1      -8.167   8.627  69.805  1.00  0.00    -0.125 SA 
BRANCH  25  26
HETATM   26  C   UNL     1      -7.367   8.003  68.303  1.00  0.00    -0.095 C  
HETATM   27  O   UNL     1      -6.469   7.171  68.366  1.00  0.00    -0.038 OA 
BRANCH  26  28
HETATM   28  C   UNL     1      -7.747   8.587  66.922  1.00  0.00    -0.091 A  
HETATM   29  C   UNL     1      -8.675  10.507  65.638  1.00  0.00    -0.191 A  
HETATM   30  C   UNL     1      -8.326   9.884  66.856  1.00  0.00    -0.124 A  
HETATM   31  C   UNL     1      -7.508   7.980  65.686  1.00  0.00    -0.081 A  
HETATM   32  C   UNL     1      -8.431   9.855  64.435  1.00  0.00    -0.183 A  
HETATM   33  C   UNL     1      -7.840   8.592  64.464  1.00  0.00    -0.138 A  
ENDBRANCH  26  28
ENDBRANCH  25  26
ENDBRANCH   3  25
TORSDOF 9
ENDMDL
MODEL      396
REMARK 921   NORMALIZED FREE ENERGY PREDICTED BY IDOCK:   -2.44 KCAL/MOL
REMARK 922        TOTAL FREE ENERGY PREDICTED BY IDOCK:   -5.23 KCAL/MOL
REMARK 923 INTER-LIGAND FREE ENERGY PREDICTED BY IDOCK:   -5.55 KCAL/MOL
REMARK 924 INTRA-LIGAND FREE ENERGY PREDICTED BY IDOCK:    0.32 KCAL/MOL
REMARK 927      BINDING AFFINITY PREDICTED BY RF-SCORE:    0.00 PKD
ROOT
HETATM    1  C   UNL     1      -5.519  11.321  66.345  1.00  0.00    -0.139 C  
HETATM    2  C   UNL     1      -6.476  10.119  66.434  1.00  0.00    -0.082 C  
HETATM    3  C   UNL     1      -7.494  10.154  67.346  1.00  0.00    -0.094 C  
ENDROOT
BRANCH   2   4
HETATM    4  N   UNL     1      -6.198   9.116  65.486  1.00  0.00    -0.062 N  
HETATM    5  C   UNL     1      -6.885   9.067  64.262  1.00  0.00    -0.083 C  
HETATM    6  O   UNL     1      -6.937   8.107  63.507  1.00  0.00    -0.081 OA 
BRANCH   4   7
HETATM    7  C   UNL     1      -5.610   7.831  65.921  1.00  0.00    -0.033 C  
BRANCH   7   8
HETATM    8  C   UNL     1      -6.624   6.719  66.121  1.00  0.00    -0.051 A  
HETATM    9  H2  UNL     1      -4.425   6.250  67.394  1.00  0.00     0.000 HD 
HETATM   10  C   UNL     1      -7.780   6.475  65.467  1.00  0.00    -0.097 A  
HETATM   11  N   UNL     1      -7.394   4.916  67.575  1.00  0.00    -0.077 NA 
HETATM   12  N   UNL     1      -8.829   5.681  65.893  1.00  0.00    -0.150 NA 
HETATM   13  H1  UNL     1      -4.988   4.955  68.458  1.00  0.00     0.000 HD 
HETATM   14  C   UNL     1      -9.804   4.319  67.632  1.00  0.00    -0.150 C  
HETATM   15  N   UNL     1      -5.172   5.636  67.721  1.00  0.00    -0.004 NA 
HETATM   16  C   UNL     1      -8.623   4.981  66.970  1.00  0.00    -0.105 A  
HETATM   17  C   UNL     1      -6.354   5.721  67.200  1.00  0.00    -0.042 A  
ENDBRANCH   7   8
ENDBRANCH   4   7
ENDBRANCH   2   4
BRANCH   3  18
HETATM   18  C   UNL     1      -7.891  11.533  68.036  1.00  0.00    -0.126 C  
BRANCH  18  19
HETATM   19  C   UNL     1      -8.817  12.506  67.207  1.00  0.00    -0.195 C  
BRANCH  19  20
HETATM   20  O   UNL     1      -9.419  11.940  65.982  1.00  0.00    -0.231 OA 
HETATM   21  O   UNL     1     -11.618  12.205  65.815  1.00  0.00    -0.366 OA 
HETATM   22  O   UNL     1     -10.162  12.114  63.864  1.00  0.00    -0.351 OA 
HETATM   23  P   UNL     1     -10.413  13.088  65.153  1.00  0.00    -0.321 P  
HETATM   24  O   UNL     1     -11.303  14.115  64.412  1.00  0.00    -0.361 OA 
ENDBRANCH  19  20
ENDBRANCH  18  19
ENDBRANCH   3  18
BRANCH   3  25
HETATM   25  S   UNL     1      -8.515   8.728  67.852  1.00  0.00    -0.126 SA 
BRANCH  25  26
HETATM   26  C   UNL     1     -10.295   9.061  67.779  1.00  0.00    -0.246 C  
HETATM   27  O   UNL     1     -10.919   8.927  66.732  1.00  0.00    -0.008 OA 
BRANCH  26  28
HETATM   28  C   UNL     1     -11.033   9.611  69.021  1.00  0.00    -0.161 A  
HETATM   29  C   UNL     1     -12.189  11.537  70.094  1.00  0.00    -0.387 A  
HETATM   30  C   UNL     1     -11.481  10.961  69.017  1.00  0.00    -0.371 A  
HETATM   31  C   UNL     1     -11.379   8.874  70.157  1.00  0.00    -0.119 A  
HETATM   32  C   UNL     1     -12.496  10.766  71.209  1.00  0.00    -0.504 A  
HETATM   33  C   UNL     1     -12.094   9.430  71.234  1.00  0.00    -0.424 A  
ENDBRANCH  26  28
ENDBRANCH  25  26
ENDBRANCH   3  25
TORSDOF 9
ENDMDL
MODEL      397
REMARK 921   NORMALIZED FREE ENERGY PREDICTED BY IDOCK:   -2.32 KCAL/MOL
REMARK 922        TOTAL FREE ENERGY PREDICTED BY IDOCK:   -5.06 KCAL/MOL
REMARK 923 INTER-LIGAND FREE ENERGY PREDICTED BY IDOCK:   -3.55 KCAL/MOL
REMARK 924 INTRA-LIGAND FREE ENERGY PREDICTED BY IDOCK:   -1.50 KCAL/MOL
REMARK 927      BINDING AFFINITY PREDICTED BY RF-SCORE:    0.00 PKD
ROOT
HETATM    1  C   UNL     1     -11.269   6.260  69.728  1.00  0.00    -0.499 C  
HETATM    2  C   UNL     1     -10.021   6.418  68.844  1.00  0.00    -0.147 C  
HETATM    3  C   UNL     1      -9.069   7.331  69.205  1.00  0.00    -0.138 C  
ENDROOT
BRANCH   2   4
HETATM    4  N   UNL     1      -9.993   5.524  67.756  1.00  0.00    -0.145 N  
HETATM    5  C   UNL     1     -10.739   5.775  66.594  1.00  0.00    -0.262 C  
HETATM    6  O   UNL     1     -11.016   4.956  65.730  1.00  0.00    -0.230 OA 
BRANCH   4   7
HETATM    7  C   UNL     1      -9.643   4.105  67.977  1.00  0.00    -0.142 C  
BRANCH   7   8
HETATM    8  C   UNL     1      -8.294   3.701  67.409  1.00  0.00    -0.097 A  
HETATM    9  H2  UNL     1      -8.658   2.743  69.781  1.00  0.00     0.000 HD 
HETATM   10  C   UNL     1      -7.640   4.163  66.322  1.00  0.00    -0.089 A  
HETATM   11  N   UNL     1      -6.488   2.058  67.447  1.00  0.00    -0.031 NA 
HETATM   12  N   UNL     1      -6.603   3.547  65.646  1.00  0.00    -0.036 NA 
HETATM   13  H1  UNL     1      -7.360   1.543  69.801  1.00  0.00     0.000 HD 
HETATM   14  C   UNL     1      -5.178   1.615  65.385  1.00  0.00    -0.005 C  
HETATM   15  N   UNL     1      -7.876   2.279  69.318  1.00  0.00    -0.042 NA 
HETATM   16  C   UNL     1      -6.109   2.477  66.197  1.00  0.00    -0.024 A  
HETATM   17  C   UNL     1      -7.538   2.623  68.117  1.00  0.00    -0.055 A  
ENDBRANCH   7   8
ENDBRANCH   4   7
ENDBRANCH   2   4
BRANCH   3  18
HETATM   18  C   UNL     1      -9.082   7.947  70.674  1.00  0.00    -0.153 C  
BRANCH  18  19
HETATM   19  C   UNL     1      -7.704   8.466  71.242  1.00  0.00    -0.098 C  
BRANCH  19  20
HETATM   20  O   UNL     1      -6.962   7.523  72.105  1.00  0.00    -0.061 OA 
HETATM   21  O   UNL     1      -7.133   7.919  74.283  1.00  0.00    -0.121 OA 
HETATM   22  O   UNL     1      -6.830   5.675  73.384  1.00  0.00    -0.080 OA 
HETATM   23  P   UNL     1      -7.958   6.859  73.354  1.00  0.00    -0.098 P  
HETATM   24  O   UNL     1      -8.849   6.265  74.472  1.00  0.00    -0.132 OA 
ENDBRANCH  19  20
ENDBRANCH  18  19
ENDBRANCH   3  18
BRANCH   3  25
HETATM   25  S   UNL     1      -7.704   7.919  68.145  1.00  0.00    -0.128 SA 
BRANCH  25  26
HETATM   26  C   UNL     1      -8.273   8.632  66.579  1.00  0.00    -0.107 C  
HETATM   27  O   UNL     1      -9.399   9.104  66.473  1.00  0.00    -0.163 OA 
BRANCH  26  28
HETATM   28  C   UNL     1      -7.371   8.567  65.324  1.00  0.00    -0.084 A  
HETATM   29  C   UNL     1      -6.622   9.664  63.219  1.00  0.00    -0.111 A  
HETATM   30  C   UNL     1      -7.430   9.625  64.376  1.00  0.00    -0.125 A  
HETATM   31  C   UNL     1      -6.422   7.579  65.052  1.00  0.00    -0.038 A  
HETATM   32  C   UNL     1      -5.703   8.648  62.985  1.00  0.00    -0.074 A  
HETATM   33  C   UNL     1      -5.601   7.609  63.910  1.00  0.00    -0.041 A  
ENDBRANCH  26  28
ENDBRANCH  25  26
ENDBRANCH   3  25
TORSDOF 9
ENDMDL
MODEL      398
REMARK 921   NORMALIZED FREE ENERGY PREDICTED BY IDOCK:   -2.26 KCAL/MOL
REMARK 922        TOTAL FREE ENERGY PREDICTED BY IDOCK:   -4.95 KCAL/MOL
REMARK 923 INTER-LIGAND FREE ENERGY PREDICTED BY IDOCK:   -4.17 KCAL/MOL
REMARK 924 INTRA-LIGAND FREE ENERGY PREDICTED BY IDOCK:   -0.78 KCAL/MOL
REMARK 927      BINDING AFFINITY PREDICTED BY RF-SCORE:    0.00 PKD
ROOT
HETATM    1  C   UNL     1      -9.416   7.375  66.723  1.00  0.00    -0.226 C  
HETATM    2  C   UNL     1      -8.627   6.058  66.635  1.00  0.00    -0.113 C  
HETATM    3  C   UNL     1      -8.655   5.200  67.700  1.00  0.00    -0.104 C  
ENDROOT
BRANCH   2   4
HETATM    4  N   UNL     1      -7.992   5.872  65.392  1.00  0.00    -0.113 N  
HETATM    5  C   UNL     1      -7.950   4.608  64.781  1.00  0.00    -0.096 C  
HETATM    6  O   UNL     1      -7.200   4.274  63.875  1.00  0.00    -0.049 OA 
BRANCH   4   7
HETATM    7  C   UNL     1      -6.933   6.808  64.957  1.00  0.00    -0.051 C  
BRANCH   7   8
HETATM    8  C   UNL     1      -7.445   8.170  64.525  1.00  0.00    -0.102 A  
HETATM    9  H2  UNL     1      -7.430   6.488  62.564  1.00  0.00     0.000 HD 
HETATM   10  C   UNL     1      -7.402   9.355  65.170  1.00  0.00    -0.104 A  
HETATM   11  N   UNL     1      -8.837   9.404  62.943  1.00  0.00    -0.228 NA 
HETATM   12  N   UNL     1      -8.170  10.476  64.912  1.00  0.00    -0.152 NA 
HETATM   13  H1  UNL     1      -8.451   7.375  61.425  1.00  0.00     0.000 HD 
HETATM   14  C   UNL     1      -9.965  11.496  63.661  1.00  0.00    -0.409 C  
HETATM   15  N   UNL     1      -7.991   7.308  62.334  1.00  0.00    -0.132 NA 
HETATM   16  C   UNL     1      -8.912  10.434  63.845  1.00  0.00    -0.227 A  
HETATM   17  C   UNL     1      -8.119   8.267  63.194  1.00  0.00    -0.142 A  
ENDBRANCH   7   8
ENDBRANCH   4   7
ENDBRANCH   2   4
BRANCH   3  18
HETATM   18  C   UNL     1      -9.750   5.391  68.840  1.00  0.00    -0.205 C  
BRANCH  18  19
HETATM   19  C   UNL     1      -9.692   4.392  70.060  1.00  0.00    -0.216 C  
BRANCH  19  20
HETATM   20  O   UNL     1     -10.251   4.891  71.333  1.00  0.00    -0.201 OA 
HETATM   21  O   UNL     1      -9.592   6.934  71.905  1.00  0.00    -0.156 OA 
HETATM   22  O   UNL     1     -11.773   6.044  72.525  1.00  0.00    -0.292 OA 
HETATM   23  P   UNL     1     -10.967   6.456  71.163  1.00  0.00    -0.301 P  
HETATM   24  O   UNL     1     -11.608   7.857  71.011  1.00  0.00    -0.280 OA 
ENDBRANCH  19  20
ENDBRANCH  18  19
ENDBRANCH   3  18
BRANCH   3  25
HETATM   25  S   UNL     1      -7.540   3.776  67.946  1.00  0.00    -0.066 SA 
BRANCH  25  26
HETATM   26  C   UNL     1      -6.230   4.094  69.157  1.00  0.00    -0.028 C  
HETATM   27  O   UNL     1      -5.556   3.177  69.613  1.00  0.00    -0.016 OA 
BRANCH  26  28
HETATM   28  C   UNL     1      -6.009   5.524  69.703  1.00  0.00    -0.017 A  
HETATM   29  C   UNL     1      -5.551   7.918  69.194  1.00  0.00    -0.033 A  
HETATM   30  C   UNL     1      -5.736   6.578  68.788  1.00  0.00    -0.017 A  
HETATM   31  C   UNL     1      -6.121   5.913  71.040  1.00  0.00    -0.034 A  
HETATM   32  C   UNL     1      -5.658   8.251  70.539  1.00  0.00    -0.028 A  
HETATM   33  C   UNL     1      -5.951   7.245  71.460  1.00  0.00    -0.036 A  
ENDBRANCH  26  28
ENDBRANCH  25  26
ENDBRANCH   3  25
TORSDOF 9
ENDMDL
MODEL      399
REMARK 921   NORMALIZED FREE ENERGY PREDICTED BY IDOCK:   -2.09 KCAL/MOL
REMARK 922        TOTAL FREE ENERGY PREDICTED BY IDOCK:   -4.70 KCAL/MOL
REMARK 923 INTER-LIGAND FREE ENERGY PREDICTED BY IDOCK:   -5.65 KCAL/MOL
REMARK 924 INTRA-LIGAND FREE ENERGY PREDICTED BY IDOCK:    0.95 KCAL/MOL
REMARK 927      BINDING AFFINITY PREDICTED BY RF-SCORE:    0.00 PKD
ROOT
HETATM    1  C   UNL     1     -10.563  11.390  68.589  1.00  0.00    -0.229 C  
HETATM    2  C   UNL     1      -9.407  12.373  68.337  1.00  0.00    -0.158 C  
HETATM    3  C   UNL     1      -9.699  13.636  67.900  1.00  0.00    -0.234 C  
ENDROOT
BRANCH   2   4
HETATM    4  N   UNL     1      -8.144  11.839  68.655  1.00  0.00    -0.135 N  
HETATM    5  C   UNL     1      -6.985  12.629  68.587  1.00  0.00    -0.091 C  
HETATM    6  O   UNL     1      -5.836  12.214  68.557  1.00  0.00    -0.052 OA 
BRANCH   4   7
HETATM    7  C   UNL     1      -7.911  10.382  68.549  1.00  0.00    -0.114 C  
BRANCH   7   8
HETATM    8  C   UNL     1      -7.592   9.904  67.144  1.00  0.00    -0.092 A  
HETATM    9  H2  UNL     1      -6.865   8.183  68.929  1.00  0.00     0.000 HD 
HETATM   10  C   UNL     1      -7.603  10.582  65.977  1.00  0.00    -0.140 A  
HETATM   11  N   UNL     1      -7.220   7.975  65.695  1.00  0.00    -0.070 NA 
HETATM   12  N   UNL     1      -7.650  10.048  64.701  1.00  0.00    -0.140 NA 
HETATM   13  H1  UNL     1      -6.612   6.782  67.881  1.00  0.00     0.000 HD 
HETATM   14  C   UNL     1      -7.841   8.096  63.294  1.00  0.00    -0.149 C  
HETATM   15  N   UNL     1      -6.872   7.762  68.000  1.00  0.00    -0.069 NA 
HETATM   16  C   UNL     1      -7.525   8.757  64.611  1.00  0.00    -0.104 A  
HETATM   17  C   UNL     1      -7.210   8.469  66.970  1.00  0.00    -0.079 A  
ENDBRANCH   7   8
ENDBRANCH   4   7
ENDBRANCH   2   4
BRANCH   3  18
HETATM   18  C   UNL     1     -11.193  14.179  67.993  1.00  0.00    -0.302 C  
BRANCH  18  19
HETATM   19  C   UNL     1     -12.238  13.268  68.747  1.00  0.00    -0.089 C  
BRANCH  19  20
HETATM   20  O   UNL     1     -12.877  13.865  69.938  1.00  0.00    -0.113 OA 
HETATM   21  O   UNL     1     -11.474  14.440  71.561  1.00  0.00    -0.053 OA 
HETATM   22  O   UNL     1     -13.562  15.628  71.159  1.00  0.00    -0.582 OA 
HETATM   23  P   UNL     1     -12.142  15.364  70.391  1.00  0.00    -0.415 P  
HETATM   24  O   UNL     1     -11.485  16.706  70.797  1.00  0.00    -0.190 OA 
ENDBRANCH  19  20
ENDBRANCH  18  19
ENDBRANCH   3  18
BRANCH   3  25
HETATM   25  S   UNL     1      -8.496  14.829  67.221  1.00  0.00    -0.225 SA 
BRANCH  25  26
HETATM   26  C   UNL     1      -8.186  16.236  68.320  1.00  0.00    -0.173 C  
HETATM   27  O   UNL     1      -8.423  16.161  69.521  1.00  0.00    -0.166 OA 
BRANCH  26  28
HETATM   28  C   UNL     1      -7.706  17.585  67.738  1.00  0.00    -0.209 A  
HETATM   29  C   UNL     1      -7.994  19.342  65.997  1.00  0.00    -0.257 A  
HETATM   30  C   UNL     1      -8.346  18.104  66.579  1.00  0.00    -0.288 A  
HETATM   31  C   UNL     1      -6.722  18.408  68.291  1.00  0.00    -0.229 A  
HETATM   32  C   UNL     1      -6.997  20.117  66.577  1.00  0.00    -0.268 A  
HETATM   33  C   UNL     1      -6.367  19.649  67.730  1.00  0.00    -0.236 A  
ENDBRANCH  26  28
ENDBRANCH  25  26
ENDBRANCH   3  25
TORSDOF 9
ENDMDL
MODEL      400
REMARK 921   NORMALIZED FREE ENERGY PREDICTED BY IDOCK:   -1.81 KCAL/MOL
REMARK 922        TOTAL FREE ENERGY PREDICTED BY IDOCK:   -4.28 KCAL/MOL
REMARK 923 INTER-LIGAND FREE ENERGY PREDICTED BY IDOCK:   -3.90 KCAL/MOL
REMARK 924 INTRA-LIGAND FREE ENERGY PREDICTED BY IDOCK:   -0.38 KCAL/MOL
REMARK 927      BINDING AFFINITY PREDICTED BY RF-SCORE:    0.00 PKD
ROOT
HETATM    1  C   UNL     1      -9.876   6.495  71.140  1.00  0.00    -0.198 C  
HETATM    2  C   UNL     1      -8.859   6.889  70.056  1.00  0.00    -0.142 C  
HETATM    3  C   UNL     1      -8.085   8.000  70.250  1.00  0.00    -0.113 C  
ENDROOT
BRANCH   2   4
HETATM    4  N   UNL     1      -8.816   5.983  68.979  1.00  0.00    -0.121 N  
HETATM    5  C   UNL     1      -9.793   4.985  68.833  1.00  0.00    -0.175 C  
HETATM    6  O   UNL     1      -9.701   3.990  68.128  1.00  0.00    -0.149 OA 
BRANCH   4   7
HETATM    7  C   UNL     1      -7.531   5.700  68.303  1.00  0.00    -0.077 C  
BRANCH   7   8
HETATM    8  C   UNL     1      -7.455   6.207  66.875  1.00  0.00    -0.087 A  
HETATM    9  H2  UNL     1      -5.295   4.971  67.568  1.00  0.00     0.000 HD 
HETATM   10  C   UNL     1      -8.258   7.073  66.220  1.00  0.00    -0.120 A  
HETATM   11  N   UNL     1      -6.453   5.908  64.668  1.00  0.00    -0.037 NA 
HETATM   12  N   UNL     1      -8.367   7.241  64.852  1.00  0.00    -0.072 NA 
HETATM   13  H1  UNL     1      -4.578   4.740  65.968  1.00  0.00     0.000 HD 
HETATM   14  C   UNL     1      -7.739   6.519  62.634  1.00  0.00    -0.096 C  
HETATM   15  N   UNL     1      -5.335   5.092  66.556  1.00  0.00    -0.008 NA 
HETATM   16  C   UNL     1      -7.504   6.598  64.120  1.00  0.00    -0.097 A  
HETATM   17  C   UNL     1      -6.346   5.692  66.015  1.00  0.00    -0.039 A  
ENDBRANCH   7   8
ENDBRANCH   4   7
ENDBRANCH   2   4
BRANCH   3  18
HETATM   18  C   UNL     1      -7.988   8.652  71.700  1.00  0.00    -0.166 C  
BRANCH  18  19
HETATM   19  C   UNL     1      -7.013   7.960  72.729  1.00  0.00    -0.083 C  
BRANCH  19  20
HETATM   20  O   UNL     1      -6.126   6.914  72.180  1.00  0.00    -0.038 OA 
HETATM   21  O   UNL     1      -5.200   5.583  73.698  1.00  0.00    -0.021 OA 
HETATM   22  O   UNL     1      -5.727   4.824  71.443  1.00  0.00    -0.011 OA 
HETATM   23  P   UNL     1      -6.526   5.340  72.775  1.00  0.00    -0.064 P  
HETATM   24  O   UNL     1      -6.884   3.930  73.306  1.00  0.00    -0.047 OA 
ENDBRANCH  19  20
ENDBRANCH  18  19
ENDBRANCH   3  18
BRANCH   3  25
HETATM   25  S   UNL     1      -7.081   8.831  68.972  1.00  0.00    -0.065 SA 
BRANCH  25  26
HETATM   26  C   UNL     1      -7.749  10.440  68.473  1.00  0.00    -0.101 C  
HETATM   27  O   UNL     1      -7.019  11.308  68.007  1.00  0.00    -0.066 OA 
BRANCH  26  28
HETATM   28  C   UNL     1      -9.239  10.772  68.719  1.00  0.00    -0.192 A  
HETATM   29  C   UNL     1     -11.332  11.799  67.847  1.00  0.00    -0.362 A  
HETATM   30  C   UNL     1      -9.962  11.481  67.721  1.00  0.00    -0.195 A  
HETATM   31  C   UNL     1      -9.991  10.373  69.827  1.00  0.00    -0.167 A  
HETATM   32  C   UNL     1     -12.033  11.393  68.976  1.00  0.00    -0.387 A  
HETATM   33  C   UNL     1     -11.359  10.673  69.962  1.00  0.00    -0.400 A  
ENDBRANCH  26  28
ENDBRANCH  25  26
ENDBRANCH   3  25
TORSDOF 9
ENDMDL
MODEL      401
REMARK 921   NORMALIZED FREE ENERGY PREDICTED BY IDOCK:   -1.72 KCAL/MOL
REMARK 922        TOTAL FREE ENERGY PREDICTED BY IDOCK:   -4.14 KCAL/MOL
REMARK 923 INTER-LIGAND FREE ENERGY PREDICTED BY IDOCK:   -3.05 KCAL/MOL
REMARK 924 INTRA-LIGAND FREE ENERGY PREDICTED BY IDOCK:   -1.09 KCAL/MOL
REMARK 927      BINDING AFFINITY PREDICTED BY RF-SCORE:    0.00 PKD
ROOT
HETATM    1  C   UNL     1      -9.905   6.357  71.230  1.00  0.00    -0.200 C  
HETATM    2  C   UNL     1      -8.908   6.307  70.060  1.00  0.00    -0.142 C  
HETATM    3  C   UNL     1      -8.159   7.418  69.785  1.00  0.00    -0.127 C  
ENDROOT
BRANCH   2   4
HETATM    4  N   UNL     1      -8.854   5.049  69.429  1.00  0.00    -0.090 N  
HETATM    5  C   UNL     1      -9.777   4.040  69.746  1.00  0.00    -0.184 C  
HETATM    6  O   UNL     1      -9.655   2.851  69.488  1.00  0.00    -0.122 OA 
BRANCH   4   7
HETATM    7  C   UNL     1      -7.581   4.569  68.850  1.00  0.00    -0.060 C  
BRANCH   7   8
HETATM    8  C   UNL     1      -7.660   4.223  67.374  1.00  0.00    -0.077 A  
HETATM    9  H2  UNL     1      -5.270   3.907  68.304  1.00  0.00     0.000 HD 
HETATM   10  C   UNL     1      -8.645   4.461  66.482  1.00  0.00    -0.112 A  
HETATM   11  N   UNL     1      -6.697   2.930  65.541  1.00  0.00    -0.039 NA 
HETATM   12  N   UNL     1      -8.835   3.839  65.261  1.00  0.00    -0.116 NA 
HETATM   13  H1  UNL     1      -4.579   2.957  66.983  1.00  0.00     0.000 HD 
HETATM   14  C   UNL     1      -8.153   2.135  63.693  1.00  0.00    -0.076 C  
HETATM   15  N   UNL     1      -5.370   3.451  67.396  1.00  0.00    -0.015 NA 
HETATM   16  C   UNL     1      -7.886   3.043  64.865  1.00  0.00    -0.082 A  
HETATM   17  C   UNL     1      -6.500   3.499  66.768  1.00  0.00    -0.040 A  
ENDBRANCH   7   8
ENDBRANCH   4   7
ENDBRANCH   2   4
BRANCH   3  18
HETATM   18  C   UNL     1      -8.064   8.592  70.856  1.00  0.00    -0.155 C  
BRANCH  18  19
HETATM   19  C   UNL     1      -7.050   8.391  72.048  1.00  0.00    -0.093 C  
BRANCH  19  20
HETATM   20  O   UNL     1      -6.136   7.236  71.933  1.00  0.00    -0.037 OA 
HETATM   21  O   UNL     1      -5.137   6.644  73.826  1.00  0.00    -0.039 OA 
HETATM   22  O   UNL     1      -5.675   5.037  72.076  1.00  0.00    -0.014 OA 
HETATM   23  P   UNL     1      -6.469   6.019  73.116  1.00  0.00    -0.070 P  
HETATM   24  O   UNL     1      -6.767   4.929  74.175  1.00  0.00    -0.066 OA 
ENDBRANCH  19  20
ENDBRANCH  18  19
ENDBRANCH   3  18
BRANCH   3  25
HETATM   25  S   UNL     1      -7.187   7.693  68.265  1.00  0.00    -0.095 SA 
BRANCH  25  26
HETATM   26  C   UNL     1      -7.980   8.838  67.106  1.00  0.00    -0.096 C  
HETATM   27  O   UNL     1      -8.626   9.798  67.511  1.00  0.00    -0.125 OA 
BRANCH  26  28
HETATM   28  C   UNL     1      -7.929   8.563  65.585  1.00  0.00    -0.107 A  
HETATM   29  C   UNL     1      -7.206   7.044  63.750  1.00  0.00    -0.067 A  
HETATM   30  C   UNL     1      -7.274   7.391  65.117  1.00  0.00    -0.066 A  
HETATM   31  C   UNL     1      -8.541   9.336  64.595  1.00  0.00    -0.209 A  
HETATM   32  C   UNL     1      -7.818   7.856  62.802  1.00  0.00    -0.143 A  
HETATM   33  C   UNL     1      -8.492   9.000  63.231  1.00  0.00    -0.180 A  
ENDBRANCH  26  28
ENDBRANCH  25  26
ENDBRANCH   3  25
TORSDOF 9
ENDMDL
MODEL      402
REMARK 921   NORMALIZED FREE ENERGY PREDICTED BY IDOCK:   -0.21 KCAL/MOL
REMARK 922        TOTAL FREE ENERGY PREDICTED BY IDOCK:   -1.83 KCAL/MOL
REMARK 923 INTER-LIGAND FREE ENERGY PREDICTED BY IDOCK:   -4.12 KCAL/MOL
REMARK 924 INTRA-LIGAND FREE ENERGY PREDICTED BY IDOCK:    2.29 KCAL/MOL
REMARK 927      BINDING AFFINITY PREDICTED BY RF-SCORE:    0.00 PKD
ROOT
HETATM    1  C   UNL     1     -12.450  11.406  67.529  1.00  0.00     1.804 C  
HETATM    2  C   UNL     1     -11.031  11.860  67.909  1.00  0.00    -0.222 C  
HETATM    3  C   UNL     1     -10.589  13.078  67.473  1.00  0.00    -0.230 C  
ENDROOT
BRANCH   2   4
HETATM    4  N   UNL     1     -10.358  10.943  68.740  1.00  0.00    -0.189 N  
HETATM    5  C   UNL     1      -9.871   9.728  68.233  1.00  0.00    -0.148 C  
HETATM    6  O   UNL     1      -9.541   8.756  68.895  1.00  0.00    -0.155 OA 
BRANCH   4   7
HETATM    7  C   UNL     1     -10.599  10.956  70.199  1.00  0.00     0.240 C  
BRANCH   7   8
HETATM    8  C   UNL     1     -11.598  12.004  70.656  1.00  0.00     0.328 A  
HETATM    9  H2  UNL     1     -12.583   9.619  70.792  1.00  0.00     0.000 HD 
HETATM   10  C   UNL     1     -11.561  13.347  70.531  1.00  0.00     0.135 A  
HETATM   11  N   UNL     1     -13.558  12.470  72.034  1.00  0.00    -0.387 NA 
HETATM   12  N   UNL     1     -12.294  14.275  71.249  1.00  0.00    -0.348 NA 
HETATM   13  H1  UNL     1     -13.993   9.955  71.803  1.00  0.00     0.000 HD 
HETATM   14  C   UNL     1     -13.860  14.724  73.031  1.00  0.00    -0.067 C  
HETATM   15  N   UNL     1     -13.157  10.279  71.317  1.00  0.00    -0.391 NA 
HETATM   16  C   UNL     1     -13.221  13.799  72.027  1.00  0.00    -0.432 A  
HETATM   17  C   UNL     1     -12.824  11.528  71.368  1.00  0.00    -0.384 A  
ENDBRANCH   7   8
ENDBRANCH   4   7
ENDBRANCH   2   4
BRANCH   3  18
HETATM   18  C   UNL     1     -11.631  14.137  66.899  1.00  0.00    -0.410 C  
BRANCH  18  19
HETATM   19  C   UNL     1     -12.844  13.567  66.066  1.00  0.00    -0.106 C  
BRANCH  19  20
HETATM   20  O   UNL     1     -12.536  12.436  65.166  1.00  0.00    -0.622 OA 
HETATM   21  O   UNL     1     -11.991  13.014  63.092  1.00  0.00    -0.534 OA 
HETATM   22  O   UNL     1     -11.101  11.017  64.167  1.00  0.00    -0.244 OA 
HETATM   23  P   UNL     1     -11.023  12.640  64.354  1.00  0.00    -0.412 P  
HETATM   24  O   UNL     1      -9.668  12.823  63.627  1.00  0.00    -0.169 OA 
ENDBRANCH  19  20
ENDBRANCH  18  19
ENDBRANCH   3  18
BRANCH   3  25
HETATM   25  S   UNL     1      -8.858  13.657  67.512  1.00  0.00    -0.218 SA 
BRANCH  25  26
HETATM   26  C   UNL     1      -7.657  12.308  67.658  1.00  0.00    -0.144 C  
HETATM   27  O   UNL     1      -7.547  11.464  66.776  1.00  0.00    -0.145 OA 
BRANCH  26  28
HETATM   28  C   UNL     1      -6.818  12.153  68.947  1.00  0.00    -0.100 A  
HETATM   29  C   UNL     1      -5.839  10.614  70.642  1.00  0.00    -0.112 A  
HETATM   30  C   UNL     1      -6.616  10.853  69.487  1.00  0.00    -0.109 A  
HETATM   31  C   UNL     1      -6.157  13.184  69.619  1.00  0.00    -0.120 A  
HETATM   32  C   UNL     1      -5.214  11.677  71.284  1.00  0.00    -0.061 A  
HETATM   33  C   UNL     1      -5.370  12.962  70.764  1.00  0.00    -0.166 A  
ENDBRANCH  26  28
ENDBRANCH  25  26
ENDBRANCH   3  25
TORSDOF 9
ENDMDL
MODEL      403
REMARK 921   NORMALIZED FREE ENERGY PREDICTED BY IDOCK:    0.07 KCAL/MOL
REMARK 922        TOTAL FREE ENERGY PREDICTED BY IDOCK:   -1.41 KCAL/MOL
REMARK 923 INTER-LIGAND FREE ENERGY PREDICTED BY IDOCK:   -3.35 KCAL/MOL
REMARK 924 INTRA-LIGAND FREE ENERGY PREDICTED BY IDOCK:    1.94 KCAL/MOL
REMARK 927      BINDING AFFINITY PREDICTED BY RF-SCORE:    0.00 PKD
ROOT
HETATM    1  C   UNL     1      -8.256   9.377  64.554  1.00  0.00    -0.147 C  
HETATM    2  C   UNL     1      -8.618   8.043  65.228  1.00  0.00    -0.086 C  
HETATM    3  C   UNL     1      -9.432   8.059  66.327  1.00  0.00    -0.172 C  
ENDROOT
BRANCH   2   4
HETATM    4  N   UNL     1      -8.084   6.922  64.564  1.00  0.00    -0.106 N  
HETATM    5  C   UNL     1      -8.875   6.147  63.700  1.00  0.00     0.619 C  
HETATM    6  O   UNL     1      -8.613   5.019  63.308  1.00  0.00    -0.131 OA 
BRANCH   4   7
HETATM    7  C   UNL     1      -6.907   6.224  65.124  1.00  0.00    -0.047 C  
BRANCH   7   8
HETATM    8  C   UNL     1      -7.249   5.112  66.099  1.00  0.00    -0.073 A  
HETATM    9  H2  UNL     1      -5.314   6.585  66.970  1.00  0.00     0.000 HD 
HETATM   10  C   UNL     1      -8.024   4.020  65.928  1.00  0.00    -0.094 A  
HETATM   11  N   UNL     1      -7.216   4.375  68.426  1.00  0.00    -0.059 NA 
HETATM   12  N   UNL     1      -8.587   3.231  66.915  1.00  0.00    -0.109 NA 
HETATM   13  H1  UNL     1      -5.301   6.063  68.659  1.00  0.00     0.000 HD 
HETATM   14  C   UNL     1      -8.990   2.853  69.265  1.00  0.00    -0.175 C  
HETATM   15  N   UNL     1      -5.693   6.005  67.719  1.00  0.00    -0.012 NA 
HETATM   16  C   UNL     1      -8.215   3.482  68.136  1.00  0.00    -0.082 A  
HETATM   17  C   UNL     1      -6.674   5.196  67.476  1.00  0.00    -0.055 A  
ENDBRANCH   7   8
ENDBRANCH   4   7
ENDBRANCH   2   4
BRANCH   3  18
HETATM   18  C   UNL     1     -10.261   9.372  66.677  1.00  0.00    -0.319 C  
BRANCH  18  19
HETATM   19  C   UNL     1      -9.786  10.717  66.003  1.00  0.00    -0.217 C  
BRANCH  19  20
HETATM   20  O   UNL     1     -10.800  11.787  65.907  1.00  0.00    -0.274 OA 
HETATM   21  O   UNL     1     -10.103  13.647  64.913  1.00  0.00    -0.343 OA 
HETATM   22  O   UNL     1     -12.421  12.904  64.814  1.00  0.00    -0.468 OA 
HETATM   23  P   UNL     1     -10.955  12.398  64.296  1.00  0.00    -0.425 P  
HETATM   24  O   UNL     1     -11.093  12.944  62.854  1.00  0.00     0.308 OA 
ENDBRANCH  19  20
ENDBRANCH  18  19
ENDBRANCH   3  18
BRANCH   3  25
HETATM   25  S   UNL     1      -9.705   6.659  67.466  1.00  0.00    -0.132 SA 
BRANCH  25  26
HETATM   26  C   UNL     1     -10.497   7.147  69.021  1.00  0.00    -0.211 C  
HETATM   27  O   UNL     1     -11.633   7.607  69.033  1.00  0.00     0.512 OA 
BRANCH  26  28
HETATM   28  C   UNL     1      -9.708   7.075  70.349  1.00  0.00    -0.178 A  
HETATM   29  C   UNL     1      -9.561   7.746  72.742  1.00  0.00    -0.281 A  
HETATM   30  C   UNL     1     -10.199   7.780  71.483  1.00  0.00    -0.216 A  
HETATM   31  C   UNL     1      -8.563   6.307  70.578  1.00  0.00    -0.139 A  
HETATM   32  C   UNL     1      -8.416   6.979  72.915  1.00  0.00    -0.130 A  
HETATM   33  C   UNL     1      -7.923   6.253  71.829  1.00  0.00    -0.102 A  
ENDBRANCH  26  28
ENDBRANCH  25  26
ENDBRANCH   3  25
TORSDOF 9
ENDMDL
MODEL      404
REMARK 921   NORMALIZED FREE ENERGY PREDICTED BY IDOCK:    0.10 KCAL/MOL
REMARK 922        TOTAL FREE ENERGY PREDICTED BY IDOCK:   -1.35 KCAL/MOL
REMARK 923 INTER-LIGAND FREE ENERGY PREDICTED BY IDOCK:   -2.73 KCAL/MOL
REMARK 924 INTRA-LIGAND FREE ENERGY PREDICTED BY IDOCK:    1.38 KCAL/MOL
REMARK 927      BINDING AFFINITY PREDICTED BY RF-SCORE:    0.00 PKD
ROOT
HETATM    1  C   UNL     1      -9.523   7.401  70.846  1.00  0.00    -0.165 C  
HETATM    2  C   UNL     1      -8.521   7.181  69.701  1.00  0.00    -0.134 C  
HETATM    3  C   UNL     1      -7.485   8.061  69.553  1.00  0.00    -0.092 C  
ENDROOT
BRANCH   2   4
HETATM    4  N   UNL     1      -8.780   6.018  68.950  1.00  0.00    -0.121 N  
HETATM    5  C   UNL     1     -10.000   5.333  69.075  1.00  0.00    -0.189 C  
HETATM    6  O   UNL     1     -10.219   4.188  68.708  1.00  0.00     0.131 OA 
BRANCH   4   7
HETATM    7  C   UNL     1      -7.657   5.201  68.443  1.00  0.00    -0.079 C  
BRANCH   7   8
HETATM    8  C   UNL     1      -7.421   5.328  66.949  1.00  0.00    -0.088 A  
HETATM    9  H2  UNL     1      -9.848   5.939  67.589  1.00  0.00     0.000 HD 
HETATM   10  C   UNL     1      -6.385   4.898  66.197  1.00  0.00    -0.036 A  
HETATM   11  N   UNL     1      -8.110   6.412  64.872  1.00  0.00    -0.124 NA 
HETATM   12  N   UNL     1      -6.039   5.325  64.928  1.00  0.00    -0.025 NA 
HETATM   13  H1  UNL     1     -10.341   6.738  66.091  1.00  0.00     0.000 HD 
HETATM   14  C   UNL     1      -6.438   6.833  63.085  1.00  0.00    -0.043 C  
HETATM   15  N   UNL     1      -9.633   6.253  66.643  1.00  0.00    -0.155 NA 
HETATM   16  C   UNL     1      -6.881   6.122  64.337  1.00  0.00    -0.046 A  
HETATM   17  C   UNL     1      -8.460   6.037  66.140  1.00  0.00    -0.134 A  
ENDBRANCH   7   8
ENDBRANCH   4   7
ENDBRANCH   2   4
BRANCH   3  18
HETATM   18  C   UNL     1      -7.126   9.065  70.737  1.00  0.00    -0.092 C  
BRANCH  18  19
HETATM   19  C   UNL     1      -6.059   8.573  71.790  1.00  0.00    -0.058 C  
BRANCH  19  20
HETATM   20  O   UNL     1      -5.534   7.207  71.591  1.00  0.00    -0.035 OA 
HETATM   21  O   UNL     1      -5.182   6.061  73.461  1.00  0.00    -0.029 OA 
HETATM   22  O   UNL     1      -5.801   4.983  71.366  1.00  0.00    -0.012 OA 
HETATM   23  P   UNL     1      -6.460   6.021  72.445  1.00  0.00    -0.061 P  
HETATM   24  O   UNL     1      -7.289   4.959  73.208  1.00  0.00    -0.083 OA 
ENDBRANCH  19  20
ENDBRANCH  18  19
ENDBRANCH   3  18
BRANCH   3  25
HETATM   25  S   UNL     1      -6.401   8.190  68.090  1.00  0.00    -0.056 SA 
BRANCH  25  26
HETATM   26  C   UNL     1      -6.927   9.471  66.922  1.00  0.00    -0.081 C  
HETATM   27  O   UNL     1      -6.870   9.283  65.712  1.00  0.00    -0.081 OA 
BRANCH  26  28
HETATM   28  C   UNL     1      -7.368  10.860  67.439  1.00  0.00    -0.099 A  
HETATM   29  C   UNL     1      -6.838  13.282  67.665  1.00  0.00    -0.168 A  
HETATM   30  C   UNL     1      -6.503  11.973  67.252  1.00  0.00    -0.149 A  
HETATM   31  C   UNL     1      -8.599  11.157  68.030  1.00  0.00    -0.140 A  
HETATM   32  C   UNL     1      -8.069  13.523  68.262  1.00  0.00    -0.155 A  
HETATM   33  C   UNL     1      -8.952  12.457  68.436  1.00  0.00    -0.133 A  
ENDBRANCH  26  28
ENDBRANCH  25  26
ENDBRANCH   3  25
TORSDOF 9
ENDMDL
MODEL      405
REMARK 921   NORMALIZED FREE ENERGY PREDICTED BY IDOCK:    4.95 KCAL/MOL
REMARK 922        TOTAL FREE ENERGY PREDICTED BY IDOCK:    6.05 KCAL/MOL
REMARK 923 INTER-LIGAND FREE ENERGY PREDICTED BY IDOCK:    1.44 KCAL/MOL
REMARK 924 INTRA-LIGAND FREE ENERGY PREDICTED BY IDOCK:    4.61 KCAL/MOL
REMARK 927      BINDING AFFINITY PREDICTED BY RF-SCORE:    0.00 PKD
ROOT
HETATM    1  C   UNL     1      -8.346   8.595  72.714  1.00  0.00    -0.022 C  
HETATM    2  C   UNL     1      -7.994   7.560  71.631  1.00  0.00    -0.090 C  
HETATM    3  C   UNL     1      -8.106   7.917  70.316  1.00  0.00    -0.115 C  
ENDROOT
BRANCH   2   4
HETATM    4  N   UNL     1      -7.529   6.340  72.159  1.00  0.00    -0.093 N  
HETATM    5  C   UNL     1      -6.282   6.256  72.800  1.00  0.00    -0.054 C  
HETATM    6  O   UNL     1      -5.664   5.228  73.031  1.00  0.00    -0.021 OA 
BRANCH   4   7
HETATM    7  C   UNL     1      -8.039   5.061  71.620  1.00  0.00    -0.114 C  
BRANCH   7   8
HETATM    8  C   UNL     1      -9.550   4.925  71.666  1.00  0.00    -0.214 A  
HETATM    9  H2  UNL     1      -8.398   3.380  73.387  1.00  0.00     0.000 HD 
HETATM   10  C   UNL     1     -10.486   5.375  70.803  1.00  0.00    -0.247 A  
HETATM   11  N   UNL     1     -11.492   4.339  73.025  1.00  0.00    -0.070 NA 
HETATM   12  N   UNL     1     -11.838   5.538  71.046  1.00  0.00     0.729 NA 
HETATM   13  H1  UNL     1      -9.802   2.969  74.379  1.00  0.00     0.000 HD 
HETATM   14  C   UNL     1     -13.669   5.462  72.618  1.00  0.00     1.593 C  
HETATM   15  N   UNL     1      -9.395   3.464  73.585  1.00  0.00    -0.092 NA 
HETATM   16  C   UNL     1     -12.281   5.075  72.178  1.00  0.00     1.230 A  
HETATM   17  C   UNL     1     -10.146   4.199  72.830  1.00  0.00    -0.161 A  
ENDBRANCH   7   8
ENDBRANCH   4   7
ENDBRANCH   2   4
BRANCH   3  18
HETATM   18  C   UNL     1      -8.249   9.454  69.924  1.00  0.00    -0.155 C  
BRANCH  18  19
HETATM   19  C   UNL     1      -7.641   9.896  68.536  1.00  0.00    -0.080 C  
BRANCH  19  20
HETATM   20  O   UNL     1      -8.400   9.485  67.337  1.00  0.00    -0.123 OA 
HETATM   21  O   UNL     1     -10.558  10.012  67.372  1.00  0.00    -0.242 OA 
HETATM   22  O   UNL     1      -9.279   9.883  65.302  1.00  0.00    -0.190 OA 
HETATM   23  P   UNL     1      -9.311  10.792  66.661  1.00  0.00    -0.174 P  
HETATM   24  O   UNL     1     -10.125  11.962  66.057  1.00  0.00    -0.219 OA 
ENDBRANCH  19  20
ENDBRANCH  18  19
ENDBRANCH   3  18
BRANCH   3  25
HETATM   25  S   UNL     1      -8.075   6.769  68.897  1.00  0.00    -0.121 SA 
BRANCH  25  26
HETATM   26  C   UNL     1      -7.333   5.164  69.293  1.00  0.00    -0.058 C  
HETATM   27  O   UNL     1      -6.153   5.076  69.610  1.00  0.00    -0.020 OA 
BRANCH  26  28
HETATM   28  C   UNL     1      -8.163   3.868  69.144  1.00  0.00    -0.072 A  
HETATM   29  C   UNL     1     -10.135   2.743  68.120  1.00  0.00     1.103 A  
HETATM   30  C   UNL     1      -9.334   3.886  68.337  1.00  0.00    -0.222 A  
HETATM   31  C   UNL     1      -7.832   2.621  69.681  1.00  0.00    -0.049 A  
HETATM   32  C   UNL     1      -9.771   1.529  68.689  1.00  0.00    -0.112 A  
HETATM   33  C   UNL     1      -8.612   1.470  69.465  1.00  0.00    -0.090 A  
ENDBRANCH  26  28
ENDBRANCH  25  26
ENDBRANCH   3  25
TORSDOF 9
ENDMDL
MODEL      406
REMARK 921   NORMALIZED FREE ENERGY PREDICTED BY IDOCK:    5.59 KCAL/MOL
REMARK 922        TOTAL FREE ENERGY PREDICTED BY IDOCK:    7.02 KCAL/MOL
REMARK 923 INTER-LIGAND FREE ENERGY PREDICTED BY IDOCK:    0.13 KCAL/MOL
REMARK 924 INTRA-LIGAND FREE ENERGY PREDICTED BY IDOCK:    6.89 KCAL/MOL
REMARK 927      BINDING AFFINITY PREDICTED BY RF-SCORE:    0.00 PKD
ROOT
HETATM    1  C   UNL     1     -10.186  13.770  69.196  1.00  0.00     0.061 C  
HETATM    2  C   UNL     1      -9.871  13.546  67.707  1.00  0.00    -0.233 C  
HETATM    3  C   UNL     1      -9.229  14.534  67.013  1.00  0.00    -0.240 C  
ENDROOT
BRANCH   2   4
HETATM    4  N   UNL     1     -10.254  12.272  67.244  1.00  0.00    -0.210 N  
HETATM    5  C   UNL     1     -11.424  12.099  66.487  1.00  0.00    -0.369 C  
HETATM    6  O   UNL     1     -11.995  11.037  66.284  1.00  0.00     0.325 OA 
BRANCH   4   7
HETATM    7  C   UNL     1      -9.781  11.059  67.945  1.00  0.00    -0.172 C  
BRANCH   7   8
HETATM    8  C   UNL     1      -8.417  11.207  68.594  1.00  0.00    -0.153 A  
HETATM    9  H2  UNL     1      -8.576  12.541  66.387  1.00  0.00     0.000 HD 
HETATM   10  C   UNL     1      -7.864  10.514  69.612  1.00  0.00    -0.086 A  
HETATM   11  N   UNL     1      -6.431  12.605  68.841  1.00  0.00    -0.085 NA 
HETATM   12  N   UNL     1      -6.788  10.892  70.394  1.00  0.00    -0.206 NA 
HETATM   13  H1  UNL     1      -7.146  13.564  66.574  1.00  0.00     0.000 HD 
HETATM   14  C   UNL     1      -5.157  12.577  70.972  1.00  0.00    -0.150 C  
HETATM   15  N   UNL     1      -7.763  12.833  66.930  1.00  0.00     0.030 NA 
HETATM   16  C   UNL     1      -6.151  11.964  70.020  1.00  0.00    -0.153 A  
HETATM   17  C   UNL     1      -7.513  12.278  68.072  1.00  0.00    -0.115 A  
ENDBRANCH   7   8
ENDBRANCH   4   7
ENDBRANCH   2   4
BRANCH   3  18
HETATM   18  C   UNL     1      -8.516  15.719  67.803  1.00  0.00    -0.162 C  
BRANCH  18  19
HETATM   19  C   UNL     1      -8.247  17.050  67.000  1.00  0.00    -0.204 C  
BRANCH  19  20
HETATM   20  O   UNL     1      -8.943  18.256  67.493  1.00  0.00    -0.252 OA 
HETATM   21  O   UNL     1      -8.765  20.039  66.180  1.00  0.00    -0.344 OA 
HETATM   22  O   UNL     1     -10.720  19.637  67.577  1.00  0.00    -0.454 OA 
HETATM   23  P   UNL     1      -9.977  18.950  66.292  1.00  0.00    -0.325 P  
HETATM   24  O   UNL     1     -10.903  19.571  65.217  1.00  0.00    -0.449 OA 
ENDBRANCH  19  20
ENDBRANCH  18  19
ENDBRANCH   3  18
BRANCH   3  25
HETATM   25  S   UNL     1      -9.068  14.623  65.197  1.00  0.00     2.101 SA 
BRANCH  25  26
HETATM   26  C   UNL     1     -10.661  14.746  64.343  1.00  0.00     0.117 C  
HETATM   27  O   UNL     1     -11.243  15.820  64.247  1.00  0.00    -0.328 OA 
BRANCH  26  28
HETATM   28  C   UNL     1     -11.354  13.472  63.805  1.00  0.00    -0.115 A  
HETATM   29  C   UNL     1     -11.098  11.211  62.796  1.00  0.00     0.743 A  
HETATM   30  C   UNL     1     -10.554  12.421  63.280  1.00  0.00    -0.239 A  
HETATM   31  C   UNL     1     -12.726  13.210  63.847  1.00  0.00    -0.120 A  
HETATM   32  C   UNL     1     -12.472  11.005  62.846  1.00  0.00     1.786 A  
HETATM   33  C   UNL     1     -13.283  12.006  63.380  1.00  0.00     0.133 A  
ENDBRANCH  26  28
ENDBRANCH  25  26
ENDBRANCH   3  25
TORSDOF 9
ENDMDL
MODEL      407
REMARK 921   NORMALIZED FREE ENERGY PREDICTED BY IDOCK:    6.97 KCAL/MOL
REMARK 922        TOTAL FREE ENERGY PREDICTED BY IDOCK:    9.12 KCAL/MOL
REMARK 923 INTER-LIGAND FREE ENERGY PREDICTED BY IDOCK:    8.84 KCAL/MOL
REMARK 924 INTRA-LIGAND FREE ENERGY PREDICTED BY IDOCK:    0.28 KCAL/MOL
REMARK 927      BINDING AFFINITY PREDICTED BY RF-SCORE:    0.00 PKD
ROOT
HETATM    1  C   UNL     1      -6.953  16.860  70.755  1.00  0.00     2.662 C  
HETATM    2  C   UNL     1      -7.942  16.260  69.742  1.00  0.00     0.483 C  
HETATM    3  C   UNL     1      -8.915  15.411  70.194  1.00  0.00     0.534 C  
ENDROOT
BRANCH   2   4
HETATM    4  N   UNL     1      -7.743  16.725  68.428  1.00  0.00    -0.198 N  
HETATM    5  C   UNL     1      -8.737  17.459  67.760  1.00  0.00    -0.232 C  
HETATM    6  O   UNL     1      -8.794  17.658  66.556  1.00  0.00    -0.257 OA 
BRANCH   4   7
HETATM    7  C   UNL     1      -6.774  16.043  67.543  1.00  0.00    -0.175 C  
BRANCH   7   8
HETATM    8  C   UNL     1      -6.980  14.543  67.433  1.00  0.00    -0.106 A  
HETATM    9  H2  UNL     1      -8.631  15.848  65.934  1.00  0.00     0.000 HD 
HETATM   10  C   UNL     1      -6.490  13.545  68.198  1.00  0.00    -0.123 A  
HETATM   11  N   UNL     1      -7.778  12.704  66.041  1.00  0.00     1.403 NA 
HETATM   12  N   UNL     1      -6.411  12.203  67.871  1.00  0.00    -0.069 NA 
HETATM   13  H1  UNL     1      -9.197  14.518  64.916  1.00  0.00     0.000 HD 
HETATM   14  C   UNL     1      -6.717  10.466  66.223  1.00  0.00    -0.112 C  
HETATM   15  N   UNL     1      -8.611  14.861  65.678  1.00  0.00     1.171 NA 
HETATM   16  C   UNL     1      -6.999  11.842  66.769  1.00  0.00    -0.047 A  
HETATM   17  C   UNL     1      -7.840  14.042  66.318  1.00  0.00     1.841 A  
ENDBRANCH   7   8
ENDBRANCH   4   7
ENDBRANCH   2   4
BRANCH   3  18
HETATM   18  C   UNL     1      -9.233  15.332  71.752  1.00  0.00     4.514 C  
BRANCH  18  19
HETATM   19  C   UNL     1     -10.754  15.334  72.171  1.00  0.00     0.849 C  
BRANCH  19  20
HETATM   20  O   UNL     1     -11.692  14.719  71.209  1.00  0.00    -0.322 OA 
HETATM   21  O   UNL     1     -12.364  12.670  71.740  1.00  0.00     0.057 OA 
HETATM   22  O   UNL     1     -13.766  14.220  70.490  1.00  0.00     0.125 OA 
HETATM   23  P   UNL     1     -13.111  14.102  71.984  1.00  0.00    -0.434 P  
HETATM   24  O   UNL     1     -14.380  13.550  72.676  1.00  0.00    -0.716 OA 
ENDBRANCH  19  20
ENDBRANCH  18  19
ENDBRANCH   3  18
BRANCH   3  25
HETATM   25  S   UNL     1      -9.956  14.336  69.148  1.00  0.00     0.066 SA 
BRANCH  25  26
HETATM   26  C   UNL     1     -11.184  15.252  68.182  1.00  0.00    -0.324 C  
HETATM   27  O   UNL     1     -11.704  16.269  68.626  1.00  0.00    -0.314 OA 
BRANCH  26  28
HETATM   28  C   UNL     1     -11.662  14.705  66.817  1.00  0.00    -0.355 A  
HETATM   29  C   UNL     1     -12.606  12.790  65.536  1.00  0.00    -0.292 A  
HETATM   30  C   UNL     1     -12.123  13.363  66.734  1.00  0.00    -0.419 A  
HETATM   31  C   UNL     1     -11.757  15.439  65.632  1.00  0.00     0.158 A  
HETATM   32  C   UNL     1     -12.666  13.558  64.380  1.00  0.00    -0.126 A  
HETATM   33  C   UNL     1     -12.246  14.888  64.434  1.00  0.00    -0.399 A  
ENDBRANCH  26  28
ENDBRANCH  25  26
ENDBRANCH   3  25
TORSDOF 9
ENDMDL
MODEL      408
REMARK 921   NORMALIZED FREE ENERGY PREDICTED BY IDOCK:    7.16 KCAL/MOL
REMARK 922        TOTAL FREE ENERGY PREDICTED BY IDOCK:    9.42 KCAL/MOL
REMARK 923 INTER-LIGAND FREE ENERGY PREDICTED BY IDOCK:    4.29 KCAL/MOL
REMARK 924 INTRA-LIGAND FREE ENERGY PREDICTED BY IDOCK:    5.13 KCAL/MOL
REMARK 927      BINDING AFFINITY PREDICTED BY RF-SCORE:    0.00 PKD
ROOT
HETATM    1  C   UNL     1      -8.562  17.684  67.845  1.00  0.00    -0.238 C  
HETATM    2  C   UNL     1      -8.356  16.192  68.153  1.00  0.00    -0.166 C  
HETATM    3  C   UNL     1      -8.912  15.264  67.316  1.00  0.00    -0.195 C  
ENDROOT
BRANCH   2   4
HETATM    4  N   UNL     1      -7.540  15.963  69.277  1.00  0.00    -0.216 N  
HETATM    5  C   UNL     1      -6.148  15.828  69.146  1.00  0.00    -0.122 C  
HETATM    6  O   UNL     1      -5.393  15.353  69.981  1.00  0.00    -0.108 OA 
BRANCH   4   7
HETATM    7  C   UNL     1      -8.113  15.345  70.492  1.00  0.00     1.403 C  
BRANCH   7   8
HETATM    8  C   UNL     1      -9.564  14.923  70.349  1.00  0.00     0.797 A  
HETATM    9  H2  UNL     1      -9.289  17.484  70.146  1.00  0.00     0.000 HD 
HETATM   10  C   UNL     1     -10.149  13.734  70.610  1.00  0.00     3.310 A  
HETATM   11  N   UNL     1     -11.756  15.478  69.427  1.00  0.00    -0.345 NA 
HETATM   12  N   UNL     1     -11.373  13.286  70.149  1.00  0.00     0.051 NA 
HETATM   13  H1  UNL     1     -10.870  17.883  69.463  1.00  0.00     0.000 HD 
HETATM   14  C   UNL     1     -13.310  13.661  68.756  1.00  0.00     3.571 C  
HETATM   15  N   UNL     1     -10.208  17.190  69.813  1.00  0.00     0.035 NA 
HETATM   16  C   UNL     1     -12.105  14.155  69.514  1.00  0.00    -0.340 A  
HETATM   17  C   UNL     1     -10.535  15.938  69.836  1.00  0.00    -0.310 A  
ENDBRANCH   7   8
ENDBRANCH   4   7
ENDBRANCH   2   4
BRANCH   3  18
HETATM   18  C   UNL     1      -9.445  15.710  65.883  1.00  0.00    -0.376 C  
BRANCH  18  19
HETATM   19  C   UNL     1      -9.846  14.559  64.881  1.00  0.00     0.104 C  
BRANCH  19  20
HETATM   20  O   UNL     1     -11.219  14.030  65.018  1.00  0.00    -0.324 OA 
HETATM   21  O   UNL     1     -11.484  11.933  64.334  1.00  0.00    -0.340 OA 
HETATM   22  O   UNL     1     -12.817  12.899  66.130  1.00  0.00    -0.168 OA 
HETATM   23  P   UNL     1     -11.254  12.511  65.845  1.00  0.00    -0.353 P  
HETATM   24  O   UNL     1     -11.286  11.152  66.585  1.00  0.00    -0.257 OA 
ENDBRANCH  19  20
ENDBRANCH  18  19
ENDBRANCH   3  18
BRANCH   3  25
HETATM   25  S   UNL     1      -9.083  13.481  67.671  1.00  0.00    -0.218 SA 
BRANCH  25  26
HETATM   26  C   UNL     1      -7.496  12.609  67.736  1.00  0.00    -0.131 C  
HETATM   27  O   UNL     1      -6.475  13.126  67.299  1.00  0.00    -0.238 OA 
BRANCH  26  28
HETATM   28  C   UNL     1      -7.430  11.156  68.261  1.00  0.00    -0.094 A  
HETATM   29  C   UNL     1      -8.344   9.444  69.821  1.00  0.00    -0.161 A  
HETATM   30  C   UNL     1      -8.314  10.757  69.301  1.00  0.00    -0.072 A  
HETATM   31  C   UNL     1      -6.612  10.142  67.756  1.00  0.00    -0.067 A  
HETATM   32  C   UNL     1      -7.499   8.475  69.293  1.00  0.00    -0.082 A  
HETATM   33  C   UNL     1      -6.638   8.827  68.253  1.00  0.00    -0.060 A  
ENDBRANCH  26  28
ENDBRANCH  25  26
ENDBRANCH   3  25
TORSDOF 9
ENDMDL
MODEL      409
REMARK 921   NORMALIZED FREE ENERGY PREDICTED BY IDOCK:    8.89 KCAL/MOL
REMARK 922        TOTAL FREE ENERGY PREDICTED BY IDOCK:   12.05 KCAL/MOL
REMARK 923 INTER-LIGAND FREE ENERGY PREDICTED BY IDOCK:   11.82 KCAL/MOL
REMARK 924 INTRA-LIGAND FREE ENERGY PREDICTED BY IDOCK:    0.23 KCAL/MOL
REMARK 927      BINDING AFFINITY PREDICTED BY RF-SCORE:    0.00 PKD
ROOT
HETATM    1  C   UNL     1     -10.198  13.716  69.046  1.00  0.00    -0.006 C  
HETATM    2  C   UNL     1      -9.952  13.295  67.587  1.00  0.00    -0.229 C  
HETATM    3  C   UNL     1      -9.202  14.109  66.784  1.00  0.00    -0.266 C  
ENDROOT
BRANCH   2   4
HETATM    4  N   UNL     1     -10.511  12.042  67.268  1.00  0.00    -0.215 N  
HETATM    5  C   UNL     1     -11.732  11.948  66.580  1.00  0.00    -0.186 C  
HETATM    6  O   UNL     1     -12.438  10.954  66.507  1.00  0.00     2.202 OA 
BRANCH   4   7
HETATM    7  C   UNL     1     -10.153  10.850  68.066  1.00  0.00    -0.177 C  
BRANCH   7   8
HETATM    8  C   UNL     1      -8.843  10.977  68.821  1.00  0.00    -0.149 A  
HETATM    9  H2  UNL     1     -10.831  10.559  70.418  1.00  0.00     0.000 HD 
HETATM   10  C   UNL     1      -7.637  11.410  68.395  1.00  0.00    -0.123 A  
HETATM   11  N   UNL     1      -7.603  10.393  70.841  1.00  0.00     0.518 NA 
HETATM   12  N   UNL     1      -6.410  11.188  68.993  1.00  0.00    -0.049 NA 
HETATM   13  H1  UNL     1      -9.932  10.120  71.876  1.00  0.00     0.000 HD 
HETATM   14  C   UNL     1      -5.138  10.110  70.740  1.00  0.00    -0.050 C  
HETATM   15  N   UNL     1      -9.943  10.403  70.895  1.00  0.00     0.868 NA 
HETATM   16  C   UNL     1      -6.433  10.624  70.165  1.00  0.00    -0.152 A  
HETATM   17  C   UNL     1      -8.828  10.563  70.258  1.00  0.00     0.965 A  
ENDBRANCH   7   8
ENDBRANCH   4   7
ENDBRANCH   2   4
BRANCH   3  18
HETATM   18  C   UNL     1      -8.320  15.264  67.433  1.00  0.00    -0.202 C  
BRANCH  18  19
HETATM   19  C   UNL     1      -7.908  16.462  66.491  1.00  0.00    -0.288 C  
BRANCH  19  20
HETATM   20  O   UNL     1      -7.100  17.530  67.117  1.00  0.00    -0.159 OA 
HETATM   21  O   UNL     1      -7.723  18.088  69.174  1.00  0.00    -0.164 OA 
HETATM   22  O   UNL     1      -5.411  18.244  68.422  1.00  0.00    -0.164 OA 
HETATM   23  P   UNL     1      -6.531  17.082  68.688  1.00  0.00    -0.191 P  
HETATM   24  O   UNL     1      -6.022  16.682  70.094  1.00  0.00    -0.211 OA 
ENDBRANCH  19  20
ENDBRANCH  18  19
ENDBRANCH   3  18
BRANCH   3  25
HETATM   25  S   UNL     1      -9.075  13.982  64.967  1.00  0.00     2.350 SA 
BRANCH  25  26
HETATM   26  C   UNL     1     -10.668  14.165  64.124  1.00  0.00     0.286 C  
HETATM   27  O   UNL     1     -11.170  15.271  63.957  1.00  0.00     0.048 OA 
BRANCH  26  28
HETATM   28  C   UNL     1     -11.463  12.913  63.688  1.00  0.00    -0.506 A  
HETATM   29  C   UNL     1     -11.423  10.482  63.150  1.00  0.00     2.370 A  
HETATM   30  C   UNL     1     -10.773  11.682  63.517  1.00  0.00    -0.495 A  
HETATM   31  C   UNL     1     -12.847  12.848  63.505  1.00  0.00     0.030 A  
HETATM   32  C   UNL     1     -12.800  10.473  62.965  1.00  0.00     5.029 A  
HETATM   33  C   UNL     1     -13.511  11.659  63.151  1.00  0.00     1.139 A  
ENDBRANCH  26  28
ENDBRANCH  25  26
ENDBRANCH   3  25
TORSDOF 9
ENDMDL
MODEL      410
REMARK 921   NORMALIZED FREE ENERGY PREDICTED BY IDOCK:    8.90 KCAL/MOL
REMARK 922        TOTAL FREE ENERGY PREDICTED BY IDOCK:   12.08 KCAL/MOL
REMARK 923 INTER-LIGAND FREE ENERGY PREDICTED BY IDOCK:    2.04 KCAL/MOL
REMARK 924 INTRA-LIGAND FREE ENERGY PREDICTED BY IDOCK:   10.04 KCAL/MOL
REMARK 927      BINDING AFFINITY PREDICTED BY RF-SCORE:    0.00 PKD
ROOT
HETATM    1  C   UNL     1     -12.409  16.929  68.143  1.00  0.00     2.112 C  
HETATM    2  C   UNL     1     -11.490  15.841  68.723  1.00  0.00    -0.388 C  
HETATM    3  C   UNL     1     -10.162  15.858  68.400  1.00  0.00    -0.226 C  
ENDROOT
BRANCH   2   4
HETATM    4  N   UNL     1     -12.157  14.958  69.595  1.00  0.00    -0.304 N  
HETATM    5  C   UNL     1     -11.730  14.790  70.922  1.00  0.00    -0.307 C  
HETATM    6  O   UNL     1     -12.037  13.867  71.662  1.00  0.00    -0.188 OA 
BRANCH   4   7
HETATM    7  C   UNL     1     -12.939  13.829  69.045  1.00  0.00     1.489 C  
BRANCH   7   8
HETATM    8  C   UNL     1     -12.229  12.490  69.112  1.00  0.00    -0.051 A  
HETATM    9  H2  UNL     1     -10.706  14.420  69.905  1.00  0.00     0.000 HD 
HETATM   10  C   UNL     1     -12.584  11.296  68.591  1.00  0.00     0.965 A  
HETATM   11  N   UNL     1     -10.466  11.181  70.179  1.00  0.00     0.459 NA 
HETATM   12  N   UNL     1     -12.108  10.050  68.956  1.00  0.00     0.263 NA 
HETATM   13  H1  UNL     1      -9.438  13.472  70.691  1.00  0.00     0.000 HD 
HETATM   14  C   UNL     1     -10.733   8.725  70.434  1.00  0.00    -0.254 C  
HETATM   15  N   UNL     1     -10.317  13.516  70.176  1.00  0.00     1.384 NA 
HETATM   16  C   UNL     1     -11.111  10.034  69.791  1.00  0.00    -0.274 A  
HETATM   17  C   UNL     1     -10.940  12.425  69.866  1.00  0.00     0.470 A  
ENDBRANCH   7   8
ENDBRANCH   4   7
ENDBRANCH   2   4
BRANCH   3  18
HETATM   18  C   UNL     1      -9.525  17.160  67.742  1.00  0.00    -0.253 C  
BRANCH  18  19
HETATM   19  C   UNL     1      -8.145  17.654  68.327  1.00  0.00    -0.278 C  
BRANCH  19  20
HETATM   20  O   UNL     1      -7.313  16.624  68.981  1.00  0.00    -0.212 OA 
HETATM   21  O   UNL     1      -5.127  17.009  68.915  1.00  0.00    -0.129 OA 
HETATM   22  O   UNL     1      -6.184  15.800  70.747  1.00  0.00     0.163 OA 
HETATM   23  P   UNL     1      -6.197  17.308  70.112  1.00  0.00     0.471 P  
HETATM   24  O   UNL     1      -5.198  17.920  71.125  1.00  0.00    -0.317 OA 
ENDBRANCH  19  20
ENDBRANCH  18  19
ENDBRANCH   3  18
BRANCH   3  25
HETATM   25  S   UNL     1      -8.981  14.496  68.689  1.00  0.00    -0.157 SA 
BRANCH  25  26
HETATM   26  C   UNL     1      -8.675  13.491  67.213  1.00  0.00    -0.225 C  
HETATM   27  O   UNL     1      -7.604  12.917  67.052  1.00  0.00    -0.079 OA 
BRANCH  26  28
HETATM   28  C   UNL     1      -9.734  13.421  66.088  1.00  0.00    -0.260 A  
HETATM   29  C   UNL     1     -10.854  12.045  64.341  1.00  0.00    -0.378 A  
HETATM   30  C   UNL     1      -9.892  12.209  65.363  1.00  0.00    -0.231 A  
HETATM   31  C   UNL     1     -10.629  14.438  65.746  1.00  0.00    -0.326 A  
HETATM   32  C   UNL     1     -11.711  13.093  64.028  1.00  0.00    -0.496 A  
HETATM   33  C   UNL     1     -11.600  14.288  64.740  1.00  0.00    -0.404 A  
ENDBRANCH  26  28
ENDBRANCH  25  26
ENDBRANCH   3  25
TORSDOF 9
ENDMDL
MODEL      411
REMARK 921   NORMALIZED FREE ENERGY PREDICTED BY IDOCK:   13.16 KCAL/MOL
REMARK 922        TOTAL FREE ENERGY PREDICTED BY IDOCK:   18.58 KCAL/MOL
REMARK 923 INTER-LIGAND FREE ENERGY PREDICTED BY IDOCK:   14.39 KCAL/MOL
REMARK 924 INTRA-LIGAND FREE ENERGY PREDICTED BY IDOCK:    4.19 KCAL/MOL
REMARK 927      BINDING AFFINITY PREDICTED BY RF-SCORE:    0.00 PKD
ROOT
HETATM    1  C   UNL     1     -11.372  21.082  65.027  1.00  0.00     2.626 C  
HETATM    2  C   UNL     1     -10.794  20.063  66.023  1.00  0.00    -0.139 C  
HETATM    3  C   UNL     1      -9.439  19.897  66.086  1.00  0.00    -0.377 C  
ENDROOT
BRANCH   2   4
HETATM    4  N   UNL     1     -11.779  19.442  66.816  1.00  0.00     1.001 N  
HETATM    5  C   UNL     1     -12.953  20.122  67.177  1.00  0.00     5.369 C  
HETATM    6  O   UNL     1     -13.720  19.802  68.074  1.00  0.00     4.985 OA 
BRANCH   4   7
HETATM    7  C   UNL     1     -11.410  18.321  67.707  1.00  0.00     0.610 C  
BRANCH   7   8
HETATM    8  C   UNL     1     -11.404  16.963  67.030  1.00  0.00     0.546 A  
HETATM    9  H2  UNL     1     -11.469  16.748  69.604  1.00  0.00     0.000 HD 
HETATM   10  C   UNL     1     -11.155  16.639  65.743  1.00  0.00     0.168 A  
HETATM   11  N   UNL     1     -12.018  14.607  67.209  1.00  0.00    -0.356 NA 
HETATM   12  N   UNL     1     -11.494  15.465  65.096  1.00  0.00    -0.261 NA 
HETATM   13  H1  UNL     1     -11.929  15.046  69.732  1.00  0.00     0.000 HD 
HETATM   14  C   UNL     1     -12.617  13.328  65.166  1.00  0.00    -0.512 C  
HETATM   15  N   UNL     1     -11.707  15.861  69.160  1.00  0.00    -0.380 NA 
HETATM   16  C   UNL     1     -11.978  14.514  65.841  1.00  0.00    -0.309 A  
HETATM   17  C   UNL     1     -11.729  15.769  67.869  1.00  0.00    -0.043 A  
ENDBRANCH   7   8
ENDBRANCH   4   7
ENDBRANCH   2   4
BRANCH   3  18
HETATM   18  C   UNL     1      -8.479  20.974  65.411  1.00  0.00     1.668 C  
BRANCH  18  19
HETATM   19  C   UNL     1      -6.938  20.636  65.379  1.00  0.00    -0.086 C  
BRANCH  19  20
HETATM   20  O   UNL     1      -6.511  19.477  66.190  1.00  0.00    -0.187 OA 
HETATM   21  O   UNL     1      -7.253  17.511  65.471  1.00  0.00    -0.338 OA 
HETATM   22  O   UNL     1      -5.128  17.758  66.636  1.00  0.00    -0.126 OA 
HETATM   23  P   UNL     1      -5.806  18.228  65.224  1.00  0.00    -0.070 P  
HETATM   24  O   UNL     1      -5.174  17.110  64.359  1.00  0.00     1.397 OA 
ENDBRANCH  19  20
ENDBRANCH  18  19
ENDBRANCH   3  18
BRANCH   3  25
HETATM   25  S   UNL     1      -8.574  18.528  66.928  1.00  0.00    -0.286 SA 
BRANCH  25  26
HETATM   26  C   UNL     1      -8.421  18.771  68.717  1.00  0.00    -0.285 C  
HETATM   27  O   UNL     1      -9.162  19.545  69.313  1.00  0.00    -0.266 OA 
BRANCH  26  28
HETATM   28  C   UNL     1      -7.287  18.072  69.501  1.00  0.00     0.214 A  
HETATM   29  C   UNL     1      -5.261  18.316  70.927  1.00  0.00    -0.275 A  
HETATM   30  C   UNL     1      -6.313  18.868  70.163  1.00  0.00    -0.027 A  
HETATM   31  C   UNL     1      -7.156  16.694  69.691  1.00  0.00     0.072 A  
HETATM   32  C   UNL     1      -5.165  16.937  71.073  1.00  0.00    -0.137 A  
HETATM   33  C   UNL     1      -6.121  16.128  70.458  1.00  0.00     0.190 A  
ENDBRANCH  26  28
ENDBRANCH  25  26
ENDBRANCH   3  25
TORSDOF 9
ENDMDL
MODEL      412
REMARK 921   NORMALIZED FREE ENERGY PREDICTED BY IDOCK:   21.66 KCAL/MOL
REMARK 922        TOTAL FREE ENERGY PREDICTED BY IDOCK:   31.55 KCAL/MOL
REMARK 923 INTER-LIGAND FREE ENERGY PREDICTED BY IDOCK:   16.23 KCAL/MOL
REMARK 924 INTRA-LIGAND FREE ENERGY PREDICTED BY IDOCK:   15.31 KCAL/MOL
REMARK 927      BINDING AFFINITY PREDICTED BY RF-SCORE:    0.00 PKD
ROOT
HETATM    1  C   UNL     1      -8.973  17.461  67.660  1.00  0.00    -0.233 C  
HETATM    2  C   UNL     1      -8.554  16.041  67.243  1.00  0.00    -0.184 C  
HETATM    3  C   UNL     1      -9.382  15.323  66.425  1.00  0.00    -0.296 C  
ENDROOT
BRANCH   2   4
HETATM    4  N   UNL     1      -7.290  15.667  67.737  1.00  0.00    -0.137 N  
HETATM    5  C   UNL     1      -6.325  15.089  66.895  1.00  0.00     1.101 C  
HETATM    6  O   UNL     1      -5.333  14.475  67.258  1.00  0.00    -0.286 OA 
BRANCH   4   7
HETATM    7  C   UNL     1      -7.117  15.372  69.175  1.00  0.00    -0.161 C  
BRANCH   7   8
HETATM    8  C   UNL     1      -8.195  15.962  70.065  1.00  0.00     0.693 A  
HETATM    9  H2  UNL     1      -7.181  17.737  68.486  1.00  0.00     0.000 HD 
HETATM   10  C   UNL     1      -8.799  15.441  71.155  1.00  0.00     3.204 A  
HETATM   11  N   UNL     1      -9.871  17.718  70.327  1.00  0.00     1.443 NA 
HETATM   12  N   UNL     1      -9.995  15.843  71.721  1.00  0.00     2.735 NA 
HETATM   13  H1  UNL     1      -8.404  19.002  68.664  1.00  0.00     0.000 HD 
HETATM   14  C   UNL     1     -11.943  17.266  71.618  1.00  0.00     2.449 C  
HETATM   15  N   UNL     1      -8.052  18.074  68.899  1.00  0.00    -0.217 NA 
HETATM   16  C   UNL     1     -10.524  16.931  71.241  1.00  0.00     2.180 A  
HETATM   17  C   UNL     1      -8.711  17.323  69.721  1.00  0.00     1.232 A  
ENDBRANCH   7   8
ENDBRANCH   4   7
ENDBRANCH   2   4
BRANCH   3  18
HETATM   18  C   UNL     1     -10.558  16.061  65.646  1.00  0.00    -0.392 C  
BRANCH  18  19
HETATM   19  C   UNL     1     -11.437  15.178  64.677  1.00  0.00    -0.362 C  
BRANCH  19  20
HETATM   20  O   UNL     1     -12.492  14.367  65.319  1.00  0.00    -0.412 OA 
HETATM   21  O   UNL     1     -12.787  12.351  64.433  1.00  0.00    -0.683 OA 
HETATM   22  O   UNL     1     -13.193  12.814  66.790  1.00  0.00     1.537 OA 
HETATM   23  P   UNL     1     -11.929  12.789  65.752  1.00  0.00    -0.403 P  
HETATM   24  O   UNL     1     -11.426  11.378  66.141  1.00  0.00    -0.270 OA 
ENDBRANCH  19  20
ENDBRANCH  18  19
ENDBRANCH   3  18
BRANCH   3  25
HETATM   25  S   UNL     1      -9.255  13.532  66.092  1.00  0.00     0.133 SA 
BRANCH  25  26
HETATM   26  C   UNL     1      -9.435  13.117  64.338  1.00  0.00     0.885 C  
HETATM   27  O   UNL     1      -9.785  13.963  63.523  1.00  0.00     2.385 OA 
BRANCH  26  28
HETATM   28  C   UNL     1      -9.237  11.660  63.861  1.00  0.00     0.112 A  
HETATM   29  C   UNL     1      -8.050  10.094  62.332  1.00  0.00    -0.162 A  
HETATM   30  C   UNL     1      -8.316  11.396  62.810  1.00  0.00     0.146 A  
HETATM   31  C   UNL     1      -9.838  10.529  64.421  1.00  0.00    -0.405 A  
HETATM   32  C   UNL     1      -8.685   9.003  62.913  1.00  0.00    -0.143 A  
HETATM   33  C   UNL     1      -9.575   9.225  63.965  1.00  0.00     0.746 A  
ENDBRANCH  26  28
ENDBRANCH  25  26
ENDBRANCH   3  25
TORSDOF 9
ENDMDL
MODEL      413
REMARK 921   NORMALIZED FREE ENERGY PREDICTED BY IDOCK:   28.54 KCAL/MOL
REMARK 922        TOTAL FREE ENERGY PREDICTED BY IDOCK:   42.05 KCAL/MOL
REMARK 923 INTER-LIGAND FREE ENERGY PREDICTED BY IDOCK:   21.10 KCAL/MOL
REMARK 924 INTRA-LIGAND FREE ENERGY PREDICTED BY IDOCK:   20.95 KCAL/MOL
REMARK 927      BINDING AFFINITY PREDICTED BY RF-SCORE:    0.00 PKD
ROOT
HETATM    1  C   UNL     1      -8.968  17.470  67.671  1.00  0.00    -0.231 C  
HETATM    2  C   UNL     1      -8.578  16.032  67.291  1.00  0.00    -0.184 C  
HETATM    3  C   UNL     1      -9.428  15.303  66.506  1.00  0.00    -0.283 C  
ENDROOT
BRANCH   2   4
HETATM    4  N   UNL     1      -7.312  15.652  67.778  1.00  0.00    -0.137 N  
HETATM    5  C   UNL     1      -6.392  14.979  66.959  1.00  0.00     0.750 C  
HETATM    6  O   UNL     1      -5.410  14.360  67.342  1.00  0.00    -0.334 OA 
BRANCH   4   7
HETATM    7  C   UNL     1      -7.108  15.461  69.230  1.00  0.00    -0.179 C  
BRANCH   7   8
HETATM    8  C   UNL     1      -8.114  16.191  70.102  1.00  0.00     1.267 A  
HETATM    9  H2  UNL     1      -7.074  17.754  68.327  1.00  0.00     0.000 HD 
HETATM   10  C   UNL     1      -8.697  15.806  71.257  1.00  0.00     4.389 A  
HETATM   11  N   UNL     1      -9.680  18.057  70.262  1.00  0.00     1.637 NA 
HETATM   12  N   UNL     1      -9.844  16.327  71.828  1.00  0.00     4.125 NA 
HETATM   13  H1  UNL     1      -8.218  19.098  68.432  1.00  0.00     0.000 HD 
HETATM   14  C   UNL     1     -11.716  17.844  71.667  1.00  0.00     4.273 C  
HETATM   15  N   UNL     1      -7.906  18.176  68.739  1.00  0.00    -0.286 NA 
HETATM   16  C   UNL     1     -10.334  17.395  71.269  1.00  0.00     3.101 A  
HETATM   17  C   UNL     1      -8.569  17.542  69.652  1.00  0.00     0.987 A  
ENDBRANCH   7   8
ENDBRANCH   4   7
ENDBRANCH   2   4
BRANCH   3  18
HETATM   18  C   UNL     1     -10.603  16.037  65.721  1.00  0.00    -0.366 C  
BRANCH  18  19
HETATM   19  C   UNL     1     -10.800  17.576  66.007  1.00  0.00     0.031 C  
BRANCH  19  20
HETATM   20  O   UNL     1      -9.845  18.486  65.340  1.00  0.00    -0.086 OA 
HETATM   21  O   UNL     1      -9.206  20.227  66.563  1.00  0.00    -0.333 OA 
HETATM   22  O   UNL     1      -7.759  19.204  64.891  1.00  0.00     0.486 OA 
HETATM   23  P   UNL     1      -8.451  18.799  66.316  1.00  0.00    -0.086 P  
HETATM   24  O   UNL     1      -7.204  19.079  67.189  1.00  0.00    -0.208 OA 
ENDBRANCH  19  20
ENDBRANCH  18  19
ENDBRANCH   3  18
BRANCH   3  25
HETATM   25  S   UNL     1      -9.333  13.502  66.226  1.00  0.00    -0.050 SA 
BRANCH  25  26
HETATM   26  C   UNL     1      -9.571  13.035  64.491  1.00  0.00     0.377 C  
HETATM   27  O   UNL     1      -9.910  13.866  63.656  1.00  0.00     1.548 OA 
BRANCH  26  28
HETATM   28  C   UNL     1      -9.440  11.556  64.060  1.00  0.00    -0.120 A  
HETATM   29  C   UNL     1      -8.345   9.894  62.564  1.00  0.00    -0.155 A  
HETATM   30  C   UNL     1      -8.551  11.221  63.003  1.00  0.00     0.019 A  
HETATM   31  C   UNL     1     -10.074  10.470  64.669  1.00  0.00    -0.408 A  
HETATM   32  C   UNL     1      -9.011   8.850  63.193  1.00  0.00     0.189 A  
HETATM   33  C   UNL     1      -9.872   9.142  64.252  1.00  0.00     1.372 A  
ENDBRANCH  26  28
ENDBRANCH  25  26
ENDBRANCH   3  25
TORSDOF 9
ENDMDL
MODEL      414
REMARK 921   NORMALIZED FREE ENERGY PREDICTED BY IDOCK:   30.84 KCAL/MOL
REMARK 922        TOTAL FREE ENERGY PREDICTED BY IDOCK:   45.56 KCAL/MOL
REMARK 923 INTER-LIGAND FREE ENERGY PREDICTED BY IDOCK:   29.04 KCAL/MOL
REMARK 924 INTRA-LIGAND FREE ENERGY PREDICTED BY IDOCK:   16.52 KCAL/MOL
REMARK 927      BINDING AFFINITY PREDICTED BY RF-SCORE:    0.00 PKD
ROOT
HETATM    1  C   UNL     1      -8.968  17.470  67.671  1.00  0.00    -0.231 C  
HETATM    2  C   UNL     1      -8.578  16.032  67.291  1.00  0.00    -0.184 C  
HETATM    3  C   UNL     1      -9.428  15.303  66.506  1.00  0.00    -0.283 C  
ENDROOT
BRANCH   2   4
HETATM    4  N   UNL     1      -7.312  15.652  67.778  1.00  0.00    -0.137 N  
HETATM    5  C   UNL     1      -6.392  14.979  66.959  1.00  0.00     0.750 C  
HETATM    6  O   UNL     1      -5.410  14.360  67.342  1.00  0.00    -0.334 OA 
BRANCH   4   7
HETATM    7  C   UNL     1      -7.108  15.461  69.230  1.00  0.00    -0.179 C  
BRANCH   7   8
HETATM    8  C   UNL     1      -8.166  14.603  69.900  1.00  0.00     0.470 A  
HETATM    9  H2  UNL     1      -9.219  16.472  68.459  1.00  0.00     0.000 HD 
HETATM   10  C   UNL     1      -8.042  13.689  70.886  1.00  0.00     5.250 A  
HETATM   11  N   UNL     1     -10.461  13.776  69.807  1.00  0.00     0.409 NA 
HETATM   12  N   UNL     1      -8.944  12.696  71.223  1.00  0.00    12.462 NA 
HETATM   13  H1  UNL     1     -10.877  15.864  68.380  1.00  0.00     0.000 HD 
HETATM   14  C   UNL     1     -11.006  11.539  70.736  1.00  0.00     1.678 C  
HETATM   15  N   UNL     1      -9.915  15.766  68.704  1.00  0.00    -0.203 NA 
HETATM   16  C   UNL     1     -10.097  12.734  70.621  1.00  0.00     5.274 A  
HETATM   17  C   UNL     1      -9.577  14.747  69.425  1.00  0.00    -0.003 A  
ENDBRANCH   7   8
ENDBRANCH   4   7
ENDBRANCH   2   4
BRANCH   3  18
HETATM   18  C   UNL     1     -10.603  16.037  65.721  1.00  0.00    -0.366 C  
BRANCH  18  19
HETATM   19  C   UNL     1     -10.800  17.576  66.007  1.00  0.00     0.031 C  
BRANCH  19  20
HETATM   20  O   UNL     1      -9.845  18.486  65.340  1.00  0.00    -0.086 OA 
HETATM   21  O   UNL     1      -9.206  20.227  66.563  1.00  0.00    -0.333 OA 
HETATM   22  O   UNL     1      -7.759  19.204  64.891  1.00  0.00     0.486 OA 
HETATM   23  P   UNL     1      -8.451  18.799  66.316  1.00  0.00    -0.086 P  
HETATM   24  O   UNL     1      -7.204  19.079  67.189  1.00  0.00    -0.208 OA 
ENDBRANCH  19  20
ENDBRANCH  18  19
ENDBRANCH   3  18
BRANCH   3  25
HETATM   25  S   UNL     1      -9.333  13.502  66.226  1.00  0.00    -0.050 SA 
BRANCH  25  26
HETATM   26  C   UNL     1     -10.192  12.967  64.723  1.00  0.00    -0.285 C  
HETATM   27  O   UNL     1     -10.880  13.749  64.077  1.00  0.00    -0.190 OA 
BRANCH  26  28
HETATM   28  C   UNL     1     -10.142  11.484  64.287  1.00  0.00    -0.338 A  
HETATM   29  C   UNL     1      -9.605   9.839  62.497  1.00  0.00     0.110 A  
HETATM   30  C   UNL     1      -9.711  11.165  62.970  1.00  0.00    -0.384 A  
HETATM   31  C   UNL     1     -10.421  10.384  65.102  1.00  0.00    -0.158 A  
HETATM   32  C   UNL     1      -9.908   8.779  63.343  1.00  0.00     3.116 A  
HETATM   33  C   UNL     1     -10.310   9.056  64.650  1.00  0.00     3.045 A  
ENDBRANCH  26  28
ENDBRANCH  25  26
ENDBRANCH   3  25
TORSDOF 9
ENDMDL
MODEL      415
REMARK 921   NORMALIZED FREE ENERGY PREDICTED BY IDOCK:   31.50 KCAL/MOL
REMARK 922        TOTAL FREE ENERGY PREDICTED BY IDOCK:   46.57 KCAL/MOL
REMARK 923 INTER-LIGAND FREE ENERGY PREDICTED BY IDOCK:   21.76 KCAL/MOL
REMARK 924 INTRA-LIGAND FREE ENERGY PREDICTED BY IDOCK:   24.81 KCAL/MOL
REMARK 927      BINDING AFFINITY PREDICTED BY RF-SCORE:    0.00 PKD
ROOT
HETATM    1  C   UNL     1      -5.782  18.028  71.266  1.00  0.00     0.441 C  
HETATM    2  C   UNL     1      -6.591  17.547  70.050  1.00  0.00     0.337 C  
HETATM    3  C   UNL     1      -7.514  16.553  70.222  1.00  0.00     1.634 C  
ENDROOT
BRANCH   2   4
HETATM    4  N   UNL     1      -6.301  18.263  68.872  1.00  0.00    -0.216 N  
HETATM    5  C   UNL     1      -7.198  19.216  68.364  1.00  0.00    -0.295 C  
HETATM    6  O   UNL     1      -7.191  19.674  67.231  1.00  0.00    -0.214 OA 
BRANCH   4   7
HETATM    7  C   UNL     1      -5.365  17.697  67.876  1.00  0.00    -0.135 C  
BRANCH   7   8
HETATM    8  C   UNL     1      -5.686  16.274  67.459  1.00  0.00    -0.179 A  
HETATM    9  H2  UNL     1      -5.407  16.480  70.019  1.00  0.00     0.000 HD 
HETATM   10  C   UNL     1      -5.686  15.711  66.232  1.00  0.00     2.882 A  
HETATM   11  N   UNL     1      -6.652  14.134  68.129  1.00  0.00    -0.108 NA 
HETATM   12  N   UNL     1      -6.309  14.536  65.851  1.00  0.00     5.956 NA 
HETATM   13  H1  UNL     1      -6.122  14.937  70.505  1.00  0.00     0.000 HD 
HETATM   14  C   UNL     1      -7.750  12.689  66.434  1.00  0.00     0.815 C  
HETATM   15  N   UNL     1      -5.853  15.596  69.773  1.00  0.00    -0.138 NA 
HETATM   16  C   UNL     1      -6.830  13.823  66.805  1.00  0.00     1.552 A  
HETATM   17  C   UNL     1      -6.079  15.309  68.532  1.00  0.00    -0.094 A  
ENDBRANCH   7   8
ENDBRANCH   4   7
ENDBRANCH   2   4
BRANCH   3  18
HETATM   18  C   UNL     1      -7.987  16.161  71.691  1.00  0.00     7.254 C  
BRANCH  18  19
HETATM   19  C   UNL     1      -9.538  15.974  71.915  1.00  0.00     5.497 C  
BRANCH  19  20
HETATM   20  O   UNL     1     -10.380  16.039  70.703  1.00  0.00     0.070 OA 
HETATM   21  O   UNL     1     -10.529  14.136  69.567  1.00  0.00    -0.060 OA 
HETATM   22  O   UNL     1     -12.335  15.770  69.618  1.00  0.00    -0.294 OA 
HETATM   23  P   UNL     1     -11.561  14.775  70.660  1.00  0.00    -0.213 P  
HETATM   24  O   UNL     1     -12.618  13.645  70.622  1.00  0.00    -0.327 OA 
ENDBRANCH  19  20
ENDBRANCH  18  19
ENDBRANCH   3  18
BRANCH   3  25
HETATM   25  S   UNL     1      -8.321  15.610  68.884  1.00  0.00    -0.229 SA 
BRANCH  25  26
HETATM   26  C   UNL     1      -9.957  16.252  68.443  1.00  0.00    -0.234 C  
HETATM   27  O   UNL     1     -10.559  17.012  69.193  1.00  0.00    -0.329 OA 
BRANCH  26  28
HETATM   28  C   UNL     1     -10.657  15.772  67.151  1.00  0.00    -0.313 A  
HETATM   29  C   UNL     1     -11.961  13.985  66.008  1.00  0.00    -0.434 A  
HETATM   30  C   UNL     1     -11.274  14.491  67.134  1.00  0.00    -0.341 A  
HETATM   31  C   UNL     1     -10.811  16.520  65.980  1.00  0.00    -0.069 A  
HETATM   32  C   UNL     1     -12.073  14.763  64.862  1.00  0.00    -0.335 A  
HETATM   33  C   UNL     1     -11.502  16.036  64.855  1.00  0.00    -0.125 A  
ENDBRANCH  26  28
ENDBRANCH  25  26
ENDBRANCH   3  25
TORSDOF 9
ENDMDL
MODEL      416
REMARK 921   NORMALIZED FREE ENERGY PREDICTED BY IDOCK:   40.99 KCAL/MOL
REMARK 922        TOTAL FREE ENERGY PREDICTED BY IDOCK:   61.04 KCAL/MOL
REMARK 923 INTER-LIGAND FREE ENERGY PREDICTED BY IDOCK:   56.66 KCAL/MOL
REMARK 924 INTRA-LIGAND FREE ENERGY PREDICTED BY IDOCK:    4.38 KCAL/MOL
REMARK 927      BINDING AFFINITY PREDICTED BY RF-SCORE:    0.00 PKD
ROOT
HETATM    1  C   UNL     1     -11.509  20.389  64.357  1.00  0.00     2.948 C  
HETATM    2  C   UNL     1     -10.935  19.516  65.486  1.00  0.00    -0.028 C  
HETATM    3  C   UNL     1      -9.582  19.334  65.555  1.00  0.00     0.655 C  
ENDROOT
BRANCH   2   4
HETATM    4  N   UNL     1     -11.918  19.039  66.374  1.00  0.00     2.535 N  
HETATM    5  C   UNL     1     -13.225  19.551  66.351  1.00  0.00     9.339 C  
HETATM    6  O   UNL     1     -14.059  19.430  67.237  1.00  0.00     5.656 OA 
BRANCH   4   7
HETATM    7  C   UNL     1     -11.516  18.418  67.655  1.00  0.00     0.929 C  
BRANCH   7   8
HETATM    8  C   UNL     1     -11.894  16.954  67.782  1.00  0.00     1.011 A  
HETATM    9  H2  UNL     1     -12.055  17.775  65.338  1.00  0.00     0.000 HD 
HETATM   10  C   UNL     1     -12.151  16.219  68.885  1.00  0.00     0.279 A  
HETATM   11  N   UNL     1     -12.040  14.793  66.655  1.00  0.00    -0.205 NA 
HETATM   12  N   UNL     1     -12.147  14.841  68.991  1.00  0.00    -0.260 NA 
HETATM   13  H1  UNL     1     -12.145  16.209  64.521  1.00  0.00     0.000 HD 
HETATM   14  C   UNL     1     -11.736  12.699  67.954  1.00  0.00    -0.412 C  
HETATM   15  N   UNL     1     -12.072  16.756  65.380  1.00  0.00     1.846 NA 
HETATM   16  C   UNL     1     -12.022  14.176  67.879  1.00  0.00    -0.343 A  
HETATM   17  C   UNL     1     -12.001  16.154  66.523  1.00  0.00     1.381 A  
ENDBRANCH   7   8
ENDBRANCH   4   7
ENDBRANCH   2   4
BRANCH   3  18
HETATM   18  C   UNL     1      -8.613  20.280  64.716  1.00  0.00     2.012 C  
BRANCH  18  19
HETATM   19  C   UNL     1      -7.067  19.976  64.804  1.00  0.00     0.228 C  
BRANCH  19  20
HETATM   20  O   UNL     1      -6.684  18.790  65.596  1.00  0.00    -0.261 OA 
HETATM   21  O   UNL     1      -7.454  16.858  64.816  1.00  0.00     3.426 OA 
HETATM   22  O   UNL     1      -5.348  17.029  66.029  1.00  0.00    -0.314 OA 
HETATM   23  P   UNL     1      -5.987  17.547  64.615  1.00  0.00     3.527 P  
HETATM   24  O   UNL     1      -5.363  16.435  63.737  1.00  0.00     6.593 OA 
ENDBRANCH  19  20
ENDBRANCH  18  19
ENDBRANCH   3  18
BRANCH   3  25
HETATM   25  S   UNL     1      -8.728  18.087  66.580  1.00  0.00    -0.236 SA 
BRANCH  25  26
HETATM   26  C   UNL     1      -8.717  18.499  68.344  1.00  0.00    -0.327 C  
HETATM   27  O   UNL     1      -8.525  19.649  68.722  1.00  0.00    -0.330 OA 
BRANCH  26  28
HETATM   28  C   UNL     1      -8.856  17.380  69.403  1.00  0.00     0.393 A  
HETATM   29  C   UNL     1      -8.816  14.941  69.897  1.00  0.00     0.355 A  
HETATM   30  C   UNL     1      -8.733  16.024  68.995  1.00  0.00    -0.245 A  
HETATM   31  C   UNL     1      -9.027  17.573  70.776  1.00  0.00     5.328 A  
HETATM   32  C   UNL     1      -9.002  15.185  71.252  1.00  0.00     3.302 A  
HETATM   33  C   UNL     1      -9.100  16.506  71.690  1.00  0.00     7.879 A  
ENDBRANCH  26  28
ENDBRANCH  25  26
ENDBRANCH   3  25
TORSDOF 9
ENDMDL
MODEL      417
REMARK 921   NORMALIZED FREE ENERGY PREDICTED BY IDOCK:   50.14 KCAL/MOL
REMARK 922        TOTAL FREE ENERGY PREDICTED BY IDOCK:   75.00 KCAL/MOL
REMARK 923 INTER-LIGAND FREE ENERGY PREDICTED BY IDOCK:   57.80 KCAL/MOL
REMARK 924 INTRA-LIGAND FREE ENERGY PREDICTED BY IDOCK:   17.20 KCAL/MOL
REMARK 927      BINDING AFFINITY PREDICTED BY RF-SCORE:    0.00 PKD
ROOT
HETATM    1  C   UNL     1      -5.781  18.037  71.268  1.00  0.00     0.441 C  
HETATM    2  C   UNL     1      -6.647  17.614  70.069  1.00  0.00     0.337 C  
HETATM    3  C   UNL     1      -7.599  16.649  70.251  1.00  0.00     1.893 C  
ENDROOT
BRANCH   2   4
HETATM    4  N   UNL     1      -6.372  18.347  68.899  1.00  0.00    -0.223 N  
HETATM    5  C   UNL     1      -7.245  19.352  68.451  1.00  0.00    -0.310 C  
HETATM    6  O   UNL     1      -7.262  19.840  67.330  1.00  0.00    -0.216 OA 
BRANCH   4   7
HETATM    7  C   UNL     1      -5.502  17.768  67.852  1.00  0.00    -0.137 C  
BRANCH   7   8
HETATM    8  C   UNL     1      -5.929  16.389  67.383  1.00  0.00    -0.193 A  
HETATM    9  H2  UNL     1      -5.651  16.481  69.949  1.00  0.00     0.000 HD 
HETATM   10  C   UNL     1      -5.964  15.873  66.136  1.00  0.00     2.744 A  
HETATM   11  N   UNL     1      -7.059  14.306  67.971  1.00  0.00    -0.122 NA 
HETATM   12  N   UNL     1      -6.672  14.763  65.710  1.00  0.00     5.887 NA 
HETATM   13  H1  UNL     1      -6.483  14.981  70.376  1.00  0.00     0.000 HD 
HETATM   14  C   UNL     1      -8.253  13.012  66.221  1.00  0.00     0.841 C  
HETATM   15  N   UNL     1      -6.161  15.643  69.670  1.00  0.00    -0.149 NA 
HETATM   16  C   UNL     1      -7.252  14.058  66.636  1.00  0.00     1.617 A  
HETATM   17  C   UNL     1      -6.400  15.419  68.418  1.00  0.00    -0.110 A  
ENDBRANCH   7   8
ENDBRANCH   4   7
ENDBRANCH   2   4
BRANCH   3  18
HETATM   18  C   UNL     1      -8.036  16.238  71.726  1.00  0.00     8.472 C  
BRANCH  18  19
HETATM   19  C   UNL     1      -8.025  17.378  72.817  1.00  0.00    15.715 C  
BRANCH  19  20
HETATM   20  O   UNL     1      -7.715  18.738  72.331  1.00  0.00     6.262 OA 
HETATM   21  O   UNL     1      -9.443  19.837  71.468  1.00  0.00     2.005 OA 
HETATM   22  O   UNL     1      -7.604  20.972  72.594  1.00  0.00     2.216 OA 
HETATM   23  P   UNL     1      -8.803  19.923  72.968  1.00  0.00     6.101 P  
HETATM   24  O   UNL     1      -9.775  20.984  73.539  1.00  0.00     5.093 OA 
ENDBRANCH  19  20
ENDBRANCH  18  19
ENDBRANCH   3  18
BRANCH   3  25
HETATM   25  S   UNL     1      -8.485  15.767  68.920  1.00  0.00    -0.235 SA 
BRANCH  25  26
HETATM   26  C   UNL     1     -10.143  16.428  68.606  1.00  0.00    -0.244 C  
HETATM   27  O   UNL     1     -10.699  17.151  69.424  1.00  0.00    -0.288 OA 
BRANCH  26  28
HETATM   28  C   UNL     1     -10.917  16.009  67.334  1.00  0.00    -0.237 A  
HETATM   29  C   UNL     1     -12.285  14.275  66.186  1.00  0.00    -0.430 A  
HETATM   30  C   UNL     1     -11.533  14.729  67.292  1.00  0.00    -0.378 A  
HETATM   31  C   UNL     1     -11.139  16.812  66.212  1.00  0.00     0.318 A  
HETATM   32  C   UNL     1     -12.464  15.106  65.087  1.00  0.00     0.245 A  
HETATM   33  C   UNL     1     -11.894  16.379  65.107  1.00  0.00     0.889 A  
ENDBRANCH  26  28
ENDBRANCH  25  26
ENDBRANCH   3  25
TORSDOF 9
ENDMDL
