MODEL        1
REMARK 921   NORMALIZED FREE ENERGY PREDICTED BY IDOCK:   -6.35 KCAL/MOL
REMARK 922        TOTAL FREE ENERGY PREDICTED BY IDOCK:  -10.05 KCAL/MOL
REMARK 923 INTER-LIGAND FREE ENERGY PREDICTED BY IDOCK:   -8.57 KCAL/MOL
REMARK 924 INTRA-LIGAND FREE ENERGY PREDICTED BY IDOCK:   -1.48 KCAL/MOL
REMARK 927      BINDING AFFINITY PREDICTED BY RF-SCORE:    0.00 PKD
ROOT
HETATM    1  C   UNL     1     -10.256  20.076  66.554  1.00  0.00    -0.598 C  
HETATM    2  C   UNL     1     -10.400  18.577  66.463  1.00  0.00    -0.414 C  
HETATM    3  N   UNL     1     -10.246  17.950  67.689  1.00  0.00    -0.348 N  
HETATM    4  O   UNL     1     -10.634  18.047  65.383  1.00  0.00    -0.648 OA 
HETATM    5  H   UNL     1     -10.063  18.553  68.491  1.00  0.00     0.000 HD 
ENDROOT
BRANCH   3   6
HETATM    6  C   UNL     1     -10.318  16.560  67.945  1.00  0.00    -0.294 A  
HETATM    7  C   UNL     1     -11.508  15.895  68.248  1.00  0.00    -0.320 A  
HETATM    8  C   UNL     1     -11.530  14.516  68.465  1.00  0.00    -0.327 A  
HETATM    9  C   UNL     1     -10.361  13.772  68.356  1.00  0.00    -0.247 A  
HETATM   10  C   UNL     1      -9.135  15.810  67.885  1.00  0.00    -0.186 A  
HETATM   11  C   UNL     1      -9.153  14.423  68.098  1.00  0.00    -0.194 A  
BRANCH   9  12
HETATM   12  O   UNL     1     -10.304  12.360  68.474  1.00  0.00    -0.228 OA 
BRANCH  12  13
HETATM   13  C   UNL     1     -11.188  11.495  67.823  1.00  0.00    -0.279 C  
HETATM   14  O   UNL     1     -12.291  11.141  68.210  1.00  0.00    -0.532 OA 
BRANCH  13  15
HETATM   15  C   UNL     1     -10.615  11.075  66.519  1.00  0.00    -0.310 A  
HETATM   16  C   UNL     1      -9.667  10.037  66.460  1.00  0.00    -0.254 A  
HETATM   17  C   UNL     1      -9.158   9.611  65.230  1.00  0.00    -0.269 A  
HETATM   18  C   UNL     1      -9.592  10.203  64.047  1.00  0.00    -0.320 A  
HETATM   19  C   UNL     1     -10.541  11.221  64.087  1.00  0.00    -0.437 A  
HETATM   20  C   UNL     1     -11.034  11.671  65.321  1.00  0.00    -0.268 A  
BRANCH  20  21
HETATM   21  O   UNL     1     -12.041  12.657  65.307  1.00  0.00    -0.421 OA 
BRANCH  21  22
HETATM   22  C   UNL     1     -11.925  13.650  64.338  1.00  0.00    -0.437 C  
HETATM   23  O   UNL     1     -12.612  13.768  63.331  1.00  0.00    -0.842 OA 
HETATM   24  C   UNL     1     -10.883  14.641  64.763  1.00  0.00    -0.402 C  
ENDBRANCH  21  22
ENDBRANCH  20  21
ENDBRANCH  13  15
ENDBRANCH  12  13
ENDBRANCH   9  12
ENDBRANCH   3   6
TORSDOF 6
ENDMDL
MODEL        2
REMARK 921   NORMALIZED FREE ENERGY PREDICTED BY IDOCK:   -6.33 KCAL/MOL
REMARK 922        TOTAL FREE ENERGY PREDICTED BY IDOCK:  -10.03 KCAL/MOL
REMARK 923 INTER-LIGAND FREE ENERGY PREDICTED BY IDOCK:   -9.08 KCAL/MOL
REMARK 924 INTRA-LIGAND FREE ENERGY PREDICTED BY IDOCK:   -0.95 KCAL/MOL
REMARK 927      BINDING AFFINITY PREDICTED BY RF-SCORE:    0.00 PKD
ROOT
HETATM    1  C   UNL     1     -12.645   8.365  72.284  1.00  0.00    -0.401 C  
HETATM    2  C   UNL     1     -11.889   9.478  71.604  1.00  0.00    -0.397 C  
HETATM    3  N   UNL     1     -12.726  10.460  71.097  1.00  0.00    -0.380 N  
HETATM    4  O   UNL     1     -10.665   9.450  71.554  1.00  0.00    -0.346 OA 
HETATM    5  H   UNL     1     -13.727  10.325  71.238  1.00  0.00     0.000 HD 
ENDROOT
BRANCH   3   6
HETATM    6  C   UNL     1     -12.336  11.630  70.403  1.00  0.00    -0.288 A  
HETATM    7  C   UNL     1     -11.958  11.636  69.058  1.00  0.00    -0.368 A  
HETATM    8  C   UNL     1     -11.607  12.822  68.411  1.00  0.00    -0.365 A  
HETATM    9  C   UNL     1     -11.654  14.032  69.094  1.00  0.00    -0.313 A  
HETATM   10  C   UNL     1     -12.333  12.847  71.099  1.00  0.00    -0.262 A  
HETATM   11  C   UNL     1     -11.986  14.043  70.451  1.00  0.00    -0.398 A  
BRANCH   9  12
HETATM   12  O   UNL     1     -11.400  15.292  68.497  1.00  0.00    -0.293 OA 
BRANCH  12  13
HETATM   13  C   UNL     1     -10.116  15.790  68.262  1.00  0.00    -0.222 C  
HETATM   14  O   UNL     1      -9.059  15.194  68.397  1.00  0.00    -0.174 OA 
BRANCH  13  15
HETATM   15  C   UNL     1     -10.198  17.186  67.760  1.00  0.00    -0.324 A  
HETATM   16  C   UNL     1     -10.269  18.263  68.662  1.00  0.00    -0.377 A  
HETATM   17  C   UNL     1     -10.304  19.579  68.193  1.00  0.00    -0.550 A  
HETATM   18  C   UNL     1     -10.260  19.839  66.826  1.00  0.00    -0.582 A  
HETATM   19  C   UNL     1     -10.174  18.785  65.921  1.00  0.00    -0.305 A  
HETATM   20  C   UNL     1     -10.168  17.461  66.385  1.00  0.00    -0.338 A  
BRANCH  20  21
HETATM   21  O   UNL     1     -10.014  16.431  65.436  1.00  0.00    -0.534 OA 
BRANCH  21  22
HETATM   22  C   UNL     1     -11.164  16.032  64.760  1.00  0.00    -0.339 C  
HETATM   23  O   UNL     1     -11.779  16.681  63.924  1.00  0.00    -1.153 OA 
HETATM   24  C   UNL     1     -11.494  14.618  65.133  1.00  0.00    -0.375 C  
ENDBRANCH  21  22
ENDBRANCH  20  21
ENDBRANCH  13  15
ENDBRANCH  12  13
ENDBRANCH   9  12
ENDBRANCH   3   6
TORSDOF 6
ENDMDL
MODEL        3
REMARK 921   NORMALIZED FREE ENERGY PREDICTED BY IDOCK:   -6.17 KCAL/MOL
REMARK 922        TOTAL FREE ENERGY PREDICTED BY IDOCK:   -9.81 KCAL/MOL
REMARK 923 INTER-LIGAND FREE ENERGY PREDICTED BY IDOCK:   -8.90 KCAL/MOL
REMARK 924 INTRA-LIGAND FREE ENERGY PREDICTED BY IDOCK:   -0.90 KCAL/MOL
REMARK 927      BINDING AFFINITY PREDICTED BY RF-SCORE:    0.00 PKD
ROOT
HETATM    1  C   UNL     1     -10.493   6.489  74.060  1.00  0.00    -0.306 C  
HETATM    2  C   UNL     1     -10.992   7.057  72.756  1.00  0.00    -0.294 C  
HETATM    3  N   UNL     1     -10.612   8.377  72.568  1.00  0.00    -0.330 N  
HETATM    4  O   UNL     1     -11.651   6.360  71.993  1.00  0.00    -0.292 OA 
HETATM    5  H   UNL     1     -10.053   8.801  73.308  1.00  0.00     0.000 HD 
ENDROOT
BRANCH   3   6
HETATM    6  C   UNL     1     -10.920   9.197  71.456  1.00  0.00    -0.364 A  
HETATM    7  C   UNL     1     -10.063   9.367  70.367  1.00  0.00    -0.310 A  
HETATM    8  C   UNL     1     -10.425  10.166  69.281  1.00  0.00    -0.246 A  
HETATM    9  C   UNL     1     -11.667  10.790  69.254  1.00  0.00    -0.303 A  
HETATM   10  C   UNL     1     -12.150   9.869  71.445  1.00  0.00    -0.501 A  
HETATM   11  C   UNL     1     -12.521  10.669  70.352  1.00  0.00    -0.421 A  
BRANCH   9  12
HETATM   12  O   UNL     1     -12.153  11.547  68.158  1.00  0.00    -0.604 OA 
BRANCH  12  13
HETATM   13  C   UNL     1     -11.427  12.572  67.546  1.00  0.00    -0.336 C  
HETATM   14  O   UNL     1     -11.052  13.616  68.057  1.00  0.00    -0.247 OA 
BRANCH  13  15
HETATM   15  C   UNL     1     -11.109  12.200  66.144  1.00  0.00    -0.354 A  
HETATM   16  C   UNL     1     -10.446  10.992  65.862  1.00  0.00    -0.300 A  
HETATM   17  C   UNL     1     -10.183  10.619  64.540  1.00  0.00    -0.399 A  
HETATM   18  C   UNL     1     -10.585  11.435  63.487  1.00  0.00    -0.468 A  
HETATM   19  C   UNL     1     -11.257  12.627  63.748  1.00  0.00    -0.519 A  
HETATM   20  C   UNL     1     -11.497  13.019  65.074  1.00  0.00    -0.313 A  
BRANCH  20  21
HETATM   21  O   UNL     1     -12.237  14.200  65.287  1.00  0.00    -0.396 OA 
BRANCH  21  22
HETATM   22  C   UNL     1     -11.738  15.360  64.701  1.00  0.00    -0.267 C  
HETATM   23  O   UNL     1     -12.266  16.011  63.810  1.00  0.00    -0.895 OA 
HETATM   24  C   UNL     1     -10.479  15.771  65.406  1.00  0.00    -0.438 C  
ENDBRANCH  21  22
ENDBRANCH  20  21
ENDBRANCH  13  15
ENDBRANCH  12  13
ENDBRANCH   9  12
ENDBRANCH   3   6
TORSDOF 6
ENDMDL
MODEL        4
REMARK 921   NORMALIZED FREE ENERGY PREDICTED BY IDOCK:   -6.04 KCAL/MOL
REMARK 922        TOTAL FREE ENERGY PREDICTED BY IDOCK:   -9.63 KCAL/MOL
REMARK 923 INTER-LIGAND FREE ENERGY PREDICTED BY IDOCK:   -8.91 KCAL/MOL
REMARK 924 INTRA-LIGAND FREE ENERGY PREDICTED BY IDOCK:   -0.73 KCAL/MOL
REMARK 927      BINDING AFFINITY PREDICTED BY RF-SCORE:    0.00 PKD
ROOT
HETATM    1  C   UNL     1     -12.428  15.895  74.205  1.00  0.00    -0.773 C  
HETATM    2  C   UNL     1     -12.748  15.772  72.737  1.00  0.00    -0.454 C  
HETATM    3  N   UNL     1     -11.615  15.622  71.954  1.00  0.00    -0.437 N  
HETATM    4  O   UNL     1     -13.913  15.802  72.357  1.00  0.00    -0.518 OA 
HETATM    5  H   UNL     1     -10.720  15.610  72.443  1.00  0.00     0.000 HD 
ENDROOT
BRANCH   3   6
HETATM    6  C   UNL     1     -11.570  15.486  70.546  1.00  0.00    -0.346 A  
HETATM    7  C   UNL     1     -10.954  16.415  69.703  1.00  0.00    -0.329 A  
HETATM    8  C   UNL     1     -10.913  16.221  68.321  1.00  0.00    -0.348 A  
HETATM    9  C   UNL     1     -11.467  15.076  67.759  1.00  0.00    -0.334 A  
HETATM   10  C   UNL     1     -12.170  14.359  69.966  1.00  0.00    -0.408 A  
HETATM   11  C   UNL     1     -12.126  14.157  68.578  1.00  0.00    -0.312 A  
BRANCH   9  12
HETATM   12  O   UNL     1     -11.396  14.755  66.380  1.00  0.00    -0.345 OA 
BRANCH  12  13
HETATM   13  C   UNL     1     -12.237  13.826  65.760  1.00  0.00    -0.462 C  
HETATM   14  O   UNL     1     -13.454  13.876  65.676  1.00  0.00    -0.590 OA 
BRANCH  13  15
HETATM   15  C   UNL     1     -11.427  12.743  65.144  1.00  0.00    -0.356 A  
HETATM   16  C   UNL     1     -10.892  12.902  63.853  1.00  0.00    -0.402 A  
HETATM   17  C   UNL     1     -10.095  11.902  63.288  1.00  0.00    -0.427 A  
HETATM   18  C   UNL     1      -9.814  10.741  64.002  1.00  0.00    -0.390 A  
HETATM   19  C   UNL     1     -10.323  10.575  65.288  1.00  0.00    -0.300 A  
HETATM   20  C   UNL     1     -11.147  11.563  65.848  1.00  0.00    -0.214 A  
BRANCH  20  21
HETATM   21  O   UNL     1     -11.584  11.381  67.175  1.00  0.00    -0.519 OA 
BRANCH  21  22
HETATM   22  C   UNL     1     -10.662  10.833  68.063  1.00  0.00    -0.228 C  
HETATM   23  O   UNL     1     -10.671   9.694  68.511  1.00  0.00    -0.219 OA 
HETATM   24  C   UNL     1      -9.568  11.826  68.319  1.00  0.00    -0.199 C  
ENDBRANCH  21  22
ENDBRANCH  20  21
ENDBRANCH  13  15
ENDBRANCH  12  13
ENDBRANCH   9  12
ENDBRANCH   3   6
TORSDOF 6
ENDMDL
MODEL        5
REMARK 921   NORMALIZED FREE ENERGY PREDICTED BY IDOCK:   -5.89 KCAL/MOL
REMARK 922        TOTAL FREE ENERGY PREDICTED BY IDOCK:   -9.44 KCAL/MOL
REMARK 923 INTER-LIGAND FREE ENERGY PREDICTED BY IDOCK:   -8.96 KCAL/MOL
REMARK 924 INTRA-LIGAND FREE ENERGY PREDICTED BY IDOCK:   -0.48 KCAL/MOL
REMARK 927      BINDING AFFINITY PREDICTED BY RF-SCORE:    0.00 PKD
ROOT
HETATM    1  C   UNL     1     -10.906   5.037  73.873  1.00  0.00    -0.336 C  
HETATM    2  C   UNL     1     -11.073   5.944  72.680  1.00  0.00    -0.280 C  
HETATM    3  N   UNL     1     -11.413   7.239  73.037  1.00  0.00    -0.575 N  
HETATM    4  O   UNL     1     -10.901   5.509  71.547  1.00  0.00    -0.244 OA 
HETATM    5  H   UNL     1     -11.506   7.429  74.035  1.00  0.00     0.000 HD 
ENDROOT
BRANCH   3   6
HETATM    6  C   UNL     1     -11.644   8.327  72.162  1.00  0.00    -0.364 A  
HETATM    7  C   UNL     1     -12.904   8.894  71.958  1.00  0.00    -0.456 A  
HETATM    8  C   UNL     1     -13.077   9.984  71.103  1.00  0.00    -0.472 A  
HETATM    9  C   UNL     1     -11.981  10.545  70.456  1.00  0.00    -0.342 A  
HETATM   10  C   UNL     1     -10.553   8.867  71.467  1.00  0.00    -0.399 A  
HETATM   11  C   UNL     1     -10.720   9.966  70.611  1.00  0.00    -0.372 A  
BRANCH   9  12
HETATM   12  O   UNL     1     -12.048  11.703  69.640  1.00  0.00    -0.304 OA 
BRANCH  12  13
HETATM   13  C   UNL     1     -11.762  11.701  68.272  1.00  0.00    -0.304 C  
HETATM   14  O   UNL     1     -11.792  10.744  67.515  1.00  0.00    -0.451 OA 
BRANCH  13  15
HETATM   15  C   UNL     1     -11.446  13.080  67.820  1.00  0.00    -0.359 A  
HETATM   16  C   UNL     1     -10.671  13.934  68.626  1.00  0.00    -0.272 A  
HETATM   17  C   UNL     1     -10.338  15.218  68.185  1.00  0.00    -0.242 A  
HETATM   18  C   UNL     1     -10.761  15.662  66.935  1.00  0.00    -0.307 A  
HETATM   19  C   UNL     1     -11.516  14.825  66.118  1.00  0.00    -0.311 A  
HETATM   20  C   UNL     1     -11.877  13.546  66.569  1.00  0.00    -0.399 A  
BRANCH  20  21
HETATM   21  O   UNL     1     -12.585  12.711  65.682  1.00  0.00    -0.611 OA 
BRANCH  21  22
HETATM   22  C   UNL     1     -12.086  12.619  64.385  1.00  0.00    -0.415 C  
HETATM   23  O   UNL     1     -12.473  13.249  63.410  1.00  0.00    -0.741 OA 
HETATM   24  C   UNL     1     -10.908  11.691  64.370  1.00  0.00    -0.399 C  
ENDBRANCH  21  22
ENDBRANCH  20  21
ENDBRANCH  13  15
ENDBRANCH  12  13
ENDBRANCH   9  12
ENDBRANCH   3   6
TORSDOF 6
ENDMDL
MODEL        6
REMARK 921   NORMALIZED FREE ENERGY PREDICTED BY IDOCK:   -5.89 KCAL/MOL
REMARK 922        TOTAL FREE ENERGY PREDICTED BY IDOCK:   -9.43 KCAL/MOL
REMARK 923 INTER-LIGAND FREE ENERGY PREDICTED BY IDOCK:   -8.53 KCAL/MOL
REMARK 924 INTRA-LIGAND FREE ENERGY PREDICTED BY IDOCK:   -0.90 KCAL/MOL
REMARK 927      BINDING AFFINITY PREDICTED BY RF-SCORE:    0.00 PKD
ROOT
HETATM    1  C   UNL     1      -9.375  10.567  62.413  1.00  0.00    -0.281 C  
HETATM    2  C   UNL     1      -9.874  11.036  63.756  1.00  0.00    -0.330 C  
HETATM    3  N   UNL     1     -10.168  12.391  63.773  1.00  0.00    -0.495 N  
HETATM    4  O   UNL     1      -9.988  10.242  64.682  1.00  0.00    -0.336 OA 
HETATM    5  H   UNL     1     -10.021  12.901  62.902  1.00  0.00     0.000 HD 
ENDROOT
BRANCH   3   6
HETATM    6  C   UNL     1     -10.650  13.139  64.873  1.00  0.00    -0.349 A  
HETATM    7  C   UNL     1     -11.804  12.802  65.585  1.00  0.00    -0.472 A  
HETATM    8  C   UNL     1     -12.223  13.558  66.681  1.00  0.00    -0.411 A  
HETATM    9  C   UNL     1     -11.478  14.654  67.101  1.00  0.00    -0.368 A  
HETATM   10  C   UNL     1      -9.931  14.275  65.272  1.00  0.00    -0.313 A  
HETATM   11  C   UNL     1     -10.347  15.035  66.377  1.00  0.00    -0.293 A  
BRANCH   9  12
HETATM   12  O   UNL     1     -11.779  15.425  68.252  1.00  0.00    -0.360 OA 
BRANCH  12  13
HETATM   13  C   UNL     1     -11.144  15.252  69.485  1.00  0.00    -0.281 C  
HETATM   14  O   UNL     1      -9.977  15.493  69.753  1.00  0.00    -0.274 OA 
BRANCH  13  15
HETATM   15  C   UNL     1     -12.119  14.760  70.492  1.00  0.00    -0.378 A  
HETATM   16  C   UNL     1     -13.034  15.648  71.088  1.00  0.00    -0.539 A  
HETATM   17  C   UNL     1     -13.981  15.180  72.004  1.00  0.00    -0.629 A  
HETATM   18  C   UNL     1     -14.035  13.828  72.329  1.00  0.00    -0.672 A  
HETATM   19  C   UNL     1     -13.147  12.934  71.737  1.00  0.00    -0.458 A  
HETATM   20  C   UNL     1     -12.176  13.403  70.838  1.00  0.00    -0.282 A  
BRANCH  20  21
HETATM   21  O   UNL     1     -11.344  12.453  70.214  1.00  0.00     0.045 OA 
BRANCH  21  22
HETATM   22  C   UNL     1     -11.935  11.241  69.867  1.00  0.00    -0.365 C  
HETATM   23  O   UNL     1     -12.753  11.060  68.974  1.00  0.00    -0.260 OA 
HETATM   24  C   UNL     1     -11.338  10.141  70.692  1.00  0.00    -0.433 C  
ENDBRANCH  21  22
ENDBRANCH  20  21
ENDBRANCH  13  15
ENDBRANCH  12  13
ENDBRANCH   9  12
ENDBRANCH   3   6
TORSDOF 6
ENDMDL
MODEL        7
REMARK 921   NORMALIZED FREE ENERGY PREDICTED BY IDOCK:   -5.86 KCAL/MOL
REMARK 922        TOTAL FREE ENERGY PREDICTED BY IDOCK:   -9.39 KCAL/MOL
REMARK 923 INTER-LIGAND FREE ENERGY PREDICTED BY IDOCK:   -8.13 KCAL/MOL
REMARK 924 INTRA-LIGAND FREE ENERGY PREDICTED BY IDOCK:   -1.26 KCAL/MOL
REMARK 927      BINDING AFFINITY PREDICTED BY RF-SCORE:    0.00 PKD
ROOT
HETATM    1  C   UNL     1     -10.284  20.046  66.061  1.00  0.00    -0.568 C  
HETATM    2  C   UNL     1     -10.512  18.556  66.089  1.00  0.00    -0.413 C  
HETATM    3  N   UNL     1     -10.173  17.987  67.306  1.00  0.00    -0.348 N  
HETATM    4  O   UNL     1     -10.958  17.983  65.102  1.00  0.00    -0.645 OA 
HETATM    5  H   UNL     1      -9.823  18.620  68.025  1.00  0.00     0.000 HD 
ENDROOT
BRANCH   3   6
HETATM    6  C   UNL     1     -10.264  16.618  67.656  1.00  0.00    -0.285 A  
HETATM    7  C   UNL     1     -11.324  16.081  68.390  1.00  0.00    -0.355 A  
HETATM    8  C   UNL     1     -11.381  14.718  68.687  1.00  0.00    -0.305 A  
HETATM    9  C   UNL     1     -10.387  13.861  68.229  1.00  0.00    -0.249 A  
HETATM   10  C   UNL     1      -9.240  15.756  67.241  1.00  0.00    -0.217 A  
HETATM   11  C   UNL     1      -9.295  14.383  67.532  1.00  0.00    -0.198 A  
BRANCH   9  12
HETATM   12  O   UNL     1     -10.406  12.455  68.407  1.00  0.00    -0.221 OA 
BRANCH  12  13
HETATM   13  C   UNL     1     -11.381  11.620  67.853  1.00  0.00    -0.299 C  
HETATM   14  O   UNL     1     -12.232  10.982  68.453  1.00  0.00    -0.586 OA 
BRANCH  13  15
HETATM   15  C   UNL     1     -11.283  11.642  66.371  1.00  0.00    -0.349 A  
HETATM   16  C   UNL     1     -12.129  12.475  65.615  1.00  0.00    -0.464 A  
HETATM   17  C   UNL     1     -12.011  12.529  64.223  1.00  0.00    -0.484 A  
HETATM   18  C   UNL     1     -11.046  11.766  63.570  1.00  0.00    -0.503 A  
HETATM   19  C   UNL     1     -10.192  10.949  64.305  1.00  0.00    -0.430 A  
HETATM   20  C   UNL     1     -10.326  10.869  65.700  1.00  0.00    -0.242 A  
BRANCH  20  21
HETATM   21  O   UNL     1      -9.396  10.080  66.406  1.00  0.00    -0.157 OA 
BRANCH  21  22
HETATM   22  C   UNL     1      -9.422   8.712  66.150  1.00  0.00    -0.240 C  
HETATM   23  O   UNL     1      -8.673   8.096  65.403  1.00  0.00    -0.160 OA 
HETATM   24  C   UNL     1     -10.455   8.062  67.022  1.00  0.00    -0.410 C  
ENDBRANCH  21  22
ENDBRANCH  20  21
ENDBRANCH  13  15
ENDBRANCH  12  13
ENDBRANCH   9  12
ENDBRANCH   3   6
TORSDOF 6
ENDMDL
MODEL        8
REMARK 921   NORMALIZED FREE ENERGY PREDICTED BY IDOCK:   -5.84 KCAL/MOL
REMARK 922        TOTAL FREE ENERGY PREDICTED BY IDOCK:   -9.37 KCAL/MOL
REMARK 923 INTER-LIGAND FREE ENERGY PREDICTED BY IDOCK:   -8.34 KCAL/MOL
REMARK 924 INTRA-LIGAND FREE ENERGY PREDICTED BY IDOCK:   -1.03 KCAL/MOL
REMARK 927      BINDING AFFINITY PREDICTED BY RF-SCORE:    0.00 PKD
ROOT
HETATM    1  C   UNL     1     -13.887  13.659  72.572  1.00  0.00    -0.620 C  
HETATM    2  C   UNL     1     -13.447  14.435  71.357  1.00  0.00    -0.351 C  
HETATM    3  N   UNL     1     -12.434  13.800  70.656  1.00  0.00    -0.357 N  
HETATM    4  O   UNL     1     -13.982  15.502  71.080  1.00  0.00    -0.547 OA 
HETATM    5  H   UNL     1     -12.112  12.905  71.027  1.00  0.00     0.000 HD 
ENDROOT
BRANCH   3   6
HETATM    6  C   UNL     1     -11.799  14.262  69.479  1.00  0.00    -0.329 A  
HETATM    7  C   UNL     1     -12.102  13.782  68.203  1.00  0.00    -0.316 A  
HETATM    8  C   UNL     1     -11.466  14.291  67.069  1.00  0.00    -0.377 A  
HETATM    9  C   UNL     1     -10.531  15.312  67.191  1.00  0.00    -0.280 A  
HETATM   10  C   UNL     1     -10.818  15.257  69.598  1.00  0.00    -0.294 A  
HETATM   11  C   UNL     1     -10.180  15.776  68.460  1.00  0.00    -0.216 A  
BRANCH   9  12
HETATM   12  O   UNL     1      -9.901  15.948  66.091  1.00  0.00    -0.271 OA 
BRANCH  12  13
HETATM   13  C   UNL     1     -10.391  17.108  65.486  1.00  0.00    -0.115 C  
HETATM   14  O   UNL     1     -11.111  17.178  64.502  1.00  0.00    -1.105 OA 
BRANCH  13  15
HETATM   15  C   UNL     1      -9.948  18.303  66.249  1.00  0.00    -0.361 A  
HETATM   16  C   UNL     1     -10.868  19.031  67.027  1.00  0.00    -0.438 A  
HETATM   17  C   UNL     1     -10.445  20.131  67.779  1.00  0.00    -0.397 A  
HETATM   18  C   UNL     1      -9.106  20.512  67.776  1.00  0.00    -0.265 A  
HETATM   19  C   UNL     1      -8.181  19.792  67.024  1.00  0.00    -0.340 A  
HETATM   20  C   UNL     1      -8.605  18.705  66.244  1.00  0.00    -0.217 A  
BRANCH  20  21
HETATM   21  O   UNL     1      -7.623  17.968  65.553  1.00  0.00    -0.530 OA 
BRANCH  21  22
HETATM   22  C   UNL     1      -6.465  17.658  66.262  1.00  0.00    -0.253 C  
HETATM   23  O   UNL     1      -5.370  18.189  66.135  1.00  0.00    -0.142 OA 
HETATM   24  C   UNL     1      -6.782  16.628  67.305  1.00  0.00    -0.213 C  
ENDBRANCH  21  22
ENDBRANCH  20  21
ENDBRANCH  13  15
ENDBRANCH  12  13
ENDBRANCH   9  12
ENDBRANCH   3   6
TORSDOF 6
ENDMDL
MODEL        9
REMARK 921   NORMALIZED FREE ENERGY PREDICTED BY IDOCK:   -5.79 KCAL/MOL
REMARK 922        TOTAL FREE ENERGY PREDICTED BY IDOCK:   -9.30 KCAL/MOL
REMARK 923 INTER-LIGAND FREE ENERGY PREDICTED BY IDOCK:   -8.23 KCAL/MOL
REMARK 924 INTRA-LIGAND FREE ENERGY PREDICTED BY IDOCK:   -1.07 KCAL/MOL
REMARK 927      BINDING AFFINITY PREDICTED BY RF-SCORE:    0.00 PKD
ROOT
HETATM    1  C   UNL     1     -12.395  15.429  74.551  1.00  0.00    -0.700 C  
HETATM    2  C   UNL     1     -12.762  15.553  73.093  1.00  0.00    -0.478 C  
HETATM    3  N   UNL     1     -11.714  15.223  72.249  1.00  0.00    -0.432 N  
HETATM    4  O   UNL     1     -13.890  15.907  72.771  1.00  0.00    -0.584 OA 
HETATM    5  H   UNL     1     -10.841  14.938  72.694  1.00  0.00     0.000 HD 
ENDROOT
BRANCH   3   6
HETATM    6  C   UNL     1     -11.728  15.239  70.834  1.00  0.00    -0.344 A  
HETATM    7  C   UNL     1     -11.263  16.314  70.073  1.00  0.00    -0.324 A  
HETATM    8  C   UNL     1     -11.274  16.270  68.678  1.00  0.00    -0.354 A  
HETATM    9  C   UNL     1     -11.727  15.134  68.017  1.00  0.00    -0.285 A  
HETATM   10  C   UNL     1     -12.230  14.116  70.160  1.00  0.00    -0.415 A  
HETATM   11  C   UNL     1     -12.238  14.065  68.757  1.00  0.00    -0.237 A  
BRANCH   9  12
HETATM   12  O   UNL     1     -11.694  14.967  66.610  1.00  0.00    -0.325 OA 
BRANCH  12  13
HETATM   13  C   UNL     1     -10.517  14.993  65.857  1.00  0.00    -0.328 C  
HETATM   14  O   UNL     1     -10.233  15.770  64.960  1.00  0.00    -0.456 OA 
BRANCH  13  15
HETATM   15  C   UNL     1      -9.587  13.938  66.337  1.00  0.00    -0.292 A  
HETATM   16  C   UNL     1      -8.436  14.284  67.069  1.00  0.00    -0.190 A  
HETATM   17  C   UNL     1      -7.582  13.291  67.557  1.00  0.00    -0.169 A  
HETATM   18  C   UNL     1      -7.866  11.947  67.333  1.00  0.00    -0.158 A  
HETATM   19  C   UNL     1      -9.009  11.587  66.623  1.00  0.00    -0.185 A  
HETATM   20  C   UNL     1      -9.854  12.581  66.106  1.00  0.00    -0.258 A  
BRANCH  20  21
HETATM   21  O   UNL     1     -11.032  12.168  65.452  1.00  0.00    -0.285 OA 
BRANCH  21  22
HETATM   22  C   UNL     1     -10.977  12.090  64.063  1.00  0.00    -0.381 C  
HETATM   23  O   UNL     1      -9.993  11.817  63.388  1.00  0.00    -0.379 OA 
HETATM   24  C   UNL     1     -12.352  12.288  63.499  1.00  0.00    -0.670 C  
ENDBRANCH  21  22
ENDBRANCH  20  21
ENDBRANCH  13  15
ENDBRANCH  12  13
ENDBRANCH   9  12
ENDBRANCH   3   6
TORSDOF 6
ENDMDL
MODEL       10
REMARK 921   NORMALIZED FREE ENERGY PREDICTED BY IDOCK:   -5.76 KCAL/MOL
REMARK 922        TOTAL FREE ENERGY PREDICTED BY IDOCK:   -9.26 KCAL/MOL
REMARK 923 INTER-LIGAND FREE ENERGY PREDICTED BY IDOCK:   -8.27 KCAL/MOL
REMARK 924 INTRA-LIGAND FREE ENERGY PREDICTED BY IDOCK:   -0.99 KCAL/MOL
REMARK 927      BINDING AFFINITY PREDICTED BY RF-SCORE:    0.00 PKD
ROOT
HETATM    1  C   UNL     1     -12.384  15.826  74.497  1.00  0.00    -0.776 C  
HETATM    2  C   UNL     1     -12.716  15.708  73.031  1.00  0.00    -0.471 C  
HETATM    3  N   UNL     1     -11.620  15.345  72.263  1.00  0.00    -0.458 N  
HETATM    4  O   UNL     1     -13.858  15.918  72.639  1.00  0.00    -0.543 OA 
HETATM    5  H   UNL     1     -10.741  15.201  72.760  1.00  0.00     0.000 HD 
ENDROOT
BRANCH   3   6
HETATM    6  C   UNL     1     -11.594  15.155  70.861  1.00  0.00    -0.338 A  
HETATM    7  C   UNL     1     -12.058  13.997  70.234  1.00  0.00    -0.425 A  
HETATM    8  C   UNL     1     -12.035  13.869  68.844  1.00  0.00    -0.393 A  
HETATM    9  C   UNL     1     -11.570  14.913  68.053  1.00  0.00    -0.341 A  
HETATM   10  C   UNL     1     -11.081  16.184  70.059  1.00  0.00    -0.363 A  
HETATM   11  C   UNL     1     -11.061  16.062  68.660  1.00  0.00    -0.349 A  
BRANCH   9  12
HETATM   12  O   UNL     1     -11.591  14.906  66.635  1.00  0.00    -0.342 OA 
BRANCH  12  13
HETATM   13  C   UNL     1     -10.451  14.724  65.848  1.00  0.00    -0.312 C  
HETATM   14  O   UNL     1      -9.597  15.556  65.585  1.00  0.00    -0.336 OA 
BRANCH  13  15
HETATM   15  C   UNL     1     -10.376  13.315  65.385  1.00  0.00    -0.316 A  
HETATM   16  C   UNL     1     -10.874  12.954  64.119  1.00  0.00    -0.445 A  
HETATM   17  C   UNL     1     -10.767  11.637  63.664  1.00  0.00    -0.500 A  
HETATM   18  C   UNL     1     -10.155  10.668  64.455  1.00  0.00    -0.418 A  
HETATM   19  C   UNL     1      -9.643  11.012  65.703  1.00  0.00    -0.265 A  
HETATM   20  C   UNL     1      -9.774  12.326  66.177  1.00  0.00    -0.245 A  
BRANCH  20  21
HETATM   21  O   UNL     1      -9.182  12.641  67.416  1.00  0.00    -0.178 OA 
BRANCH  21  22
HETATM   22  C   UNL     1      -7.797  12.788  67.424  1.00  0.00    -0.172 C  
HETATM   23  O   UNL     1      -6.980  12.007  66.955  1.00  0.00    -0.142 OA 
HETATM   24  C   UNL     1      -7.442  14.122  68.009  1.00  0.00    -0.141 C  
ENDBRANCH  21  22
ENDBRANCH  20  21
ENDBRANCH  13  15
ENDBRANCH  12  13
ENDBRANCH   9  12
ENDBRANCH   3   6
TORSDOF 6
ENDMDL
MODEL       11
REMARK 921   NORMALIZED FREE ENERGY PREDICTED BY IDOCK:   -5.64 KCAL/MOL
REMARK 922        TOTAL FREE ENERGY PREDICTED BY IDOCK:   -9.10 KCAL/MOL
REMARK 923 INTER-LIGAND FREE ENERGY PREDICTED BY IDOCK:   -8.31 KCAL/MOL
REMARK 924 INTRA-LIGAND FREE ENERGY PREDICTED BY IDOCK:   -0.79 KCAL/MOL
REMARK 927      BINDING AFFINITY PREDICTED BY RF-SCORE:    0.00 PKD
ROOT
HETATM    1  C   UNL     1     -10.388   6.353  73.998  1.00  0.00    -0.340 C  
HETATM    2  C   UNL     1     -10.112   7.598  73.193  1.00  0.00    -0.323 C  
HETATM    3  N   UNL     1     -11.186   7.972  72.402  1.00  0.00    -0.341 N  
HETATM    4  O   UNL     1      -9.030   8.166  73.289  1.00  0.00    -0.251 OA 
HETATM    5  H   UNL     1     -12.018   7.384  72.454  1.00  0.00     0.000 HD 
ENDROOT
BRANCH   3   6
HETATM    6  C   UNL     1     -11.250   9.084  71.530  1.00  0.00    -0.348 A  
HETATM    7  C   UNL     1     -10.331   9.307  70.501  1.00  0.00    -0.312 A  
HETATM    8  C   UNL     1     -10.453  10.407  69.649  1.00  0.00    -0.279 A  
HETATM    9  C   UNL     1     -11.516  11.291  69.796  1.00  0.00    -0.310 A  
HETATM   10  C   UNL     1     -12.290  10.008  71.702  1.00  0.00    -0.486 A  
HETATM   11  C   UNL     1     -12.420  11.112  70.845  1.00  0.00    -0.509 A  
BRANCH   9  12
HETATM   12  O   UNL     1     -11.767  12.382  68.926  1.00  0.00    -0.288 OA 
BRANCH  12  13
HETATM   13  C   UNL     1     -11.469  12.365  67.561  1.00  0.00    -0.346 C  
HETATM   14  O   UNL     1     -11.907  11.596  66.720  1.00  0.00    -0.557 OA 
BRANCH  13  15
HETATM   15  C   UNL     1     -10.544  13.480  67.232  1.00  0.00    -0.263 A  
HETATM   16  C   UNL     1      -9.211  13.454  67.680  1.00  0.00    -0.212 A  
HETATM   17  C   UNL     1      -8.327  14.482  67.337  1.00  0.00    -0.217 A  
HETATM   18  C   UNL     1      -8.756  15.539  66.537  1.00  0.00    -0.340 A  
HETATM   19  C   UNL     1     -10.068  15.571  66.073  1.00  0.00    -0.354 A  
HETATM   20  C   UNL     1     -10.966  14.557  66.439  1.00  0.00    -0.324 A  
BRANCH  20  21
HETATM   21  O   UNL     1     -12.264  14.599  65.891  1.00  0.00    -0.282 OA 
BRANCH  21  22
HETATM   22  C   UNL     1     -12.350  14.670  64.503  1.00  0.00    -0.398 C  
HETATM   23  O   UNL     1     -12.553  15.676  63.837  1.00  0.00    -0.697 OA 
HETATM   24  C   UNL     1     -12.048  13.323  63.917  1.00  0.00    -0.531 C  
ENDBRANCH  21  22
ENDBRANCH  20  21
ENDBRANCH  13  15
ENDBRANCH  12  13
ENDBRANCH   9  12
ENDBRANCH   3   6
TORSDOF 6
ENDMDL
MODEL       12
REMARK 921   NORMALIZED FREE ENERGY PREDICTED BY IDOCK:   -5.62 KCAL/MOL
REMARK 922        TOTAL FREE ENERGY PREDICTED BY IDOCK:   -9.07 KCAL/MOL
REMARK 923 INTER-LIGAND FREE ENERGY PREDICTED BY IDOCK:   -7.88 KCAL/MOL
REMARK 924 INTRA-LIGAND FREE ENERGY PREDICTED BY IDOCK:   -1.18 KCAL/MOL
REMARK 927      BINDING AFFINITY PREDICTED BY RF-SCORE:    0.00 PKD
ROOT
HETATM    1  C   UNL     1      -6.759  19.690  69.727  1.00  0.00    -0.299 C  
HETATM    2  C   UNL     1      -7.708  19.277  68.631  1.00  0.00    -0.359 C  
HETATM    3  N   UNL     1      -7.991  17.920  68.652  1.00  0.00    -0.294 N  
HETATM    4  O   UNL     1      -8.146  20.113  67.849  1.00  0.00    -0.288 OA 
HETATM    5  H   UNL     1      -7.542  17.371  69.385  1.00  0.00     0.000 HD 
ENDROOT
BRANCH   3   6
HETATM    6  C   UNL     1      -8.837  17.218  67.762  1.00  0.00    -0.234 A  
HETATM    7  C   UNL     1     -10.231  17.296  67.804  1.00  0.00    -0.332 A  
HETATM    8  C   UNL     1     -11.022  16.604  66.885  1.00  0.00     0.050 A  
HETATM    9  C   UNL     1     -10.429  15.839  65.887  1.00  0.00    -0.352 A  
HETATM   10  C   UNL     1      -8.247  16.405  66.783  1.00  0.00    -0.286 A  
HETATM   11  C   UNL     1      -9.038  15.711  65.854  1.00  0.00    -0.277 A  
BRANCH   9  12
HETATM   12  O   UNL     1     -11.148  15.174  64.862  1.00  0.00    -0.389 OA 
BRANCH  12  13
HETATM   13  C   UNL     1     -11.953  14.054  65.086  1.00  0.00    -0.387 C  
HETATM   14  O   UNL     1     -13.130  14.046  65.410  1.00  0.00    -0.763 OA 
BRANCH  13  15
HETATM   15  C   UNL     1     -11.178  12.814  64.824  1.00  0.00    -0.339 A  
HETATM   16  C   UNL     1     -11.044  12.323  63.513  1.00  0.00    -0.533 A  
HETATM   17  C   UNL     1     -10.281  11.179  63.258  1.00  0.00    -0.403 A  
HETATM   18  C   UNL     1      -9.636  10.519  64.301  1.00  0.00    -0.364 A  
HETATM   19  C   UNL     1      -9.746  11.002  65.602  1.00  0.00    -0.276 A  
HETATM   20  C   UNL     1     -10.534  12.132  65.867  1.00  0.00    -0.254 A  
BRANCH  20  21
HETATM   21  O   UNL     1     -10.562  12.621  67.188  1.00  0.00    -0.233 OA 
BRANCH  21  22
HETATM   22  C   UNL     1     -11.698  12.324  67.937  1.00  0.00    -0.347 C  
HETATM   23  O   UNL     1     -12.267  11.242  67.999  1.00  0.00    -0.621 OA 
HETATM   24  C   UNL     1     -12.077  13.518  68.760  1.00  0.00    -0.305 C  
ENDBRANCH  21  22
ENDBRANCH  20  21
ENDBRANCH  13  15
ENDBRANCH  12  13
ENDBRANCH   9  12
ENDBRANCH   3   6
TORSDOF 6
ENDMDL
MODEL       13
REMARK 921   NORMALIZED FREE ENERGY PREDICTED BY IDOCK:   -5.58 KCAL/MOL
REMARK 922        TOTAL FREE ENERGY PREDICTED BY IDOCK:   -9.02 KCAL/MOL
REMARK 923 INTER-LIGAND FREE ENERGY PREDICTED BY IDOCK:   -8.06 KCAL/MOL
REMARK 924 INTRA-LIGAND FREE ENERGY PREDICTED BY IDOCK:   -0.95 KCAL/MOL
REMARK 927      BINDING AFFINITY PREDICTED BY RF-SCORE:    0.00 PKD
ROOT
HETATM    1  C   UNL     1     -11.334   8.378  72.214  1.00  0.00    -0.448 C  
HETATM    2  C   UNL     1     -10.962   9.509  71.289  1.00  0.00    -0.370 C  
HETATM    3  N   UNL     1     -12.026  10.357  71.027  1.00  0.00    -0.367 N  
HETATM    4  O   UNL     1      -9.816   9.605  70.863  1.00  0.00    -0.245 OA 
HETATM    5  H   UNL     1     -12.913  10.130  71.477  1.00  0.00     0.000 HD 
ENDROOT
BRANCH   3   6
HETATM    6  C   UNL     1     -12.011  11.504  70.199  1.00  0.00    -0.369 A  
HETATM    7  C   UNL     1     -12.169  12.805  70.685  1.00  0.00    -0.374 A  
HETATM    8  C   UNL     1     -12.119  13.907  69.830  1.00  0.00    -0.404 A  
HETATM    9  C   UNL     1     -11.884  13.728  68.471  1.00  0.00    -0.370 A  
HETATM   10  C   UNL     1     -11.824  11.329  68.820  1.00  0.00    -0.396 A  
HETATM   11  C   UNL     1     -11.768  12.435  67.957  1.00  0.00    -0.414 A  
BRANCH   9  12
HETATM   12  O   UNL     1     -11.731  14.791  67.545  1.00  0.00    -0.363 OA 
BRANCH  12  13
HETATM   13  C   UNL     1     -10.728  14.828  66.572  1.00  0.00    -0.319 C  
HETATM   14  O   UNL     1     -10.826  14.501  65.400  1.00  0.00    -0.315 OA 
BRANCH  13  15
HETATM   15  C   UNL     1      -9.480  15.386  67.154  1.00  0.00    -0.221 A  
HETATM   16  C   UNL     1      -8.334  14.580  67.284  1.00  0.00    -0.232 A  
HETATM   17  C   UNL     1      -7.146  15.114  67.792  1.00  0.00    -0.185 A  
HETATM   18  C   UNL     1      -7.081  16.454  68.165  1.00  0.00    -0.145 A  
HETATM   19  C   UNL     1      -8.202  17.268  68.028  1.00  0.00    -0.223 A  
HETATM   20  C   UNL     1      -9.405  16.730  67.546  1.00  0.00    -0.231 A  
BRANCH  20  21
HETATM   21  O   UNL     1     -10.492  17.608  67.363  1.00  0.00    -0.351 OA 
BRANCH  21  22
HETATM   22  C   UNL     1     -10.492  18.360  66.191  1.00  0.00    -0.395 C  
HETATM   23  O   UNL     1     -10.815  17.971  65.076  1.00  0.00    -0.738 OA 
HETATM   24  C   UNL     1     -10.133  19.780  66.511  1.00  0.00    -0.589 C  
ENDBRANCH  21  22
ENDBRANCH  20  21
ENDBRANCH  13  15
ENDBRANCH  12  13
ENDBRANCH   9  12
ENDBRANCH   3   6
TORSDOF 6
ENDMDL
MODEL       14
REMARK 921   NORMALIZED FREE ENERGY PREDICTED BY IDOCK:   -5.57 KCAL/MOL
REMARK 922        TOTAL FREE ENERGY PREDICTED BY IDOCK:   -9.00 KCAL/MOL
REMARK 923 INTER-LIGAND FREE ENERGY PREDICTED BY IDOCK:   -7.90 KCAL/MOL
REMARK 924 INTRA-LIGAND FREE ENERGY PREDICTED BY IDOCK:   -1.10 KCAL/MOL
REMARK 927      BINDING AFFINITY PREDICTED BY RF-SCORE:    0.00 PKD
ROOT
HETATM    1  C   UNL     1     -10.331   6.469  74.189  1.00  0.00    -0.351 C  
HETATM    2  C   UNL     1     -10.868   7.042  72.901  1.00  0.00    -0.301 C  
HETATM    3  N   UNL     1     -10.480   8.357  72.699  1.00  0.00    -0.304 N  
HETATM    4  O   UNL     1     -11.561   6.352  72.163  1.00  0.00    -0.286 OA 
HETATM    5  H   UNL     1      -9.890   8.776  73.418  1.00  0.00     0.000 HD 
ENDROOT
BRANCH   3   6
HETATM    6  C   UNL     1     -10.816   9.180  71.598  1.00  0.00    -0.372 A  
HETATM    7  C   UNL     1      -9.929   9.475  70.560  1.00  0.00    -0.335 A  
HETATM    8  C   UNL     1     -10.318  10.271  69.481  1.00  0.00    -0.267 A  
HETATM    9  C   UNL     1     -11.616  10.765  69.408  1.00  0.00    -0.308 A  
HETATM   10  C   UNL     1     -12.108   9.722  71.542  1.00  0.00    -0.493 A  
HETATM   11  C   UNL     1     -12.506  10.519  70.456  1.00  0.00    -0.433 A  
BRANCH   9  12
HETATM   12  O   UNL     1     -12.124  11.506  68.311  1.00  0.00    -0.580 OA 
BRANCH  12  13
HETATM   13  C   UNL     1     -11.469  12.609  67.756  1.00  0.00    -0.322 C  
HETATM   14  O   UNL     1     -10.933  13.527  68.356  1.00  0.00    -0.247 OA 
BRANCH  13  15
HETATM   15  C   UNL     1     -11.462  12.499  66.274  1.00  0.00    -0.421 A  
HETATM   16  C   UNL     1     -12.465  13.125  65.511  1.00  0.00    -0.516 A  
HETATM   17  C   UNL     1     -12.438  13.059  64.115  1.00  0.00    -0.374 A  
HETATM   18  C   UNL     1     -11.411  12.381  63.463  1.00  0.00    -0.553 A  
HETATM   19  C   UNL     1     -10.403  11.769  64.204  1.00  0.00    -0.376 A  
HETATM   20  C   UNL     1     -10.441  11.808  65.606  1.00  0.00    -0.265 A  
BRANCH  20  21
HETATM   21  O   UNL     1      -9.365  11.232  66.310  1.00  0.00    -0.194 OA 
BRANCH  21  22
HETATM   22  C   UNL     1      -8.964   9.962  65.902  1.00  0.00    -0.152 C  
HETATM   23  O   UNL     1      -7.890   9.666  65.396  1.00  0.00    -0.110 OA 
HETATM   24  C   UNL     1     -10.019   8.964  66.275  1.00  0.00    -0.337 C  
ENDBRANCH  21  22
ENDBRANCH  20  21
ENDBRANCH  13  15
ENDBRANCH  12  13
ENDBRANCH   9  12
ENDBRANCH   3   6
TORSDOF 6
ENDMDL
MODEL       15
REMARK 921   NORMALIZED FREE ENERGY PREDICTED BY IDOCK:   -5.54 KCAL/MOL
REMARK 922        TOTAL FREE ENERGY PREDICTED BY IDOCK:   -8.95 KCAL/MOL
REMARK 923 INTER-LIGAND FREE ENERGY PREDICTED BY IDOCK:   -8.00 KCAL/MOL
REMARK 924 INTRA-LIGAND FREE ENERGY PREDICTED BY IDOCK:   -0.96 KCAL/MOL
REMARK 927      BINDING AFFINITY PREDICTED BY RF-SCORE:    0.00 PKD
ROOT
HETATM    1  C   UNL     1     -11.164   5.874  73.008  1.00  0.00    -0.258 C  
HETATM    2  C   UNL     1     -10.924   7.303  72.592  1.00  0.00    -0.299 C  
HETATM    3  N   UNL     1     -11.568   7.630  71.410  1.00  0.00    -0.267 N  
HETATM    4  O   UNL     1     -10.227   8.036  73.284  1.00  0.00    -0.304 OA 
HETATM    5  H   UNL     1     -12.117   6.892  70.969  1.00  0.00     0.000 HD 
ENDROOT
BRANCH   3   6
HETATM    6  C   UNL     1     -11.542   8.882  70.750  1.00  0.00    -0.259 A  
HETATM    7  C   UNL     1     -10.746   9.145  69.632  1.00  0.00    -0.236 A  
HETATM    8  C   UNL     1     -10.777  10.389  69.000  1.00  0.00    -0.260 A  
HETATM    9  C   UNL     1     -11.629  11.387  69.460  1.00  0.00    -0.331 A  
HETATM   10  C   UNL     1     -12.362   9.909  71.238  1.00  0.00    -0.478 A  
HETATM   11  C   UNL     1     -12.401  11.160  70.602  1.00  0.00    -0.482 A  
BRANCH   9  12
HETATM   12  O   UNL     1     -11.791  12.647  68.830  1.00  0.00    -0.302 OA 
BRANCH  12  13
HETATM   13  C   UNL     1     -10.805  13.248  68.044  1.00  0.00    -0.243 C  
HETATM   14  O   UNL     1      -9.698  13.618  68.405  1.00  0.00    -0.224 OA 
BRANCH  13  15
HETATM   15  C   UNL     1     -11.270  13.346  66.637  1.00  0.00    -0.330 A  
HETATM   16  C   UNL     1     -11.631  12.187  65.925  1.00  0.00    -0.425 A  
HETATM   17  C   UNL     1     -12.109  12.280  64.615  1.00  0.00    -0.449 A  
HETATM   18  C   UNL     1     -12.243  13.523  64.002  1.00  0.00    -0.458 A  
HETATM   19  C   UNL     1     -11.904  14.681  64.698  1.00  0.00    -0.459 A  
HETATM   20  C   UNL     1     -11.397  14.591  66.003  1.00  0.00    -0.341 A  
BRANCH  20  21
HETATM   21  O   UNL     1     -11.131  15.792  66.690  1.00  0.00    -0.241 OA 
BRANCH  21  22
HETATM   22  C   UNL     1     -10.258  16.682  66.069  1.00  0.00    -0.351 C  
HETATM   23  O   UNL     1     -10.551  17.760  65.569  1.00  0.00    -0.632 OA 
HETATM   24  C   UNL     1      -8.854  16.172  66.196  1.00  0.00    -0.367 C  
ENDBRANCH  21  22
ENDBRANCH  20  21
ENDBRANCH  13  15
ENDBRANCH  12  13
ENDBRANCH   9  12
ENDBRANCH   3   6
TORSDOF 6
ENDMDL
MODEL       16
REMARK 921   NORMALIZED FREE ENERGY PREDICTED BY IDOCK:   -5.54 KCAL/MOL
REMARK 922        TOTAL FREE ENERGY PREDICTED BY IDOCK:   -8.95 KCAL/MOL
REMARK 923 INTER-LIGAND FREE ENERGY PREDICTED BY IDOCK:   -7.95 KCAL/MOL
REMARK 924 INTRA-LIGAND FREE ENERGY PREDICTED BY IDOCK:   -1.01 KCAL/MOL
REMARK 927      BINDING AFFINITY PREDICTED BY RF-SCORE:    0.00 PKD
ROOT
HETATM    1  C   UNL     1      -7.844  20.708  67.316  1.00  0.00    -0.341 C  
HETATM    2  C   UNL     1      -9.021  19.802  67.056  1.00  0.00    -0.329 C  
HETATM    3  N   UNL     1      -8.742  18.472  67.330  1.00  0.00    -0.260 N  
HETATM    4  O   UNL     1     -10.081  20.268  66.654  1.00  0.00    -0.443 OA 
HETATM    5  H   UNL     1      -7.803  18.263  67.669  1.00  0.00     0.000 HD 
ENDROOT
BRANCH   3   6
HETATM    6  C   UNL     1      -9.624  17.374  67.189  1.00  0.00    -0.265 A  
HETATM    7  C   UNL     1      -9.822  16.699  65.982  1.00  0.00    -0.335 A  
HETATM    8  C   UNL     1     -10.684  15.604  65.901  1.00  0.00    -0.336 A  
HETATM    9  C   UNL     1     -11.344  15.147  67.036  1.00  0.00    -0.277 A  
HETATM   10  C   UNL     1     -10.331  16.938  68.318  1.00  0.00    -0.335 A  
HETATM   11  C   UNL     1     -11.195  15.834  68.242  1.00  0.00    -0.356 A  
BRANCH   9  12
HETATM   12  O   UNL     1     -12.168  13.993  67.065  1.00  0.00    -0.430 OA 
BRANCH  12  13
HETATM   13  C   UNL     1     -12.282  13.099  65.998  1.00  0.00    -0.414 C  
HETATM   14  O   UNL     1     -13.040  13.182  65.045  1.00  0.00    -0.728 OA 
BRANCH  13  15
HETATM   15  C   UNL     1     -11.288  12.005  66.145  1.00  0.00    -0.407 A  
HETATM   16  C   UNL     1     -10.246  11.860  65.210  1.00  0.00    -0.309 A  
HETATM   17  C   UNL     1      -9.285  10.857  65.370  1.00  0.00    -0.231 A  
HETATM   18  C   UNL     1      -9.342   9.997  66.463  1.00  0.00    -0.201 A  
HETATM   19  C   UNL     1     -10.357  10.137  67.405  1.00  0.00    -0.289 A  
HETATM   20  C   UNL     1     -11.341  11.123  67.234  1.00  0.00    -0.226 A  
BRANCH  20  21
HETATM   21  O   UNL     1     -12.310  11.269  68.247  1.00  0.00    -0.542 OA 
BRANCH  21  22
HETATM   22  C   UNL     1     -11.841  11.635  69.507  1.00  0.00    -0.348 C  
HETATM   23  O   UNL     1     -11.249  12.667  69.792  1.00  0.00    -0.094 OA 
HETATM   24  C   UNL     1     -12.267  10.608  70.513  1.00  0.00    -0.449 C  
ENDBRANCH  21  22
ENDBRANCH  20  21
ENDBRANCH  13  15
ENDBRANCH  12  13
ENDBRANCH   9  12
ENDBRANCH   3   6
TORSDOF 6
ENDMDL
MODEL       17
REMARK 921   NORMALIZED FREE ENERGY PREDICTED BY IDOCK:   -5.53 KCAL/MOL
REMARK 922        TOTAL FREE ENERGY PREDICTED BY IDOCK:   -8.95 KCAL/MOL
REMARK 923 INTER-LIGAND FREE ENERGY PREDICTED BY IDOCK:   -7.96 KCAL/MOL
REMARK 924 INTRA-LIGAND FREE ENERGY PREDICTED BY IDOCK:   -0.99 KCAL/MOL
REMARK 927      BINDING AFFINITY PREDICTED BY RF-SCORE:    0.00 PKD
ROOT
HETATM    1  C   UNL     1     -12.249  14.708  64.421  1.00  0.00    -0.473 C  
HETATM    2  C   UNL     1     -12.354  13.475  65.282  1.00  0.00    -0.467 C  
HETATM    3  N   UNL     1     -11.654  13.593  66.472  1.00  0.00    -0.349 N  
HETATM    4  O   UNL     1     -13.013  12.514  64.903  1.00  0.00    -0.821 OA 
HETATM    5  H   UNL     1     -11.165  14.475  66.629  1.00  0.00     0.000 HD 
ENDROOT
BRANCH   3   6
HETATM    6  C   UNL     1     -11.548  12.619  67.493  1.00  0.00    -0.359 A  
HETATM    7  C   UNL     1     -11.050  11.332  67.277  1.00  0.00    -0.367 A  
HETATM    8  C   UNL     1     -10.940  10.415  68.324  1.00  0.00    -0.321 A  
HETATM    9  C   UNL     1     -11.302  10.780  69.615  1.00  0.00    -0.294 A  
HETATM   10  C   UNL     1     -11.957  12.964  68.789  1.00  0.00    -0.290 A  
HETATM   11  C   UNL     1     -11.843  12.047  69.846  1.00  0.00    -0.405 A  
BRANCH   9  12
HETATM   12  O   UNL     1     -11.143   9.947  70.751  1.00  0.00    -0.303 OA 
BRANCH  12  13
HETATM   13  C   UNL     1     -12.108   9.030  71.176  1.00  0.00    -0.287 C  
HETATM   14  O   UNL     1     -13.320   9.146  71.098  1.00  0.00    -0.263 OA 
BRANCH  13  15
HETATM   15  C   UNL     1     -11.446   7.815  71.719  1.00  0.00    -0.307 A  
HETATM   16  C   UNL     1     -11.092   7.746  73.079  1.00  0.00    -0.419 A  
HETATM   17  C   UNL     1     -10.507   6.588  73.601  1.00  0.00    -0.330 A  
HETATM   18  C   UNL     1     -10.279   5.486  72.782  1.00  0.00    -0.216 A  
HETATM   19  C   UNL     1     -10.637   5.533  71.437  1.00  0.00    -0.310 A  
HETATM   20  C   UNL     1     -11.198   6.703  70.902  1.00  0.00    -0.302 A  
BRANCH  20  21
HETATM   21  O   UNL     1     -11.604   6.680  69.553  1.00  0.00    -0.297 OA 
BRANCH  21  22
HETATM   22  C   UNL     1     -10.606   6.866  68.600  1.00  0.00    -0.223 C  
HETATM   23  O   UNL     1      -9.467   7.263  68.807  1.00  0.00    -0.143 OA 
HETATM   24  C   UNL     1     -11.102   6.400  67.264  1.00  0.00    -0.416 C  
ENDBRANCH  21  22
ENDBRANCH  20  21
ENDBRANCH  13  15
ENDBRANCH  12  13
ENDBRANCH   9  12
ENDBRANCH   3   6
TORSDOF 6
ENDMDL
MODEL       18
REMARK 921   NORMALIZED FREE ENERGY PREDICTED BY IDOCK:   -5.50 KCAL/MOL
REMARK 922        TOTAL FREE ENERGY PREDICTED BY IDOCK:   -8.91 KCAL/MOL
REMARK 923 INTER-LIGAND FREE ENERGY PREDICTED BY IDOCK:   -7.90 KCAL/MOL
REMARK 924 INTRA-LIGAND FREE ENERGY PREDICTED BY IDOCK:   -1.02 KCAL/MOL
REMARK 927      BINDING AFFINITY PREDICTED BY RF-SCORE:    0.00 PKD
ROOT
HETATM    1  C   UNL     1     -12.231  14.409  64.329  1.00  0.00    -0.450 C  
HETATM    2  C   UNL     1     -12.280  13.014  64.899  1.00  0.00    -0.441 C  
HETATM    3  N   UNL     1     -11.214  12.744  65.743  1.00  0.00    -0.297 N  
HETATM    4  O   UNL     1     -13.201  12.261  64.605  1.00  0.00    -0.763 OA 
HETATM    5  H   UNL     1     -10.540  13.496  65.882  1.00  0.00     0.000 HD 
ENDROOT
BRANCH   3   6
HETATM    6  C   UNL     1     -10.965  11.534  66.432  1.00  0.00    -0.284 A  
HETATM    7  C   UNL     1     -10.285  10.453  65.865  1.00  0.00    -0.302 A  
HETATM    8  C   UNL     1     -10.040   9.289  66.596  1.00  0.00    -0.341 A  
HETATM    9  C   UNL     1     -10.448   9.196  67.921  1.00  0.00    -0.237 A  
HETATM   10  C   UNL     1     -11.417  11.413  67.753  1.00  0.00    -0.353 A  
HETATM   11  C   UNL     1     -11.168  10.247  68.494  1.00  0.00    -0.271 A  
BRANCH   9  12
HETATM   12  O   UNL     1     -10.167   8.092  68.764  1.00  0.00    -0.198 OA 
BRANCH  12  13
HETATM   13  C   UNL     1     -10.805   6.853  68.652  1.00  0.00    -0.187 C  
HETATM   14  O   UNL     1     -11.280   6.358  67.643  1.00  0.00    -0.337 OA 
BRANCH  13  15
HETATM   15  C   UNL     1     -10.794   6.158  69.965  1.00  0.00    -0.408 A  
HETATM   16  C   UNL     1      -9.917   5.082  70.192  1.00  0.00    -0.328 A  
HETATM   17  C   UNL     1      -9.875   4.453  71.440  1.00  0.00    -0.262 A  
HETATM   18  C   UNL     1     -10.694   4.893  72.476  1.00  0.00    -0.258 A  
HETATM   19  C   UNL     1     -11.556   5.967  72.273  1.00  0.00    -0.359 A  
HETATM   20  C   UNL     1     -11.623   6.583  71.013  1.00  0.00    -0.348 A  
BRANCH  20  21
HETATM   21  O   UNL     1     -12.462   7.707  70.874  1.00  0.00    -0.221 OA 
BRANCH  21  22
HETATM   22  C   UNL     1     -12.145   8.818  71.651  1.00  0.00    -0.337 C  
HETATM   23  O   UNL     1     -11.029   9.290  71.824  1.00  0.00    -0.369 OA 
HETATM   24  C   UNL     1     -13.407   9.437  72.173  1.00  0.00    -0.545 C  
ENDBRANCH  21  22
ENDBRANCH  20  21
ENDBRANCH  13  15
ENDBRANCH  12  13
ENDBRANCH   9  12
ENDBRANCH   3   6
TORSDOF 6
ENDMDL
MODEL       19
REMARK 921   NORMALIZED FREE ENERGY PREDICTED BY IDOCK:   -5.49 KCAL/MOL
REMARK 922        TOTAL FREE ENERGY PREDICTED BY IDOCK:   -8.90 KCAL/MOL
REMARK 923 INTER-LIGAND FREE ENERGY PREDICTED BY IDOCK:   -7.72 KCAL/MOL
REMARK 924 INTRA-LIGAND FREE ENERGY PREDICTED BY IDOCK:   -1.18 KCAL/MOL
REMARK 927      BINDING AFFINITY PREDICTED BY RF-SCORE:    0.00 PKD
ROOT
HETATM    1  C   UNL     1     -12.762  12.429  63.952  1.00  0.00    -0.457 C  
HETATM    2  C   UNL     1     -12.202  13.721  64.491  1.00  0.00    -0.403 C  
HETATM    3  N   UNL     1     -11.397  13.531  65.603  1.00  0.00    -0.297 N  
HETATM    4  O   UNL     1     -12.471  14.785  63.944  1.00  0.00    -0.811 OA 
HETATM    5  H   UNL     1     -11.274  12.569  65.920  1.00  0.00     0.000 HD 
ENDROOT
BRANCH   3   6
HETATM    6  C   UNL     1     -10.727  14.533  66.345  1.00  0.00    -0.309 A  
HETATM    7  C   UNL     1      -9.524  15.115  65.939  1.00  0.00    -0.334 A  
HETATM    8  C   UNL     1      -8.916  16.120  66.693  1.00  0.00    -0.288 A  
HETATM    9  C   UNL     1      -9.518  16.580  67.859  1.00  0.00    -0.220 A  
HETATM   10  C   UNL     1     -11.302  14.968  67.548  1.00  0.00    -0.340 A  
HETATM   11  C   UNL     1     -10.697  15.982  68.307  1.00  0.00    -0.298 A  
BRANCH   9  12
HETATM   12  O   UNL     1      -9.019  17.653  68.640  1.00  0.00    -0.286 OA 
BRANCH  12  13
HETATM   13  C   UNL     1      -9.264  18.998  68.350  1.00  0.00    -0.352 C  
HETATM   14  O   UNL     1     -10.235  19.659  68.682  1.00  0.00    -0.433 OA 
BRANCH  13  15
HETATM   15  C   UNL     1      -8.121  19.567  67.589  1.00  0.00    -0.323 A  
HETATM   16  C   UNL     1      -8.175  19.658  66.186  1.00  0.00    -0.355 A  
HETATM   17  C   UNL     1      -7.120  20.231  65.472  1.00  0.00    -0.281 A  
HETATM   18  C   UNL     1      -6.006  20.729  66.142  1.00  0.00    -0.269 A  
HETATM   19  C   UNL     1      -5.944  20.662  67.532  1.00  0.00    -0.284 A  
HETATM   20  C   UNL     1      -6.988  20.061  68.251  1.00  0.00    -0.295 A  
BRANCH  20  21
HETATM   21  O   UNL     1      -6.911  20.075  69.658  1.00  0.00    -0.311 OA 
BRANCH  21  22
HETATM   22  C   UNL     1      -6.022  19.174  70.241  1.00  0.00    -0.186 C  
HETATM   23  O   UNL     1      -5.811  18.024  69.879  1.00  0.00    -0.238 OA 
HETATM   24  C   UNL     1      -5.264  19.861  71.337  1.00  0.00    -0.352 C  
ENDBRANCH  21  22
ENDBRANCH  20  21
ENDBRANCH  13  15
ENDBRANCH  12  13
ENDBRANCH   9  12
ENDBRANCH   3   6
TORSDOF 6
ENDMDL
MODEL       20
REMARK 921   NORMALIZED FREE ENERGY PREDICTED BY IDOCK:   -5.49 KCAL/MOL
REMARK 922        TOTAL FREE ENERGY PREDICTED BY IDOCK:   -8.89 KCAL/MOL
REMARK 923 INTER-LIGAND FREE ENERGY PREDICTED BY IDOCK:   -7.96 KCAL/MOL
REMARK 924 INTRA-LIGAND FREE ENERGY PREDICTED BY IDOCK:   -0.93 KCAL/MOL
REMARK 927      BINDING AFFINITY PREDICTED BY RF-SCORE:    0.00 PKD
ROOT
HETATM    1  C   UNL     1     -11.179   4.052  73.601  1.00  0.00    -0.305 C  
HETATM    2  C   UNL     1     -10.910   5.511  73.331  1.00  0.00    -0.288 C  
HETATM    3  N   UNL     1     -11.430   5.934  72.118  1.00  0.00    -0.293 N  
HETATM    4  O   UNL     1     -10.296   6.185  74.150  1.00  0.00    -0.282 OA 
HETATM    5  H   UNL     1     -11.923   5.235  71.563  1.00  0.00     0.000 HD 
ENDROOT
BRANCH   3   6
HETATM    6  C   UNL     1     -11.347   7.236  71.569  1.00  0.00    -0.251 A  
HETATM    7  C   UNL     1     -12.086   8.320  72.047  1.00  0.00    -0.402 A  
HETATM    8  C   UNL     1     -11.948   9.592  71.488  1.00  0.00    -0.475 A  
HETATM    9  C   UNL     1     -11.045   9.807  70.454  1.00  0.00    -0.307 A  
HETATM   10  C   UNL     1     -10.474   7.450  70.493  1.00  0.00    -0.227 A  
HETATM   11  C   UNL     1     -10.328   8.728  69.930  1.00  0.00    -0.212 A  
BRANCH   9  12
HETATM   12  O   UNL     1     -10.776  11.078  69.885  1.00  0.00    -0.164 OA 
BRANCH  12  13
HETATM   13  C   UNL     1     -11.593  11.683  68.927  1.00  0.00    -0.314 C  
HETATM   14  O   UNL     1     -12.105  11.152  67.953  1.00  0.00    -0.627 OA 
BRANCH  13  15
HETATM   15  C   UNL     1     -11.813  13.109  69.278  1.00  0.00    -0.377 A  
HETATM   16  C   UNL     1     -12.303  13.461  70.549  1.00  0.00    -0.401 A  
HETATM   17  C   UNL     1     -12.471  14.804  70.897  1.00  0.00    -0.396 A  
HETATM   18  C   UNL     1     -12.146  15.811  69.992  1.00  0.00    -0.344 A  
HETATM   19  C   UNL     1     -11.646  15.480  68.735  1.00  0.00    -0.390 A  
HETATM   20  C   UNL     1     -11.502  14.132  68.371  1.00  0.00    -0.302 A  
BRANCH  20  21
HETATM   21  O   UNL     1     -10.931  13.848  67.114  1.00  0.00    -0.284 OA 
BRANCH  21  22
HETATM   22  C   UNL     1     -11.691  14.181  65.996  1.00  0.00    -0.382 C  
HETATM   23  O   UNL     1     -12.850  13.853  65.780  1.00  0.00    -0.501 OA 
HETATM   24  C   UNL     1     -10.905  15.111  65.120  1.00  0.00    -0.437 C  
ENDBRANCH  21  22
ENDBRANCH  20  21
ENDBRANCH  13  15
ENDBRANCH  12  13
ENDBRANCH   9  12
ENDBRANCH   3   6
TORSDOF 6
ENDMDL
MODEL       21
REMARK 921   NORMALIZED FREE ENERGY PREDICTED BY IDOCK:   -5.48 KCAL/MOL
REMARK 922        TOTAL FREE ENERGY PREDICTED BY IDOCK:   -8.88 KCAL/MOL
REMARK 923 INTER-LIGAND FREE ENERGY PREDICTED BY IDOCK:   -7.95 KCAL/MOL
REMARK 924 INTRA-LIGAND FREE ENERGY PREDICTED BY IDOCK:   -0.94 KCAL/MOL
REMARK 927      BINDING AFFINITY PREDICTED BY RF-SCORE:    0.00 PKD
ROOT
HETATM    1  C   UNL     1     -11.708  14.296  66.879  1.00  0.00    -0.430 C  
HETATM    2  C   UNL     1     -11.862  12.946  67.532  1.00  0.00    -0.351 C  
HETATM    3  N   UNL     1     -11.727  13.000  68.911  1.00  0.00    -0.309 N  
HETATM    4  O   UNL     1     -12.090  11.954  66.849  1.00  0.00    -0.599 OA 
HETATM    5  H   UNL     1     -11.547  13.919  69.316  1.00  0.00     0.000 HD 
ENDROOT
BRANCH   3   6
HETATM    6  C   UNL     1     -11.812  11.915  69.814  1.00  0.00    -0.340 A  
HETATM    7  C   UNL     1     -12.767  11.834  70.831  1.00  0.00    -0.328 A  
HETATM    8  C   UNL     1     -12.826  10.728  71.680  1.00  0.00    -0.562 A  
HETATM    9  C   UNL     1     -11.945   9.666  71.509  1.00  0.00    -0.406 A  
HETATM   10  C   UNL     1     -10.895  10.862  69.679  1.00  0.00    -0.271 A  
HETATM   11  C   UNL     1     -10.955   9.745  70.528  1.00  0.00    -0.384 A  
BRANCH   9  12
HETATM   12  O   UNL     1     -11.989   8.468  72.266  1.00  0.00    -0.359 OA 
BRANCH  12  13
HETATM   13  C   UNL     1     -12.594   7.292  71.815  1.00  0.00    -0.341 C  
HETATM   14  O   UNL     1     -13.768   7.134  71.519  1.00  0.00    -0.377 OA 
BRANCH  13  15
HETATM   15  C   UNL     1     -11.577   6.217  71.687  1.00  0.00    -0.317 A  
HETATM   16  C   UNL     1     -11.143   5.510  72.823  1.00  0.00    -0.340 A  
HETATM   17  C   UNL     1     -10.217   4.469  72.701  1.00  0.00    -0.236 A  
HETATM   18  C   UNL     1      -9.722   4.114  71.449  1.00  0.00    -0.251 A  
HETATM   19  C   UNL     1     -10.153   4.794  70.313  1.00  0.00    -0.304 A  
HETATM   20  C   UNL     1     -11.060   5.857  70.434  1.00  0.00    -0.283 A  
BRANCH  20  21
HETATM   21  O   UNL     1     -11.516   6.471  69.251  1.00  0.00    -0.340 OA 
BRANCH  21  22
HETATM   22  C   UNL     1     -10.545   6.811  68.312  1.00  0.00    -0.230 C  
HETATM   23  O   UNL     1      -9.484   7.380  68.536  1.00  0.00    -0.144 OA 
HETATM   24  C   UNL     1     -10.941   6.274  66.969  1.00  0.00    -0.442 C  
ENDBRANCH  21  22
ENDBRANCH  20  21
ENDBRANCH  13  15
ENDBRANCH  12  13
ENDBRANCH   9  12
ENDBRANCH   3   6
TORSDOF 6
ENDMDL
MODEL       22
REMARK 921   NORMALIZED FREE ENERGY PREDICTED BY IDOCK:   -5.46 KCAL/MOL
REMARK 922        TOTAL FREE ENERGY PREDICTED BY IDOCK:   -8.85 KCAL/MOL
REMARK 923 INTER-LIGAND FREE ENERGY PREDICTED BY IDOCK:   -7.72 KCAL/MOL
REMARK 924 INTRA-LIGAND FREE ENERGY PREDICTED BY IDOCK:   -1.13 KCAL/MOL
REMARK 927      BINDING AFFINITY PREDICTED BY RF-SCORE:    0.00 PKD
ROOT
HETATM    1  C   UNL     1     -13.479  15.900  73.442  1.00  0.00    -0.513 C  
HETATM    2  C   UNL     1     -12.519  15.220  72.499  1.00  0.00    -0.363 C  
HETATM    3  N   UNL     1     -13.165  14.496  71.510  1.00  0.00    -0.339 N  
HETATM    4  O   UNL     1     -11.310  15.349  72.653  1.00  0.00    -0.417 OA 
HETATM    5  H   UNL     1     -14.185  14.506  71.528  1.00  0.00     0.000 HD 
ENDROOT
BRANCH   3   6
HETATM    6  C   UNL     1     -12.558  13.743  70.478  1.00  0.00    -0.291 A  
HETATM    7  C   UNL     1     -12.166  14.292  69.254  1.00  0.00    -0.289 A  
HETATM    8  C   UNL     1     -11.545  13.512  68.277  1.00  0.00    -0.381 A  
HETATM    9  C   UNL     1     -11.280  12.169  68.519  1.00  0.00    -0.260 A  
HETATM   10  C   UNL     1     -12.332  12.376  70.694  1.00  0.00    -0.367 A  
HETATM   11  C   UNL     1     -11.703  11.589  69.717  1.00  0.00    -0.426 A  
BRANCH   9  12
HETATM   12  O   UNL     1     -10.578  11.324  67.622  1.00  0.00    -0.194 OA 
BRANCH  12  13
HETATM   13  C   UNL     1      -9.407  11.703  66.962  1.00  0.00    -0.181 C  
HETATM   14  O   UNL     1      -8.427  12.243  67.450  1.00  0.00    -0.159 OA 
BRANCH  13  15
HETATM   15  C   UNL     1      -9.483  11.309  65.531  1.00  0.00    -0.255 A  
HETATM   16  C   UNL     1      -9.020  10.046  65.117  1.00  0.00    -0.227 A  
HETATM   17  C   UNL     1      -9.129   9.655  63.779  1.00  0.00    -0.220 A  
HETATM   18  C   UNL     1      -9.706  10.509  62.843  1.00  0.00    -0.304 A  
HETATM   19  C   UNL     1     -10.182  11.756  63.240  1.00  0.00    -0.452 A  
HETATM   20  C   UNL     1     -10.049  12.164  64.576  1.00  0.00    -0.259 A  
BRANCH  20  21
HETATM   21  O   UNL     1     -10.605  13.406  64.943  1.00  0.00    -0.340 OA 
BRANCH  21  22
HETATM   22  C   UNL     1     -11.980  13.545  64.774  1.00  0.00    -0.390 C  
HETATM   23  O   UNL     1     -12.839  12.735  65.098  1.00  0.00    -0.726 OA 
HETATM   24  C   UNL     1     -12.279  14.907  64.223  1.00  0.00    -0.365 C  
ENDBRANCH  21  22
ENDBRANCH  20  21
ENDBRANCH  13  15
ENDBRANCH  12  13
ENDBRANCH   9  12
ENDBRANCH   3   6
TORSDOF 6
ENDMDL
MODEL       23
REMARK 921   NORMALIZED FREE ENERGY PREDICTED BY IDOCK:   -5.44 KCAL/MOL
REMARK 922        TOTAL FREE ENERGY PREDICTED BY IDOCK:   -8.82 KCAL/MOL
REMARK 923 INTER-LIGAND FREE ENERGY PREDICTED BY IDOCK:   -7.74 KCAL/MOL
REMARK 924 INTRA-LIGAND FREE ENERGY PREDICTED BY IDOCK:   -1.09 KCAL/MOL
REMARK 927      BINDING AFFINITY PREDICTED BY RF-SCORE:    0.00 PKD
ROOT
HETATM    1  C   UNL     1      -8.680  20.378  67.371  1.00  0.00    -0.415 C  
HETATM    2  C   UNL     1      -8.702  19.188  66.446  1.00  0.00    -0.328 C  
HETATM    3  N   UNL     1      -9.711  18.289  66.756  1.00  0.00    -0.307 N  
HETATM    4  O   UNL     1      -7.885  19.100  65.537  1.00  0.00    -0.401 OA 
HETATM    5  H   UNL     1     -10.309  18.529  67.547  1.00  0.00     0.000 HD 
ENDROOT
BRANCH   3   6
HETATM    6  C   UNL     1      -9.998  17.075  66.088  1.00  0.00    -0.298 A  
HETATM    7  C   UNL     1      -9.322  15.880  66.344  1.00  0.00    -0.329 A  
HETATM    8  C   UNL     1      -9.662  14.701  65.677  1.00  0.00    -0.302 A  
HETATM    9  C   UNL     1     -10.706  14.692  64.759  1.00  0.00    -0.377 A  
HETATM   10  C   UNL     1     -11.016  17.069  65.125  1.00  0.00    -0.016 A  
HETATM   11  C   UNL     1     -11.365  15.885  64.456  1.00  0.00    -0.316 A  
BRANCH   9  12
HETATM   12  O   UNL     1     -11.175  13.527  64.101  1.00  0.00    -0.379 OA 
BRANCH  12  13
HETATM   13  C   UNL     1     -11.966  12.557  64.722  1.00  0.00    -0.409 C  
HETATM   14  O   UNL     1     -13.185  12.531  64.787  1.00  0.00    -0.839 OA 
BRANCH  13  15
HETATM   15  C   UNL     1     -11.104  11.483  65.279  1.00  0.00    -0.257 A  
HETATM   16  C   UNL     1     -10.225  10.771  64.443  1.00  0.00    -0.432 A  
HETATM   17  C   UNL     1      -9.383   9.789  64.972  1.00  0.00    -0.325 A  
HETATM   18  C   UNL     1      -9.397   9.512  66.337  1.00  0.00    -0.231 A  
HETATM   19  C   UNL     1     -10.250  10.218  67.180  1.00  0.00    -0.277 A  
HETATM   20  C   UNL     1     -11.118  11.185  66.649  1.00  0.00    -0.189 A  
BRANCH  20  21
HETATM   21  O   UNL     1     -11.915  11.919  67.550  1.00  0.00    -0.586 OA 
BRANCH  21  22
HETATM   22  C   UNL     1     -11.300  12.992  68.192  1.00  0.00    -0.294 C  
HETATM   23  O   UNL     1     -10.124  13.063  68.526  1.00  0.00    -0.234 OA 
HETATM   24  C   UNL     1     -12.279  14.120  68.325  1.00  0.00    -0.196 C  
ENDBRANCH  21  22
ENDBRANCH  20  21
ENDBRANCH  13  15
ENDBRANCH  12  13
ENDBRANCH   9  12
ENDBRANCH   3   6
TORSDOF 6
ENDMDL
MODEL       24
REMARK 921   NORMALIZED FREE ENERGY PREDICTED BY IDOCK:   -5.41 KCAL/MOL
REMARK 922        TOTAL FREE ENERGY PREDICTED BY IDOCK:   -8.78 KCAL/MOL
REMARK 923 INTER-LIGAND FREE ENERGY PREDICTED BY IDOCK:   -7.89 KCAL/MOL
REMARK 924 INTRA-LIGAND FREE ENERGY PREDICTED BY IDOCK:   -0.89 KCAL/MOL
REMARK 927      BINDING AFFINITY PREDICTED BY RF-SCORE:    0.00 PKD
ROOT
HETATM    1  C   UNL     1     -12.398  12.080  63.331  1.00  0.00    -0.635 C  
HETATM    2  C   UNL     1     -12.197  13.120  64.405  1.00  0.00    -0.398 C  
HETATM    3  N   UNL     1     -10.902  13.613  64.435  1.00  0.00    -0.521 N  
HETATM    4  O   UNL     1     -13.131  13.446  65.128  1.00  0.00    -0.724 OA 
HETATM    5  H   UNL     1     -10.252  13.232  63.747  1.00  0.00     0.000 HD 
ENDROOT
BRANCH   3   6
HETATM    6  C   UNL     1     -10.388  14.590  65.320  1.00  0.00    -0.410 A  
HETATM    7  C   UNL     1     -10.674  15.953  65.210  1.00  0.00    -0.442 A  
HETATM    8  C   UNL     1     -10.163  16.875  66.126  1.00  0.00    -0.352 A  
HETATM    9  C   UNL     1      -9.377  16.443  67.188  1.00  0.00    -0.218 A  
HETATM   10  C   UNL     1      -9.554  14.169  66.365  1.00  0.00    -0.310 A  
HETATM   11  C   UNL     1      -9.043  15.091  67.292  1.00  0.00    -0.213 A  
BRANCH   9  12
HETATM   12  O   UNL     1      -8.889  17.294  68.212  1.00  0.00    -0.242 OA 
BRANCH  12  13
HETATM   13  C   UNL     1      -7.541  17.636  68.354  1.00  0.00    -0.260 C  
HETATM   14  O   UNL     1      -6.828  17.436  69.324  1.00  0.00    -0.244 OA 
BRANCH  13  15
HETATM   15  C   UNL     1      -7.044  18.262  67.101  1.00  0.00    -0.211 A  
HETATM   16  C   UNL     1      -6.211  17.539  66.227  1.00  0.00    -0.267 A  
HETATM   17  C   UNL     1      -5.776  18.111  65.028  1.00  0.00    -0.055 A  
HETATM   18  C   UNL     1      -6.172  19.399  64.680  1.00  0.00    -0.249 A  
HETATM   19  C   UNL     1      -7.009  20.122  65.526  1.00  0.00    -0.332 A  
HETATM   20  C   UNL     1      -7.424  19.563  66.745  1.00  0.00    -0.241 A  
BRANCH  20  21
HETATM   21  O   UNL     1      -8.323  20.306  67.536  1.00  0.00    -0.325 OA 
BRANCH  21  22
HETATM   22  C   UNL     1      -9.663  20.263  67.162  1.00  0.00    -0.452 C  
HETATM   23  O   UNL     1     -10.101  20.286  66.019  1.00  0.00    -0.427 OA 
HETATM   24  C   UNL     1     -10.515  20.073  68.381  1.00  0.00    -0.369 C  
ENDBRANCH  21  22
ENDBRANCH  20  21
ENDBRANCH  13  15
ENDBRANCH  12  13
ENDBRANCH   9  12
ENDBRANCH   3   6
TORSDOF 6
ENDMDL
MODEL       25
REMARK 921   NORMALIZED FREE ENERGY PREDICTED BY IDOCK:   -5.39 KCAL/MOL
REMARK 922        TOTAL FREE ENERGY PREDICTED BY IDOCK:   -8.76 KCAL/MOL
REMARK 923 INTER-LIGAND FREE ENERGY PREDICTED BY IDOCK:   -7.60 KCAL/MOL
REMARK 924 INTRA-LIGAND FREE ENERGY PREDICTED BY IDOCK:   -1.16 KCAL/MOL
REMARK 927      BINDING AFFINITY PREDICTED BY RF-SCORE:    0.00 PKD
ROOT
HETATM    1  C   UNL     1     -10.368   7.478  68.878  1.00  0.00    -0.220 C  
HETATM    2  C   UNL     1     -10.106   8.938  68.612  1.00  0.00    -0.188 C  
HETATM    3  N   UNL     1     -11.164   9.564  67.973  1.00  0.00    -0.509 N  
HETATM    4  O   UNL     1      -9.047   9.447  68.963  1.00  0.00    -0.136 OA 
HETATM    5  H   UNL     1     -11.978   8.985  67.763  1.00  0.00     0.000 HD 
ENDROOT
BRANCH   3   6
HETATM    6  C   UNL     1     -11.234  10.921  67.580  1.00  0.00    -0.293 A  
HETATM    7  C   UNL     1     -10.903  11.368  66.299  1.00  0.00    -0.318 A  
HETATM    8  C   UNL     1     -11.015  12.716  65.952  1.00  0.00    -0.310 A  
HETATM    9  C   UNL     1     -11.488  13.640  66.878  1.00  0.00    -0.345 A  
HETATM   10  C   UNL     1     -11.663  11.866  68.523  1.00  0.00    -0.388 A  
HETATM   11  C   UNL     1     -11.782  13.222  68.178  1.00  0.00    -0.397 A  
BRANCH   9  12
HETATM   12  O   UNL     1     -11.716  15.009  66.589  1.00  0.00    -0.278 OA 
BRANCH  12  13
HETATM   13  C   UNL     1     -10.807  15.813  65.895  1.00  0.00    -0.268 C  
HETATM   14  O   UNL     1     -10.927  16.251  64.762  1.00  0.00    -0.631 OA 
BRANCH  13  15
HETATM   15  C   UNL     1      -9.642  16.123  66.763  1.00  0.00    -0.256 A  
HETATM   16  C   UNL     1      -8.459  15.368  66.661  1.00  0.00    -0.296 A  
HETATM   17  C   UNL     1      -7.346  15.684  67.446  1.00  0.00    -0.235 A  
HETATM   18  C   UNL     1      -7.394  16.758  68.331  1.00  0.00    -0.198 A  
HETATM   19  C   UNL     1      -8.551  17.525  68.432  1.00  0.00    -0.275 A  
HETATM   20  C   UNL     1      -9.680  17.193  67.668  1.00  0.00    -0.263 A  
BRANCH  20  21
HETATM   21  O   UNL     1     -10.805  18.037  67.756  1.00  0.00    -0.383 OA 
BRANCH  21  22
HETATM   22  C   UNL     1     -10.575  19.400  67.585  1.00  0.00    -0.458 C  
HETATM   23  O   UNL     1     -10.476  20.238  68.472  1.00  0.00    -0.325 OA 
HETATM   24  C   UNL     1     -10.354  19.689  66.130  1.00  0.00    -0.627 C  
ENDBRANCH  21  22
ENDBRANCH  20  21
ENDBRANCH  13  15
ENDBRANCH  12  13
ENDBRANCH   9  12
ENDBRANCH   3   6
TORSDOF 6
ENDMDL
MODEL       26
REMARK 921   NORMALIZED FREE ENERGY PREDICTED BY IDOCK:   -5.37 KCAL/MOL
REMARK 922        TOTAL FREE ENERGY PREDICTED BY IDOCK:   -8.73 KCAL/MOL
REMARK 923 INTER-LIGAND FREE ENERGY PREDICTED BY IDOCK:   -7.50 KCAL/MOL
REMARK 924 INTRA-LIGAND FREE ENERGY PREDICTED BY IDOCK:   -1.23 KCAL/MOL
REMARK 927      BINDING AFFINITY PREDICTED BY RF-SCORE:    0.00 PKD
ROOT
HETATM    1  C   UNL     1      -9.156   9.685  62.839  1.00  0.00    -0.241 C  
HETATM    2  C   UNL     1      -9.271  10.654  63.989  1.00  0.00    -0.239 C  
HETATM    3  N   UNL     1     -10.434  11.405  63.940  1.00  0.00    -0.353 N  
HETATM    4  O   UNL     1      -8.390  10.706  64.840  1.00  0.00    -0.160 OA 
HETATM    5  H   UNL     1     -11.064  11.222  63.159  1.00  0.00     0.000 HD 
ENDROOT
BRANCH   3   6
HETATM    6  C   UNL     1     -10.840  12.400  64.861  1.00  0.00    -0.297 A  
HETATM    7  C   UNL     1     -11.451  12.111  66.084  1.00  0.00    -0.429 A  
HETATM    8  C   UNL     1     -11.808  13.128  66.971  1.00  0.00    -0.435 A  
HETATM    9  C   UNL     1     -11.534  14.456  66.661  1.00  0.00    -0.363 A  
HETATM   10  C   UNL     1     -10.612  13.744  64.533  1.00  0.00    -0.405 A  
HETATM   11  C   UNL     1     -10.965  14.770  65.425  1.00  0.00    -0.365 A  
BRANCH   9  12
HETATM   12  O   UNL     1     -11.781  15.544  67.535  1.00  0.00    -0.194 OA 
BRANCH  12  13
HETATM   13  C   UNL     1     -11.320  15.594  68.854  1.00  0.00    -0.339 C  
HETATM   14  O   UNL     1     -11.944  15.310  69.864  1.00  0.00    -0.304 OA 
BRANCH  13  15
HETATM   15  C   UNL     1      -9.894  16.010  68.875  1.00  0.00    -0.232 A  
HETATM   16  C   UNL     1      -8.886  15.078  69.184  1.00  0.00    -0.184 A  
HETATM   17  C   UNL     1      -7.540  15.457  69.163  1.00  0.00    -0.198 A  
HETATM   18  C   UNL     1      -7.182  16.759  68.826  1.00  0.00    -0.217 A  
HETATM   19  C   UNL     1      -8.166  17.689  68.502  1.00  0.00    -0.292 A  
HETATM   20  C   UNL     1      -9.520  17.322  68.550  1.00  0.00    -0.285 A  
BRANCH  20  21
HETATM   21  O   UNL     1     -10.475  18.278  68.151  1.00  0.00    -0.373 OA 
BRANCH  21  22
HETATM   22  C   UNL     1     -10.322  18.814  66.875  1.00  0.00    -0.404 C  
HETATM   23  O   UNL     1     -10.487  18.227  65.813  1.00  0.00    -0.589 OA 
HETATM   24  C   UNL     1     -10.021  20.279  66.984  1.00  0.00    -0.601 C  
ENDBRANCH  21  22
ENDBRANCH  20  21
ENDBRANCH  13  15
ENDBRANCH  12  13
ENDBRANCH   9  12
ENDBRANCH   3   6
TORSDOF 6
ENDMDL
MODEL       27
REMARK 921   NORMALIZED FREE ENERGY PREDICTED BY IDOCK:   -5.35 KCAL/MOL
REMARK 922        TOTAL FREE ENERGY PREDICTED BY IDOCK:   -8.70 KCAL/MOL
REMARK 923 INTER-LIGAND FREE ENERGY PREDICTED BY IDOCK:   -7.34 KCAL/MOL
REMARK 924 INTRA-LIGAND FREE ENERGY PREDICTED BY IDOCK:   -1.36 KCAL/MOL
REMARK 927      BINDING AFFINITY PREDICTED BY RF-SCORE:    0.00 PKD
ROOT
HETATM    1  C   UNL     1      -9.635  10.298  62.916  1.00  0.00    -0.290 C  
HETATM    2  C   UNL     1     -10.444  11.358  63.620  1.00  0.00    -0.414 C  
HETATM    3  N   UNL     1      -9.692  12.090  64.525  1.00  0.00    -0.457 N  
HETATM    4  O   UNL     1     -11.632  11.500  63.358  1.00  0.00    -0.363 OA 
HETATM    5  H   UNL     1      -8.706  11.840  64.609  1.00  0.00     0.000 HD 
ENDROOT
BRANCH   3   6
HETATM    6  C   UNL     1     -10.149  13.148  65.346  1.00  0.00    -0.248 A  
HETATM    7  C   UNL     1     -10.471  14.416  64.856  1.00  0.00    -0.448 A  
HETATM    8  C   UNL     1     -10.944  15.420  65.703  1.00  0.00    -0.330 A  
HETATM    9  C   UNL     1     -11.129  15.163  67.057  1.00  0.00    -0.328 A  
HETATM   10  C   UNL     1     -10.291  12.912  66.720  1.00  0.00    -0.250 A  
HETATM   11  C   UNL     1     -10.772  13.916  67.576  1.00  0.00    -0.271 A  
BRANCH   9  12
HETATM   12  O   UNL     1     -11.685  16.091  67.973  1.00  0.00    -0.202 OA 
BRANCH  12  13
HETATM   13  C   UNL     1     -10.925  16.813  68.897  1.00  0.00    -0.259 C  
HETATM   14  O   UNL     1     -10.822  16.599  70.094  1.00  0.00    -0.301 OA 
BRANCH  13  15
HETATM   15  C   UNL     1     -10.183  17.898  68.203  1.00  0.00    -0.386 A  
HETATM   16  C   UNL     1     -10.881  18.922  67.537  1.00  0.00    -0.440 A  
HETATM   17  C   UNL     1     -10.186  19.967  66.919  1.00  0.00    -0.600 A  
HETATM   18  C   UNL     1      -8.795  20.009  66.965  1.00  0.00    -0.433 A  
HETATM   19  C   UNL     1      -8.091  19.011  67.633  1.00  0.00    -0.296 A  
HETATM   20  C   UNL     1      -8.782  17.946  68.230  1.00  0.00    -0.275 A  
BRANCH  20  21
HETATM   21  O   UNL     1      -8.031  16.995  68.950  1.00  0.00    -0.252 OA 
BRANCH  21  22
HETATM   22  C   UNL     1      -6.947  16.428  68.285  1.00  0.00    -0.137 C  
HETATM   23  O   UNL     1      -5.763  16.623  68.526  1.00  0.00    -0.118 OA 
HETATM   24  C   UNL     1      -7.445  15.437  67.277  1.00  0.00    -0.242 C  
ENDBRANCH  21  22
ENDBRANCH  20  21
ENDBRANCH  13  15
ENDBRANCH  12  13
ENDBRANCH   9  12
ENDBRANCH   3   6
TORSDOF 6
ENDMDL
MODEL       28
REMARK 921   NORMALIZED FREE ENERGY PREDICTED BY IDOCK:   -5.35 KCAL/MOL
REMARK 922        TOTAL FREE ENERGY PREDICTED BY IDOCK:   -8.70 KCAL/MOL
REMARK 923 INTER-LIGAND FREE ENERGY PREDICTED BY IDOCK:   -7.52 KCAL/MOL
REMARK 924 INTRA-LIGAND FREE ENERGY PREDICTED BY IDOCK:   -1.18 KCAL/MOL
REMARK 927      BINDING AFFINITY PREDICTED BY RF-SCORE:    0.00 PKD
ROOT
HETATM    1  C   UNL     1     -10.132   7.240  67.645  1.00  0.00    -0.232 C  
HETATM    2  C   UNL     1      -9.950   8.724  67.843  1.00  0.00    -0.187 C  
HETATM    3  N   UNL     1     -11.141   9.426  67.741  1.00  0.00    -0.487 N  
HETATM    4  O   UNL     1      -8.837   9.182  68.073  1.00  0.00    -0.129 OA 
HETATM    5  H   UNL     1     -11.980   8.878  67.553  1.00  0.00     0.000 HD 
ENDROOT
BRANCH   3   6
HETATM    6  C   UNL     1     -11.313  10.825  67.870  1.00  0.00    -0.299 A  
HETATM    7  C   UNL     1     -11.620  11.452  69.080  1.00  0.00    -0.383 A  
HETATM    8  C   UNL     1     -11.754  12.840  69.161  1.00  0.00    -0.375 A  
HETATM    9  C   UNL     1     -11.554  13.629  68.034  1.00  0.00    -0.333 A  
HETATM   10  C   UNL     1     -11.162  11.623  66.728  1.00  0.00    -0.371 A  
HETATM   11  C   UNL     1     -11.290  13.019  66.805  1.00  0.00    -0.365 A  
BRANCH   9  12
HETATM   12  O   UNL     1     -11.583  15.046  68.041  1.00  0.00    -0.328 OA 
BRANCH  12  13
HETATM   13  C   UNL     1     -11.174  15.821  69.130  1.00  0.00    -0.322 C  
HETATM   14  O   UNL     1     -11.837  16.123  70.109  1.00  0.00    -0.284 OA 
BRANCH  13  15
HETATM   15  C   UNL     1      -9.751  16.213  68.965  1.00  0.00    -0.248 A  
HETATM   16  C   UNL     1      -8.723  15.370  69.428  1.00  0.00    -0.252 A  
HETATM   17  C   UNL     1      -7.382  15.717  69.237  1.00  0.00    -0.207 A  
HETATM   18  C   UNL     1      -7.049  16.897  68.577  1.00  0.00    -0.198 A  
HETATM   19  C   UNL     1      -8.054  17.734  68.100  1.00  0.00    -0.265 A  
HETATM   20  C   UNL     1      -9.401  17.405  68.314  1.00  0.00    -0.278 A  
BRANCH  20  21
HETATM   21  O   UNL     1     -10.381  18.249  67.756  1.00  0.00    -0.364 OA 
BRANCH  21  22
HETATM   22  C   UNL     1     -10.398  18.347  66.367  1.00  0.00    -0.405 C  
HETATM   23  O   UNL     1     -10.543  17.427  65.573  1.00  0.00    -0.595 OA 
HETATM   24  C   UNL     1     -10.317  19.791  65.970  1.00  0.00    -0.612 C  
ENDBRANCH  21  22
ENDBRANCH  20  21
ENDBRANCH  13  15
ENDBRANCH  12  13
ENDBRANCH   9  12
ENDBRANCH   3   6
TORSDOF 6
ENDMDL
MODEL       29
REMARK 921   NORMALIZED FREE ENERGY PREDICTED BY IDOCK:   -5.34 KCAL/MOL
REMARK 922        TOTAL FREE ENERGY PREDICTED BY IDOCK:   -8.69 KCAL/MOL
REMARK 923 INTER-LIGAND FREE ENERGY PREDICTED BY IDOCK:   -7.93 KCAL/MOL
REMARK 924 INTRA-LIGAND FREE ENERGY PREDICTED BY IDOCK:   -0.76 KCAL/MOL
REMARK 927      BINDING AFFINITY PREDICTED BY RF-SCORE:    0.00 PKD
ROOT
HETATM    1  C   UNL     1     -10.532  19.481  65.949  1.00  0.00    -0.585 C  
HETATM    2  C   UNL     1     -10.533  17.975  66.017  1.00  0.00    -0.313 C  
HETATM    3  N   UNL     1     -10.432  17.499  67.315  1.00  0.00    -0.342 N  
HETATM    4  O   UNL     1     -10.623  17.312  64.990  1.00  0.00    -0.675 OA 
HETATM    5  H   UNL     1     -10.374  18.199  68.055  1.00  0.00     0.000 HD 
ENDROOT
BRANCH   3   6
HETATM    6  C   UNL     1     -10.402  16.144  67.720  1.00  0.00    -0.283 A  
HETATM    7  C   UNL     1     -11.492  15.491  68.302  1.00  0.00    -0.359 A  
HETATM    8  C   UNL     1     -11.420  14.144  68.660  1.00  0.00    -0.332 A  
HETATM    9  C   UNL     1     -10.260  13.416  68.417  1.00  0.00    -0.251 A  
HETATM   10  C   UNL     1      -9.220  15.416  67.524  1.00  0.00    -0.201 A  
HETATM   11  C   UNL     1      -9.144  14.060  67.878  1.00  0.00    -0.188 A  
BRANCH   9  12
HETATM   12  O   UNL     1     -10.127  12.027  68.667  1.00  0.00    -0.212 OA 
BRANCH  12  13
HETATM   13  C   UNL     1     -11.153  11.102  68.450  1.00  0.00    -0.247 C  
HETATM   14  O   UNL     1     -11.637  10.776  67.378  1.00  0.00    -0.485 OA 
BRANCH  13  15
HETATM   15  C   UNL     1     -11.571  10.500  69.742  1.00  0.00    -0.368 A  
HETATM   16  C   UNL     1     -12.500  11.161  70.567  1.00  0.00    -0.414 A  
HETATM   17  C   UNL     1     -12.927  10.577  71.763  1.00  0.00    -0.582 A  
HETATM   18  C   UNL     1     -12.446   9.328  72.147  1.00  0.00    -0.421 A  
HETATM   19  C   UNL     1     -11.538   8.654  71.334  1.00  0.00    -0.354 A  
HETATM   20  C   UNL     1     -11.084   9.249  70.147  1.00  0.00    -0.230 A  
BRANCH  20  21
HETATM   21  O   UNL     1     -10.218   8.500  69.325  1.00  0.00    -0.198 OA 
BRANCH  21  22
HETATM   22  C   UNL     1     -10.762   7.376  68.710  1.00  0.00    -0.118 C  
HETATM   23  O   UNL     1     -11.363   6.463  69.262  1.00  0.00    -0.379 OA 
HETATM   24  C   UNL     1     -10.597   7.493  67.224  1.00  0.00    -0.394 C  
ENDBRANCH  21  22
ENDBRANCH  20  21
ENDBRANCH  13  15
ENDBRANCH  12  13
ENDBRANCH   9  12
ENDBRANCH   3   6
TORSDOF 6
ENDMDL
MODEL       30
REMARK 921   NORMALIZED FREE ENERGY PREDICTED BY IDOCK:   -5.30 KCAL/MOL
REMARK 922        TOTAL FREE ENERGY PREDICTED BY IDOCK:   -8.64 KCAL/MOL
REMARK 923 INTER-LIGAND FREE ENERGY PREDICTED BY IDOCK:   -8.05 KCAL/MOL
REMARK 924 INTRA-LIGAND FREE ENERGY PREDICTED BY IDOCK:   -0.60 KCAL/MOL
REMARK 927      BINDING AFFINITY PREDICTED BY RF-SCORE:    0.00 PKD
ROOT
HETATM    1  C   UNL     1     -10.379   5.775  74.192  1.00  0.00    -0.295 C  
HETATM    2  C   UNL     1     -10.866   6.479  72.951  1.00  0.00    -0.258 C  
HETATM    3  N   UNL     1     -10.586   7.836  72.962  1.00  0.00    -0.367 N  
HETATM    4  O   UNL     1     -11.435   5.847  72.068  1.00  0.00    -0.286 OA 
HETATM    5  H   UNL     1     -10.094   8.195  73.781  1.00  0.00     0.000 HD 
ENDROOT
BRANCH   3   6
HETATM    6  C   UNL     1     -10.911   8.777  71.956  1.00  0.00    -0.358 A  
HETATM    7  C   UNL     1     -10.007   9.200  70.979  1.00  0.00    -0.367 A  
HETATM    8  C   UNL     1     -10.385  10.110  69.990  1.00  0.00    -0.301 A  
HETATM    9  C   UNL     1     -11.687  10.595  69.947  1.00  0.00    -0.317 A  
HETATM   10  C   UNL     1     -12.208   9.308  71.935  1.00  0.00    -0.448 A  
HETATM   11  C   UNL     1     -12.595  10.220  70.940  1.00  0.00    -0.465 A  
BRANCH   9  12
HETATM   12  O   UNL     1     -12.182  11.452  68.932  1.00  0.00    -0.458 OA 
BRANCH  12  13
HETATM   13  C   UNL     1     -11.893  12.818  68.866  1.00  0.00    -0.308 C  
HETATM   14  O   UNL     1     -11.901  13.618  69.789  1.00  0.00    -0.294 OA 
BRANCH  13  15
HETATM   15  C   UNL     1     -11.510  13.188  67.479  1.00  0.00    -0.371 A  
HETATM   16  C   UNL     1     -11.316  12.191  66.506  1.00  0.00    -0.405 A  
HETATM   17  C   UNL     1     -10.997  12.538  65.189  1.00  0.00    -0.332 A  
HETATM   18  C   UNL     1     -10.878  13.876  64.825  1.00  0.00    -0.430 A  
HETATM   19  C   UNL     1     -11.082  14.875  65.773  1.00  0.00    -0.342 A  
HETATM   20  C   UNL     1     -11.374  14.531  67.102  1.00  0.00    -0.350 A  
BRANCH  20  21
HETATM   21  O   UNL     1     -11.637  15.577  68.010  1.00  0.00    -0.342 OA 
BRANCH  21  22
HETATM   22  C   UNL     1     -10.635  16.531  68.165  1.00  0.00    -0.329 C  
HETATM   23  O   UNL     1     -10.689  17.706  67.826  1.00  0.00    -0.388 OA 
HETATM   24  C   UNL     1      -9.488  15.930  68.921  1.00  0.00    -0.234 C  
ENDBRANCH  21  22
ENDBRANCH  20  21
ENDBRANCH  13  15
ENDBRANCH  12  13
ENDBRANCH   9  12
ENDBRANCH   3   6
TORSDOF 6
ENDMDL
MODEL       31
REMARK 921   NORMALIZED FREE ENERGY PREDICTED BY IDOCK:   -5.29 KCAL/MOL
REMARK 922        TOTAL FREE ENERGY PREDICTED BY IDOCK:   -8.63 KCAL/MOL
REMARK 923 INTER-LIGAND FREE ENERGY PREDICTED BY IDOCK:   -7.47 KCAL/MOL
REMARK 924 INTRA-LIGAND FREE ENERGY PREDICTED BY IDOCK:   -1.16 KCAL/MOL
REMARK 927      BINDING AFFINITY PREDICTED BY RF-SCORE:    0.00 PKD
ROOT
HETATM    1  C   UNL     1      -9.274  20.483  67.302  1.00  0.00    -0.500 C  
HETATM    2  C   UNL     1      -9.975  19.293  66.695  1.00  0.00    -0.380 C  
HETATM    3  N   UNL     1      -9.881  18.158  67.485  1.00  0.00    -0.303 N  
HETATM    4  O   UNL     1     -10.550  19.401  65.619  1.00  0.00    -0.470 OA 
HETATM    5  H   UNL     1      -9.367  18.252  68.361  1.00  0.00     0.000 HD 
ENDROOT
BRANCH   3   6
HETATM    6  C   UNL     1     -10.422  16.882  67.202  1.00  0.00    -0.296 A  
HETATM    7  C   UNL     1     -10.271  16.239  65.971  1.00  0.00    -0.376 A  
HETATM    8  C   UNL     1     -10.802  14.967  65.750  1.00  0.00    -0.343 A  
HETATM    9  C   UNL     1     -11.473  14.302  66.770  1.00  0.00    -0.367 A  
HETATM   10  C   UNL     1     -11.143  16.226  68.209  1.00  0.00    -0.346 A  
HETATM   11  C   UNL     1     -11.675  14.944  67.994  1.00  0.00    -0.344 A  
BRANCH   9  12
HETATM   12  O   UNL     1     -11.968  12.978  66.664  1.00  0.00    -0.399 OA 
BRANCH  12  13
HETATM   13  C   UNL     1     -11.489  11.911  67.430  1.00  0.00    -0.323 C  
HETATM   14  O   UNL     1     -12.137  11.176  68.157  1.00  0.00    -0.633 OA 
BRANCH  13  15
HETATM   15  C   UNL     1     -10.030  11.743  67.205  1.00  0.00    -0.221 A  
HETATM   16  C   UNL     1      -9.106  12.179  68.172  1.00  0.00    -0.196 A  
HETATM   17  C   UNL     1      -7.735  11.984  67.982  1.00  0.00    -0.132 A  
HETATM   18  C   UNL     1      -7.269  11.346  66.836  1.00  0.00    -0.144 A  
HETATM   19  C   UNL     1      -8.171  10.894  65.877  1.00  0.00    -0.133 A  
HETATM   20  C   UNL     1      -9.546  11.113  66.049  1.00  0.00    -0.217 A  
BRANCH  20  21
HETATM   21  O   UNL     1     -10.423  10.580  65.084  1.00  0.00    -0.270 OA 
BRANCH  21  22
HETATM   22  C   UNL     1     -10.136  10.874  63.753  1.00  0.00    -0.353 C  
HETATM   23  O   UNL     1      -9.658  10.109  62.926  1.00  0.00    -0.300 OA 
HETATM   24  C   UNL     1     -10.604  12.264  63.439  1.00  0.00    -0.427 C  
ENDBRANCH  21  22
ENDBRANCH  20  21
ENDBRANCH  13  15
ENDBRANCH  12  13
ENDBRANCH   9  12
ENDBRANCH   3   6
TORSDOF 6
ENDMDL
MODEL       32
REMARK 921   NORMALIZED FREE ENERGY PREDICTED BY IDOCK:   -5.26 KCAL/MOL
REMARK 922        TOTAL FREE ENERGY PREDICTED BY IDOCK:   -8.58 KCAL/MOL
REMARK 923 INTER-LIGAND FREE ENERGY PREDICTED BY IDOCK:   -7.66 KCAL/MOL
REMARK 924 INTRA-LIGAND FREE ENERGY PREDICTED BY IDOCK:   -0.93 KCAL/MOL
REMARK 927      BINDING AFFINITY PREDICTED BY RF-SCORE:    0.00 PKD
ROOT
HETATM    1  C   UNL     1     -10.899   6.009  73.026  1.00  0.00    -0.290 C  
HETATM    2  C   UNL     1     -11.362   6.943  71.936  1.00  0.00    -0.263 C  
HETATM    3  N   UNL     1     -10.843   8.221  72.072  1.00  0.00    -0.278 N  
HETATM    4  O   UNL     1     -12.111   6.538  71.055  1.00  0.00    -0.352 OA 
HETATM    5  H   UNL     1     -10.223   8.381  72.867  1.00  0.00     0.000 HD 
ENDROOT
BRANCH   3   6
HETATM    6  C   UNL     1     -11.084   9.328  71.224  1.00  0.00    -0.357 A  
HETATM    7  C   UNL     1     -10.275   9.648  70.130  1.00  0.00    -0.313 A  
HETATM    8  C   UNL     1     -10.571  10.736  69.307  1.00  0.00    -0.261 A  
HETATM    9  C   UNL     1     -11.700  11.510  69.548  1.00  0.00    -0.346 A  
HETATM   10  C   UNL     1     -12.193  10.143  71.490  1.00  0.00    -0.473 A  
HETATM   11  C   UNL     1     -12.497  11.235  70.662  1.00  0.00    -0.439 A  
BRANCH   9  12
HETATM   12  O   UNL     1     -12.125  12.576  68.717  1.00  0.00    -0.268 OA 
BRANCH  12  13
HETATM   13  C   UNL     1     -11.929  13.924  69.030  1.00  0.00    -0.364 C  
HETATM   14  O   UNL     1     -12.531  14.583  69.862  1.00  0.00    -0.316 OA 
BRANCH  13  15
HETATM   15  C   UNL     1     -10.811  14.473  68.220  1.00  0.00    -0.247 A  
HETATM   16  C   UNL     1      -9.538  14.652  68.793  1.00  0.00    -0.210 A  
HETATM   17  C   UNL     1      -8.474  15.129  68.022  1.00  0.00    -0.148 A  
HETATM   18  C   UNL     1      -8.659  15.422  66.674  1.00  0.00    -0.318 A  
HETATM   19  C   UNL     1      -9.908  15.236  66.088  1.00  0.00    -0.333 A  
HETATM   20  C   UNL     1     -10.987  14.785  66.864  1.00  0.00    -0.328 A  
BRANCH  20  21
HETATM   21  O   UNL     1     -12.214  14.550  66.212  1.00  0.00    -0.359 OA 
BRANCH  21  22
HETATM   22  C   UNL     1     -12.259  13.459  65.348  1.00  0.00    -0.452 C  
HETATM   23  O   UNL     1     -12.315  12.279  65.668  1.00  0.00    -0.619 OA 
HETATM   24  C   UNL     1     -12.336  13.948  63.933  1.00  0.00    -0.323 C  
ENDBRANCH  21  22
ENDBRANCH  20  21
ENDBRANCH  13  15
ENDBRANCH  12  13
ENDBRANCH   9  12
ENDBRANCH   3   6
TORSDOF 6
ENDMDL
MODEL       33
REMARK 921   NORMALIZED FREE ENERGY PREDICTED BY IDOCK:   -5.26 KCAL/MOL
REMARK 922        TOTAL FREE ENERGY PREDICTED BY IDOCK:   -8.58 KCAL/MOL
REMARK 923 INTER-LIGAND FREE ENERGY PREDICTED BY IDOCK:   -8.02 KCAL/MOL
REMARK 924 INTRA-LIGAND FREE ENERGY PREDICTED BY IDOCK:   -0.56 KCAL/MOL
REMARK 927      BINDING AFFINITY PREDICTED BY RF-SCORE:    0.00 PKD
ROOT
HETATM    1  C   UNL     1     -11.275   4.392  73.536  1.00  0.00    -0.375 C  
HETATM    2  C   UNL     1     -10.972   5.834  73.217  1.00  0.00    -0.253 C  
HETATM    3  N   UNL     1     -11.947   6.422  72.427  1.00  0.00    -0.502 N  
HETATM    4  O   UNL     1      -9.955   6.361  73.653  1.00  0.00    -0.177 OA 
HETATM    5  H   UNL     1     -12.737   5.834  72.161  1.00  0.00     0.000 HD 
ENDROOT
BRANCH   3   6
HETATM    6  C   UNL     1     -11.961   7.754  71.950  1.00  0.00    -0.301 A  
HETATM    7  C   UNL     1     -12.965   8.673  72.265  1.00  0.00    -0.430 A  
HETATM    8  C   UNL     1     -12.920   9.985  71.791  1.00  0.00    -0.560 A  
HETATM    9  C   UNL     1     -11.849  10.410  71.012  1.00  0.00    -0.361 A  
HETATM   10  C   UNL     1     -10.911   8.177  71.123  1.00  0.00    -0.268 A  
HETATM   11  C   UNL     1     -10.857   9.497  70.648  1.00  0.00    -0.371 A  
BRANCH   9  12
HETATM   12  O   UNL     1     -11.676  11.743  70.560  1.00  0.00    -0.272 OA 
BRANCH  12  13
HETATM   13  C   UNL     1     -11.746  12.117  69.215  1.00  0.00    -0.328 C  
HETATM   14  O   UNL     1     -12.264  11.493  68.303  1.00  0.00    -0.561 OA 
BRANCH  13  15
HETATM   15  C   UNL     1     -11.127  13.455  69.030  1.00  0.00    -0.293 A  
HETATM   16  C   UNL     1      -9.941  13.592  68.284  1.00  0.00    -0.237 A  
HETATM   17  C   UNL     1      -9.378  14.854  68.073  1.00  0.00    -0.193 A  
HETATM   18  C   UNL     1      -9.992  15.992  68.590  1.00  0.00    -0.220 A  
HETATM   19  C   UNL     1     -11.174  15.875  69.316  1.00  0.00    -0.335 A  
HETATM   20  C   UNL     1     -11.727  14.608  69.556  1.00  0.00    -0.324 A  
BRANCH  20  21
HETATM   21  O   UNL     1     -12.957  14.545  70.240  1.00  0.00    -0.289 OA 
BRANCH  21  22
HETATM   22  C   UNL     1     -12.915  14.759  71.615  1.00  0.00    -0.334 C  
HETATM   23  O   UNL     1     -12.314  15.653  72.195  1.00  0.00    -0.354 OA 
HETATM   24  C   UNL     1     -13.820  13.777  72.298  1.00  0.00    -0.679 C  
ENDBRANCH  21  22
ENDBRANCH  20  21
ENDBRANCH  13  15
ENDBRANCH  12  13
ENDBRANCH   9  12
ENDBRANCH   3   6
TORSDOF 6
ENDMDL
MODEL       34
REMARK 921   NORMALIZED FREE ENERGY PREDICTED BY IDOCK:   -5.23 KCAL/MOL
REMARK 922        TOTAL FREE ENERGY PREDICTED BY IDOCK:   -8.54 KCAL/MOL
REMARK 923 INTER-LIGAND FREE ENERGY PREDICTED BY IDOCK:   -7.41 KCAL/MOL
REMARK 924 INTRA-LIGAND FREE ENERGY PREDICTED BY IDOCK:   -1.14 KCAL/MOL
REMARK 927      BINDING AFFINITY PREDICTED BY RF-SCORE:    0.00 PKD
ROOT
HETATM    1  C   UNL     1     -11.544   5.288  72.945  1.00  0.00    -0.292 C  
HETATM    2  C   UNL     1     -11.643   6.317  71.848  1.00  0.00    -0.317 C  
HETATM    3  N   UNL     1     -10.684   6.143  70.863  1.00  0.00    -0.244 N  
HETATM    4  O   UNL     1     -12.512   7.180  71.891  1.00  0.00    -0.321 OA 
HETATM    5  H   UNL     1     -10.040   5.361  70.985  1.00  0.00     0.000 HD 
ENDROOT
BRANCH   3   6
HETATM    6  C   UNL     1     -10.503   6.937  69.706  1.00  0.00    -0.217 A  
HETATM    7  C   UNL     1      -9.886   8.191  69.723  1.00  0.00    -0.187 A  
HETATM    8  C   UNL     1      -9.708   8.924  68.549  1.00  0.00    -0.172 A  
HETATM    9  C   UNL     1     -10.121   8.403  67.329  1.00  0.00    -0.253 A  
HETATM   10  C   UNL     1     -10.962   6.440  68.478  1.00  0.00    -0.396 A  
HETATM   11  C   UNL     1     -10.780   7.172  67.294  1.00  0.00    -0.399 A  
BRANCH   9  12
HETATM   12  O   UNL     1      -9.903   9.036  66.079  1.00  0.00    -0.277 OA 
BRANCH  12  13
HETATM   13  C   UNL     1      -9.378  10.325  65.948  1.00  0.00    -0.180 C  
HETATM   14  O   UNL     1      -8.227  10.676  66.151  1.00  0.00    -0.145 OA 
BRANCH  13  15
HETATM   15  C   UNL     1     -10.432  11.253  65.464  1.00  0.00    -0.323 A  
HETATM   16  C   UNL     1     -10.878  11.189  64.131  1.00  0.00    -0.355 A  
HETATM   17  C   UNL     1     -11.900  12.032  63.684  1.00  0.00    -0.602 A  
HETATM   18  C   UNL     1     -12.494  12.939  64.557  1.00  0.00    -0.468 A  
HETATM   19  C   UNL     1     -12.075  13.004  65.883  1.00  0.00    -0.503 A  
HETATM   20  C   UNL     1     -11.031  12.180  66.329  1.00  0.00    -0.295 A  
BRANCH  20  21
HETATM   21  O   UNL     1     -10.686  12.235  67.694  1.00  0.00    -0.212 OA 
BRANCH  21  22
HETATM   22  C   UNL     1     -11.717  12.018  68.605  1.00  0.00    -0.326 C  
HETATM   23  O   UNL     1     -12.406  11.011  68.698  1.00  0.00    -0.539 OA 
HETATM   24  C   UNL     1     -11.799  13.180  69.549  1.00  0.00    -0.383 C  
ENDBRANCH  21  22
ENDBRANCH  20  21
ENDBRANCH  13  15
ENDBRANCH  12  13
ENDBRANCH   9  12
ENDBRANCH   3   6
TORSDOF 6
ENDMDL
MODEL       35
REMARK 921   NORMALIZED FREE ENERGY PREDICTED BY IDOCK:   -5.23 KCAL/MOL
REMARK 922        TOTAL FREE ENERGY PREDICTED BY IDOCK:   -8.54 KCAL/MOL
REMARK 923 INTER-LIGAND FREE ENERGY PREDICTED BY IDOCK:   -7.74 KCAL/MOL
REMARK 924 INTRA-LIGAND FREE ENERGY PREDICTED BY IDOCK:   -0.79 KCAL/MOL
REMARK 927      BINDING AFFINITY PREDICTED BY RF-SCORE:    0.00 PKD
ROOT
HETATM    1  C   UNL     1     -12.317  14.795  64.152  1.00  0.00    -0.259 C  
HETATM    2  C   UNL     1     -12.338  13.534  64.978  1.00  0.00    -0.428 C  
HETATM    3  N   UNL     1     -11.292  13.473  65.886  1.00  0.00    -0.305 N  
HETATM    4  O   UNL     1     -13.223  12.703  64.811  1.00  0.00    -0.846 OA 
HETATM    5  H   UNL     1     -10.648  14.264  65.895  1.00  0.00     0.000 HD 
ENDROOT
BRANCH   3   6
HETATM    6  C   UNL     1     -11.024  12.427  66.801  1.00  0.00    -0.263 A  
HETATM    7  C   UNL     1     -11.345  12.494  68.159  1.00  0.00    -0.343 A  
HETATM    8  C   UNL     1     -11.085  11.423  69.016  1.00  0.00    -0.300 A  
HETATM    9  C   UNL     1     -10.521  10.252  68.522  1.00  0.00    -0.192 A  
HETATM   10  C   UNL     1     -10.411  11.262  66.320  1.00  0.00    -0.294 A  
HETATM   11  C   UNL     1     -10.152  10.180  67.177  1.00  0.00    -0.260 A  
BRANCH   9  12
HETATM   12  O   UNL     1     -10.303   9.086  69.299  1.00  0.00    -0.209 OA 
BRANCH  12  13
HETATM   13  C   UNL     1     -10.344   9.071  70.696  1.00  0.00    -0.229 C  
HETATM   14  O   UNL     1      -9.428   9.320  71.463  1.00  0.00    -0.266 OA 
BRANCH  13  15
HETATM   15  C   UNL     1     -11.718   8.743  71.157  1.00  0.00    -0.344 A  
HETATM   16  C   UNL     1     -12.565   9.756  71.642  1.00  0.00    -0.509 A  
HETATM   17  C   UNL     1     -13.873   9.457  72.038  1.00  0.00    -0.409 A  
HETATM   18  C   UNL     1     -14.354   8.154  71.945  1.00  0.00    -0.566 A  
HETATM   19  C   UNL     1     -13.534   7.143  71.452  1.00  0.00    -0.374 A  
HETATM   20  C   UNL     1     -12.211   7.433  71.081  1.00  0.00    -0.324 A  
BRANCH  20  21
HETATM   21  O   UNL     1     -11.441   6.391  70.526  1.00  0.00    -0.349 OA 
BRANCH  21  22
HETATM   22  C   UNL     1     -10.646   5.668  71.411  1.00  0.00    -0.253 C  
HETATM   23  O   UNL     1     -10.496   5.892  72.605  1.00  0.00    -0.191 OA 
HETATM   24  C   UNL     1     -10.065   4.481  70.702  1.00  0.00    -0.232 C  
ENDBRANCH  21  22
ENDBRANCH  20  21
ENDBRANCH  13  15
ENDBRANCH  12  13
ENDBRANCH   9  12
ENDBRANCH   3   6
TORSDOF 6
ENDMDL
MODEL       36
REMARK 921   NORMALIZED FREE ENERGY PREDICTED BY IDOCK:   -5.21 KCAL/MOL
REMARK 922        TOTAL FREE ENERGY PREDICTED BY IDOCK:   -8.51 KCAL/MOL
REMARK 923 INTER-LIGAND FREE ENERGY PREDICTED BY IDOCK:   -7.80 KCAL/MOL
REMARK 924 INTRA-LIGAND FREE ENERGY PREDICTED BY IDOCK:   -0.71 KCAL/MOL
REMARK 927      BINDING AFFINITY PREDICTED BY RF-SCORE:    0.00 PKD
ROOT
HETATM    1  C   UNL     1     -12.201  14.785  64.229  1.00  0.00    -0.402 C  
HETATM    2  C   UNL     1     -12.390  13.574  65.108  1.00  0.00    -0.449 C  
HETATM    3  N   UNL     1     -11.570  13.592  66.224  1.00  0.00    -0.331 N  
HETATM    4  O   UNL     1     -13.208  12.714  64.802  1.00  0.00    -0.846 OA 
HETATM    5  H   UNL     1     -10.952  14.397  66.325  1.00  0.00     0.000 HD 
ENDROOT
BRANCH   3   6
HETATM    6  C   UNL     1     -11.500  12.608  67.239  1.00  0.00    -0.342 A  
HETATM    7  C   UNL     1     -11.168  11.274  66.994  1.00  0.00    -0.324 A  
HETATM    8  C   UNL     1     -11.086  10.347  68.035  1.00  0.00    -0.359 A  
HETATM    9  C   UNL     1     -11.308  10.747  69.347  1.00  0.00    -0.285 A  
HETATM   10  C   UNL     1     -11.771  12.993  68.560  1.00  0.00    -0.377 A  
HETATM   11  C   UNL     1     -11.684  12.066  69.610  1.00  0.00    -0.405 A  
BRANCH   9  12
HETATM   12  O   UNL     1     -11.162   9.897  70.473  1.00  0.00    -0.279 OA 
BRANCH  12  13
HETATM   13  C   UNL     1     -10.010   9.148  70.729  1.00  0.00    -0.269 C  
HETATM   14  O   UNL     1      -8.880   9.371  70.325  1.00  0.00    -0.199 OA 
BRANCH  13  15
HETATM   15  C   UNL     1     -10.335   8.016  71.636  1.00  0.00    -0.267 A  
HETATM   16  C   UNL     1      -9.958   8.061  72.991  1.00  0.00    -0.349 A  
HETATM   17  C   UNL     1     -10.298   7.017  73.856  1.00  0.00    -0.386 A  
HETATM   18  C   UNL     1     -11.024   5.925  73.388  1.00  0.00    -0.230 A  
HETATM   19  C   UNL     1     -11.418   5.873  72.053  1.00  0.00    -0.311 A  
HETATM   20  C   UNL     1     -11.054   6.905  71.174  1.00  0.00    -0.260 A  
BRANCH  20  21
HETATM   21  O   UNL     1     -11.531   6.840  69.850  1.00  0.00    -0.323 OA 
BRANCH  21  22
HETATM   22  C   UNL     1     -10.777   6.086  68.954  1.00  0.00    -0.317 C  
HETATM   23  O   UNL     1     -10.390   4.936  69.116  1.00  0.00    -0.166 OA 
HETATM   24  C   UNL     1     -10.590   6.862  67.685  1.00  0.00    -0.328 C  
ENDBRANCH  21  22
ENDBRANCH  20  21
ENDBRANCH  13  15
ENDBRANCH  12  13
ENDBRANCH   9  12
ENDBRANCH   3   6
TORSDOF 6
ENDMDL
MODEL       37
REMARK 921   NORMALIZED FREE ENERGY PREDICTED BY IDOCK:   -5.19 KCAL/MOL
REMARK 922        TOTAL FREE ENERGY PREDICTED BY IDOCK:   -8.49 KCAL/MOL
REMARK 923 INTER-LIGAND FREE ENERGY PREDICTED BY IDOCK:   -7.28 KCAL/MOL
REMARK 924 INTRA-LIGAND FREE ENERGY PREDICTED BY IDOCK:   -1.21 KCAL/MOL
REMARK 927      BINDING AFFINITY PREDICTED BY RF-SCORE:    0.00 PKD
ROOT
HETATM    1  C   UNL     1     -11.576  12.764  63.599  1.00  0.00    -0.572 C  
HETATM    2  C   UNL     1     -11.526  12.145  64.972  1.00  0.00    -0.323 C  
HETATM    3  N   UNL     1     -10.392  11.372  65.169  1.00  0.00    -0.276 N  
HETATM    4  O   UNL     1     -12.427  12.355  65.776  1.00  0.00    -0.615 OA 
HETATM    5  H   UNL     1      -9.738  11.314  64.388  1.00  0.00     0.000 HD 
ENDROOT
BRANCH   3   6
HETATM    6  C   UNL     1     -10.048  10.656  66.339  1.00  0.00    -0.225 A  
HETATM    7  C   UNL     1      -9.460  11.249  67.459  1.00  0.00    -0.177 A  
HETATM    8  C   UNL     1      -9.163  10.503  68.601  1.00  0.00    -0.172 A  
HETATM    9  C   UNL     1      -9.476   9.150  68.653  1.00  0.00    -0.143 A  
HETATM   10  C   UNL     1     -10.314   9.280  66.381  1.00  0.00    -0.238 A  
HETATM   11  C   UNL     1     -10.023   8.526  67.529  1.00  0.00    -0.258 A  
BRANCH   9  12
HETATM   12  O   UNL     1      -9.292   8.335  69.798  1.00  0.00    -0.157 OA 
BRANCH  12  13
HETATM   13  C   UNL     1      -9.574   8.759  71.100  1.00  0.00    -0.242 C  
HETATM   14  O   UNL     1      -8.772   9.103  71.953  1.00  0.00    -0.336 OA 
BRANCH  13  15
HETATM   15  C   UNL     1     -11.044   8.785  71.316  1.00  0.00    -0.348 A  
HETATM   16  C   UNL     1     -11.763   9.984  71.163  1.00  0.00    -0.472 A  
HETATM   17  C   UNL     1     -13.152  10.003  71.324  1.00  0.00    -0.493 A  
HETATM   18  C   UNL     1     -13.840   8.831  71.628  1.00  0.00    -0.443 A  
HETATM   19  C   UNL     1     -13.144   7.633  71.766  1.00  0.00    -0.359 A  
HETATM   20  C   UNL     1     -11.747   7.614  71.634  1.00  0.00    -0.281 A  
BRANCH  20  21
HETATM   21  O   UNL     1     -11.095   6.368  71.718  1.00  0.00    -0.243 OA 
BRANCH  21  22
HETATM   22  C   UNL     1     -11.128   5.732  72.956  1.00  0.00    -0.265 C  
HETATM   23  O   UNL     1     -11.688   4.676  73.217  1.00  0.00    -0.290 OA 
HETATM   24  C   UNL     1     -10.269   6.487  73.926  1.00  0.00    -0.353 C  
ENDBRANCH  21  22
ENDBRANCH  20  21
ENDBRANCH  13  15
ENDBRANCH  12  13
ENDBRANCH   9  12
ENDBRANCH   3   6
TORSDOF 6
ENDMDL
MODEL       38
REMARK 921   NORMALIZED FREE ENERGY PREDICTED BY IDOCK:   -5.17 KCAL/MOL
REMARK 922        TOTAL FREE ENERGY PREDICTED BY IDOCK:   -8.46 KCAL/MOL
REMARK 923 INTER-LIGAND FREE ENERGY PREDICTED BY IDOCK:   -7.46 KCAL/MOL
REMARK 924 INTRA-LIGAND FREE ENERGY PREDICTED BY IDOCK:   -1.01 KCAL/MOL
REMARK 927      BINDING AFFINITY PREDICTED BY RF-SCORE:    0.00 PKD
ROOT
HETATM    1  C   UNL     1      -9.043   7.418  66.063  1.00  0.00    -0.129 C  
HETATM    2  C   UNL     1      -8.998   8.923  66.155  1.00  0.00    -0.178 C  
HETATM    3  N   UNL     1     -10.176   9.518  65.733  1.00  0.00    -0.270 N  
HETATM    4  O   UNL     1      -7.993   9.484  66.576  1.00  0.00    -0.110 OA 
HETATM    5  H   UNL     1     -10.919   8.893  65.421  1.00  0.00     0.000 HD 
ENDROOT
BRANCH   3   6
HETATM    6  C   UNL     1     -10.456  10.905  65.691  1.00  0.00    -0.208 A  
HETATM    7  C   UNL     1     -10.251  11.696  64.558  1.00  0.00    -0.337 A  
HETATM    8  C   UNL     1     -10.569  13.055  64.558  1.00  0.00    -0.413 A  
HETATM    9  C   UNL     1     -11.125  13.643  65.688  1.00  0.00    -0.294 A  
HETATM   10  C   UNL     1     -10.971  11.516  66.843  1.00  0.00    -0.350 A  
HETATM   11  C   UNL     1     -11.298  12.882  66.846  1.00  0.00    -0.358 A  
BRANCH   9  12
HETATM   12  O   UNL     1     -11.558  14.992  65.750  1.00  0.00    -0.292 OA 
BRANCH  12  13
HETATM   13  C   UNL     1     -10.757  16.077  65.386  1.00  0.00    -0.383 C  
HETATM   14  O   UNL     1     -10.920  16.827  64.436  1.00  0.00    -0.974 OA 
BRANCH  13  15
HETATM   15  C   UNL     1      -9.656  16.245  66.369  1.00  0.00    -0.316 A  
HETATM   16  C   UNL     1      -8.468  15.503  66.239  1.00  0.00    -0.120 A  
HETATM   17  C   UNL     1      -7.413  15.689  67.138  1.00  0.00    -0.253 A  
HETATM   18  C   UNL     1      -7.524  16.621  68.167  1.00  0.00    -0.170 A  
HETATM   19  C   UNL     1      -8.687  17.374  68.300  1.00  0.00    -0.261 A  
HETATM   20  C   UNL     1      -9.759  17.170  67.418  1.00  0.00    -0.253 A  
BRANCH  20  21
HETATM   21  O   UNL     1     -10.889  18.002  67.551  1.00  0.00    -0.379 OA 
BRANCH  21  22
HETATM   22  C   UNL     1     -10.654  19.374  67.546  1.00  0.00    -0.474 C  
HETATM   23  O   UNL     1     -10.464  20.084  68.525  1.00  0.00    -0.411 OA 
HETATM   24  C   UNL     1     -10.560  19.857  66.129  1.00  0.00    -0.526 C  
ENDBRANCH  21  22
ENDBRANCH  20  21
ENDBRANCH  13  15
ENDBRANCH  12  13
ENDBRANCH   9  12
ENDBRANCH   3   6
TORSDOF 6
ENDMDL
MODEL       39
REMARK 921   NORMALIZED FREE ENERGY PREDICTED BY IDOCK:   -5.16 KCAL/MOL
REMARK 922        TOTAL FREE ENERGY PREDICTED BY IDOCK:   -8.45 KCAL/MOL
REMARK 923 INTER-LIGAND FREE ENERGY PREDICTED BY IDOCK:   -7.58 KCAL/MOL
REMARK 924 INTRA-LIGAND FREE ENERGY PREDICTED BY IDOCK:   -0.87 KCAL/MOL
REMARK 927      BINDING AFFINITY PREDICTED BY RF-SCORE:    0.00 PKD
ROOT
HETATM    1  C   UNL     1     -12.786  11.902  63.524  1.00  0.00    -0.530 C  
HETATM    2  C   UNL     1     -12.347  12.998  64.462  1.00  0.00    -0.398 C  
HETATM    3  N   UNL     1     -10.968  13.096  64.560  1.00  0.00    -0.352 N  
HETATM    4  O   UNL     1     -13.181  13.690  65.033  1.00  0.00    -0.729 OA 
HETATM    5  H   UNL     1     -10.422  12.439  64.003  1.00  0.00     0.000 HD 
ENDROOT
BRANCH   3   6
HETATM    6  C   UNL     1     -10.238  14.012  65.354  1.00  0.00    -0.347 A  
HETATM    7  C   UNL     1     -10.299  15.397  65.181  1.00  0.00    -0.405 A  
HETATM    8  C   UNL     1      -9.580  16.261  66.008  1.00  0.00    -0.371 A  
HETATM    9  C   UNL     1      -8.806  15.754  67.046  1.00  0.00    -0.216 A  
HETATM   10  C   UNL     1      -9.416  13.506  66.371  1.00  0.00    -0.236 A  
HETATM   11  C   UNL     1      -8.695  14.371  67.209  1.00  0.00    -0.228 A  
BRANCH   9  12
HETATM   12  O   UNL     1      -8.113  16.557  67.987  1.00  0.00    -0.161 OA 
BRANCH  12  13
HETATM   13  C   UNL     1      -6.950  17.270  67.685  1.00  0.00    -0.154 C  
HETATM   14  O   UNL     1      -6.348  17.283  66.622  1.00  0.00    -0.176 OA 
BRANCH  13  15
HETATM   15  C   UNL     1      -6.540  18.088  68.855  1.00  0.00    -0.241 A  
HETATM   16  C   UNL     1      -5.671  17.555  69.825  1.00  0.00    -0.238 A  
HETATM   17  C   UNL     1      -5.250  18.336  70.906  1.00  0.00    -0.275 A  
HETATM   18  C   UNL     1      -5.679  19.655  71.028  1.00  0.00    -0.266 A  
HETATM   19  C   UNL     1      -6.527  20.202  70.068  1.00  0.00    -0.322 A  
HETATM   20  C   UNL     1      -6.975  19.413  68.998  1.00  0.00    -0.355 A  
BRANCH  20  21
HETATM   21  O   UNL     1      -7.778  20.029  68.017  1.00  0.00    -0.299 OA 
BRANCH  21  22
HETATM   22  C   UNL     1      -9.149  19.799  68.103  1.00  0.00    -0.314 C  
HETATM   23  O   UNL     1      -9.794  19.620  69.127  1.00  0.00    -0.424 OA 
HETATM   24  C   UNL     1      -9.758  19.910  66.737  1.00  0.00    -0.538 C  
ENDBRANCH  21  22
ENDBRANCH  20  21
ENDBRANCH  13  15
ENDBRANCH  12  13
ENDBRANCH   9  12
ENDBRANCH   3   6
TORSDOF 6
ENDMDL
MODEL       40
REMARK 921   NORMALIZED FREE ENERGY PREDICTED BY IDOCK:   -5.14 KCAL/MOL
REMARK 922        TOTAL FREE ENERGY PREDICTED BY IDOCK:   -8.42 KCAL/MOL
REMARK 923 INTER-LIGAND FREE ENERGY PREDICTED BY IDOCK:   -7.51 KCAL/MOL
REMARK 924 INTRA-LIGAND FREE ENERGY PREDICTED BY IDOCK:   -0.90 KCAL/MOL
REMARK 927      BINDING AFFINITY PREDICTED BY RF-SCORE:    0.00 PKD
ROOT
HETATM    1  C   UNL     1     -10.191  19.755  66.785  1.00  0.00    -0.582 C  
HETATM    2  C   UNL     1     -10.290  18.626  67.779  1.00  0.00    -0.410 C  
HETATM    3  N   UNL     1     -10.609  17.416  67.184  1.00  0.00    -0.306 N  
HETATM    4  O   UNL     1     -10.088  18.835  68.970  1.00  0.00    -0.393 OA 
HETATM    5  H   UNL     1     -10.734  17.423  66.171  1.00  0.00     0.000 HD 
ENDROOT
BRANCH   3   6
HETATM    6  C   UNL     1     -10.780  16.170  67.834  1.00  0.00    -0.321 A  
HETATM    7  C   UNL     1      -9.899  15.097  67.682  1.00  0.00    -0.219 A  
HETATM    8  C   UNL     1     -10.097  13.897  68.367  1.00  0.00    -0.237 A  
HETATM    9  C   UNL     1     -11.170  13.759  69.240  1.00  0.00    -0.242 A  
HETATM   10  C   UNL     1     -11.887  16.006  68.678  1.00  0.00    -0.174 A  
HETATM   11  C   UNL     1     -12.087  14.803  69.373  1.00  0.00    -0.305 A  
BRANCH   9  12
HETATM   12  O   UNL     1     -11.399  12.611  70.041  1.00  0.00    -0.077 OA 
BRANCH  12  13
HETATM   13  C   UNL     1     -11.851  11.391  69.530  1.00  0.00    -0.357 C  
HETATM   14  O   UNL     1     -12.172  11.149  68.378  1.00  0.00    -0.610 OA 
BRANCH  13  15
HETATM   15  C   UNL     1     -11.847  10.362  70.602  1.00  0.00    -0.445 A  
HETATM   16  C   UNL     1     -13.027  10.071  71.311  1.00  0.00    -0.495 A  
HETATM   17  C   UNL     1     -13.037   9.074  72.291  1.00  0.00    -0.508 A  
HETATM   18  C   UNL     1     -11.880   8.350  72.569  1.00  0.00    -0.427 A  
HETATM   19  C   UNL     1     -10.709   8.616  71.864  1.00  0.00    -0.414 A  
HETATM   20  C   UNL     1     -10.686   9.635  70.900  1.00  0.00    -0.332 A  
BRANCH  20  21
HETATM   21  O   UNL     1      -9.497   9.822  70.168  1.00  0.00    -0.240 OA 
BRANCH  21  22
HETATM   22  C   UNL     1      -9.222   8.882  69.179  1.00  0.00    -0.144 C  
HETATM   23  O   UNL     1      -9.940   8.590  68.232  1.00  0.00    -0.171 OA 
HETATM   24  C   UNL     1      -7.839   8.338  69.381  1.00  0.00    -0.104 C  
ENDBRANCH  21  22
ENDBRANCH  20  21
ENDBRANCH  13  15
ENDBRANCH  12  13
ENDBRANCH   9  12
ENDBRANCH   3   6
TORSDOF 6
ENDMDL
MODEL       41
REMARK 921   NORMALIZED FREE ENERGY PREDICTED BY IDOCK:   -5.13 KCAL/MOL
REMARK 922        TOTAL FREE ENERGY PREDICTED BY IDOCK:   -8.41 KCAL/MOL
REMARK 923 INTER-LIGAND FREE ENERGY PREDICTED BY IDOCK:   -8.54 KCAL/MOL
REMARK 924 INTRA-LIGAND FREE ENERGY PREDICTED BY IDOCK:    0.13 KCAL/MOL
REMARK 927      BINDING AFFINITY PREDICTED BY RF-SCORE:    0.00 PKD
ROOT
HETATM    1  C   UNL     1     -12.356  15.196  74.235  1.00  0.00    -0.675 C  
HETATM    2  C   UNL     1     -12.113  15.635  72.813  1.00  0.00    -0.466 C  
HETATM    3  N   UNL     1     -12.171  14.583  71.913  1.00  0.00    -0.321 N  
HETATM    4  O   UNL     1     -11.901  16.815  72.561  1.00  0.00    -0.421 OA 
HETATM    5  H   UNL     1     -12.369  13.660  72.299  1.00  0.00     0.000 HD 
ENDROOT
BRANCH   3   6
HETATM    6  C   UNL     1     -11.985  14.656  70.512  1.00  0.00    -0.310 A  
HETATM    7  C   UNL     1     -11.591  15.821  69.849  1.00  0.00    -0.355 A  
HETATM    8  C   UNL     1     -11.395  15.835  68.467  1.00  0.00    -0.374 A  
HETATM    9  C   UNL     1     -11.563  14.672  67.725  1.00  0.00    -0.359 A  
HETATM   10  C   UNL     1     -12.201  13.500  69.750  1.00  0.00    -0.330 A  
HETATM   11  C   UNL     1     -11.999  13.507  68.360  1.00  0.00    -0.378 A  
BRANCH   9  12
HETATM   12  O   UNL     1     -11.302  14.571  66.335  1.00  0.00    -0.335 OA 
BRANCH  12  13
HETATM   13  C   UNL     1     -10.577  15.525  65.615  1.00  0.00    -0.373 C  
HETATM   14  O   UNL     1     -10.946  16.139  64.627  1.00  0.00    -0.642 OA 
BRANCH  13  15
HETATM   15  C   UNL     1      -9.255  15.746  66.257  1.00  0.00    -0.368 A  
HETATM   16  C   UNL     1      -8.523  14.659  66.767  1.00  0.00    -0.145 A  
HETATM   17  C   UNL     1      -7.260  14.858  67.334  1.00  0.00    -0.213 A  
HETATM   18  C   UNL     1      -6.710  16.136  67.390  1.00  0.00    -0.218 A  
HETATM   19  C   UNL     1      -7.415  17.220  66.875  1.00  0.00    -0.242 A  
HETATM   20  C   UNL     1      -8.695  17.029  66.331  1.00  0.00    -0.273 A  
BRANCH  20  21
HETATM   21  O   UNL     1      -9.342  18.144  65.764  1.00  0.00    -0.476 OA 
BRANCH  21  22
HETATM   22  C   UNL     1      -9.457  19.273  66.571  1.00  0.00    -0.357 C  
HETATM   23  O   UNL     1      -8.667  20.205  66.636  1.00  0.00    -0.319 OA 
HETATM   24  C   UNL     1     -10.772  19.237  67.291  1.00  0.00    -0.594 C  
ENDBRANCH  21  22
ENDBRANCH  20  21
ENDBRANCH  13  15
ENDBRANCH  12  13
ENDBRANCH   9  12
ENDBRANCH   3   6
TORSDOF 6
ENDMDL
MODEL       42
REMARK 921   NORMALIZED FREE ENERGY PREDICTED BY IDOCK:   -5.13 KCAL/MOL
REMARK 922        TOTAL FREE ENERGY PREDICTED BY IDOCK:   -8.40 KCAL/MOL
REMARK 923 INTER-LIGAND FREE ENERGY PREDICTED BY IDOCK:   -7.17 KCAL/MOL
REMARK 924 INTRA-LIGAND FREE ENERGY PREDICTED BY IDOCK:   -1.23 KCAL/MOL
REMARK 927      BINDING AFFINITY PREDICTED BY RF-SCORE:    0.00 PKD
ROOT
HETATM    1  C   UNL     1      -6.876   6.930  64.451  1.00  0.00    -0.046 C  
HETATM    2  C   UNL     1      -7.394   8.273  64.899  1.00  0.00    -0.087 C  
HETATM    3  N   UNL     1      -8.777   8.311  64.983  1.00  0.00    -0.382 N  
HETATM    4  O   UNL     1      -6.611   9.182  65.149  1.00  0.00    -0.071 OA 
HETATM    5  H   UNL     1      -9.273   7.453  64.744  1.00  0.00     0.000 HD 
ENDROOT
BRANCH   3   6
HETATM    6  C   UNL     1      -9.572   9.417  65.367  1.00  0.00    -0.226 A  
HETATM    7  C   UNL     1      -9.975  10.418  64.479  1.00  0.00    -0.401 A  
HETATM    8  C   UNL     1     -10.783  11.475  64.901  1.00  0.00    -0.357 A  
HETATM    9  C   UNL     1     -11.224  11.536  66.218  1.00  0.00    -0.222 A  
HETATM   10  C   UNL     1      -9.980   9.512  66.705  1.00  0.00    -0.314 A  
HETATM   11  C   UNL     1     -10.796  10.571  67.132  1.00  0.00    -0.319 A  
BRANCH   9  12
HETATM   12  O   UNL     1     -12.115  12.522  66.713  1.00  0.00    -0.546 OA 
BRANCH  12  13
HETATM   13  C   UNL     1     -12.311  13.762  66.099  1.00  0.00    -0.452 C  
HETATM   14  O   UNL     1     -13.204  14.068  65.325  1.00  0.00    -0.782 OA 
BRANCH  13  15
HETATM   15  C   UNL     1     -11.278  14.725  66.562  1.00  0.00    -0.342 A  
HETATM   16  C   UNL     1     -10.184  15.044  65.736  1.00  0.00    -0.361 A  
HETATM   17  C   UNL     1      -9.233  15.981  66.152  1.00  0.00    -0.388 A  
HETATM   18  C   UNL     1      -9.364  16.616  67.384  1.00  0.00    -0.223 A  
HETATM   19  C   UNL     1     -10.448  16.322  68.205  1.00  0.00    -0.284 A  
HETATM   20  C   UNL     1     -11.390  15.361  67.806  1.00  0.00    -0.306 A  
BRANCH  20  21
HETATM   21  O   UNL     1     -12.505  15.146  68.640  1.00  0.00     0.027 OA 
BRANCH  21  22
HETATM   22  C   UNL     1     -12.234  14.803  69.963  1.00  0.00    -0.333 C  
HETATM   23  O   UNL     1     -12.300  15.544  70.935  1.00  0.00    -0.358 OA 
HETATM   24  C   UNL     1     -11.945  13.334  70.046  1.00  0.00    -0.399 C  
ENDBRANCH  21  22
ENDBRANCH  20  21
ENDBRANCH  13  15
ENDBRANCH  12  13
ENDBRANCH   9  12
ENDBRANCH   3   6
TORSDOF 6
ENDMDL
MODEL       43
REMARK 921   NORMALIZED FREE ENERGY PREDICTED BY IDOCK:   -5.12 KCAL/MOL
REMARK 922        TOTAL FREE ENERGY PREDICTED BY IDOCK:   -8.39 KCAL/MOL
REMARK 923 INTER-LIGAND FREE ENERGY PREDICTED BY IDOCK:   -7.70 KCAL/MOL
REMARK 924 INTRA-LIGAND FREE ENERGY PREDICTED BY IDOCK:   -0.69 KCAL/MOL
REMARK 927      BINDING AFFINITY PREDICTED BY RF-SCORE:    0.00 PKD
ROOT
HETATM    1  C   UNL     1     -12.432  15.525  74.537  1.00  0.00    -0.713 C  
HETATM    2  C   UNL     1     -12.771  15.490  73.069  1.00  0.00    -0.454 C  
HETATM    3  N   UNL     1     -11.704  15.085  72.283  1.00  0.00    -0.365 N  
HETATM    4  O   UNL     1     -13.897  15.794  72.690  1.00  0.00    -0.565 OA 
HETATM    5  H   UNL     1     -10.837  14.860  72.771  1.00  0.00     0.000 HD 
ENDROOT
BRANCH   3   6
HETATM    6  C   UNL     1     -11.691  14.950  70.875  1.00  0.00    -0.323 A  
HETATM    7  C   UNL     1     -11.844  13.727  70.218  1.00  0.00    -0.342 A  
HETATM    8  C   UNL     1     -11.852  13.651  68.824  1.00  0.00    -0.395 A  
HETATM    9  C   UNL     1     -11.733  14.806  68.060  1.00  0.00    -0.333 A  
HETATM   10  C   UNL     1     -11.522  16.105  70.097  1.00  0.00    -0.309 A  
HETATM   11  C   UNL     1     -11.535  16.034  68.695  1.00  0.00    -0.377 A  
BRANCH   9  12
HETATM   12  O   UNL     1     -11.817  14.834  66.645  1.00  0.00    -0.342 OA 
BRANCH  12  13
HETATM   13  C   UNL     1     -10.704  14.953  65.808  1.00  0.00    -0.331 C  
HETATM   14  O   UNL     1     -10.279  14.119  65.025  1.00  0.00    -0.394 OA 
BRANCH  13  15
HETATM   15  C   UNL     1     -10.099  16.302  65.960  1.00  0.00    -0.377 A  
HETATM   16  C   UNL     1     -10.882  17.457  65.777  1.00  0.00     0.000 A  
HETATM   17  C   UNL     1     -10.326  18.726  65.960  1.00  0.00    -0.467 A  
HETATM   18  C   UNL     1      -8.992  18.861  66.336  1.00  0.00    -0.315 A  
HETATM   19  C   UNL     1      -8.208  17.728  66.537  1.00  0.00    -0.300 A  
HETATM   20  C   UNL     1      -8.754  16.452  66.326  1.00  0.00    -0.334 A  
BRANCH  20  21
HETATM   21  O   UNL     1      -7.942  15.335  66.604  1.00  0.00    -0.164 OA 
BRANCH  21  22
HETATM   22  C   UNL     1      -7.107  15.435  67.714  1.00  0.00    -0.165 C  
HETATM   23  O   UNL     1      -5.908  15.684  67.702  1.00  0.00    -0.141 OA 
HETATM   24  C   UNL     1      -7.922  15.296  68.965  1.00  0.00    -0.195 C  
ENDBRANCH  21  22
ENDBRANCH  20  21
ENDBRANCH  13  15
ENDBRANCH  12  13
ENDBRANCH   9  12
ENDBRANCH   3   6
TORSDOF 6
ENDMDL
MODEL       44
REMARK 921   NORMALIZED FREE ENERGY PREDICTED BY IDOCK:   -5.12 KCAL/MOL
REMARK 922        TOTAL FREE ENERGY PREDICTED BY IDOCK:   -8.39 KCAL/MOL
REMARK 923 INTER-LIGAND FREE ENERGY PREDICTED BY IDOCK:   -7.65 KCAL/MOL
REMARK 924 INTRA-LIGAND FREE ENERGY PREDICTED BY IDOCK:   -0.74 KCAL/MOL
REMARK 927      BINDING AFFINITY PREDICTED BY RF-SCORE:    0.00 PKD
ROOT
HETATM    1  C   UNL     1     -13.566  16.007  73.170  1.00  0.00    -0.517 C  
HETATM    2  C   UNL     1     -12.653  14.994  72.527  1.00  0.00    -0.357 C  
HETATM    3  N   UNL     1     -13.347  13.962  71.915  1.00  0.00    -0.381 N  
HETATM    4  O   UNL     1     -11.437  15.141  72.578  1.00  0.00    -0.417 OA 
HETATM    5  H   UNL     1     -14.365  14.005  71.963  1.00  0.00     0.000 HD 
ENDROOT
BRANCH   3   6
HETATM    6  C   UNL     1     -12.790  12.856  71.230  1.00  0.00    -0.270 A  
HETATM    7  C   UNL     1     -12.010  12.980  70.078  1.00  0.00    -0.383 A  
HETATM    8  C   UNL     1     -11.460  11.859  69.454  1.00  0.00    -0.366 A  
HETATM    9  C   UNL     1     -11.661  10.591  69.989  1.00  0.00    -0.313 A  
HETATM   10  C   UNL     1     -13.029  11.571  71.735  1.00  0.00    -0.500 A  
HETATM   11  C   UNL     1     -12.474  10.441  71.114  1.00  0.00    -0.509 A  
BRANCH   9  12
HETATM   12  O   UNL     1     -11.072   9.409  69.474  1.00  0.00    -0.210 OA 
BRANCH  12  13
HETATM   13  C   UNL     1      -9.897   8.848  69.983  1.00  0.00    -0.174 C  
HETATM   14  O   UNL     1      -8.756   9.059  69.606  1.00  0.00    -0.132 OA 
BRANCH  13  15
HETATM   15  C   UNL     1     -10.218   7.954  71.126  1.00  0.00    -0.221 A  
HETATM   16  C   UNL     1      -9.754   8.258  72.418  1.00  0.00    -0.373 A  
HETATM   17  C   UNL     1     -10.089   7.442  73.503  1.00  0.00    -0.390 A  
HETATM   18  C   UNL     1     -10.895   6.322  73.316  1.00  0.00    -0.269 A  
HETATM   19  C   UNL     1     -11.375   6.016  72.045  1.00  0.00    -0.345 A  
HETATM   20  C   UNL     1     -11.018   6.816  70.949  1.00  0.00    -0.260 A  
BRANCH  20  21
HETATM   21  O   UNL     1     -11.581   6.504  69.696  1.00  0.00    -0.376 OA 
BRANCH  21  22
HETATM   22  C   UNL     1     -10.757   5.839  68.792  1.00  0.00    -0.247 C  
HETATM   23  O   UNL     1     -10.029   4.885  69.037  1.00  0.00    -0.181 OA 
HETATM   24  C   UNL     1     -10.969   6.400  67.418  1.00  0.00    -0.463 C  
ENDBRANCH  21  22
ENDBRANCH  20  21
ENDBRANCH  13  15
ENDBRANCH  12  13
ENDBRANCH   9  12
ENDBRANCH   3   6
TORSDOF 6
ENDMDL
MODEL       45
REMARK 921   NORMALIZED FREE ENERGY PREDICTED BY IDOCK:   -5.12 KCAL/MOL
REMARK 922        TOTAL FREE ENERGY PREDICTED BY IDOCK:   -8.39 KCAL/MOL
REMARK 923 INTER-LIGAND FREE ENERGY PREDICTED BY IDOCK:   -7.51 KCAL/MOL
REMARK 924 INTRA-LIGAND FREE ENERGY PREDICTED BY IDOCK:   -0.88 KCAL/MOL
REMARK 927      BINDING AFFINITY PREDICTED BY RF-SCORE:    0.00 PKD
ROOT
HETATM    1  C   UNL     1     -10.646   5.001  74.369  1.00  0.00    -0.252 C  
HETATM    2  C   UNL     1     -10.877   5.755  73.085  1.00  0.00    -0.276 C  
HETATM    3  N   UNL     1     -11.032   7.118  73.286  1.00  0.00    -0.507 N  
HETATM    4  O   UNL     1     -10.905   5.157  72.015  1.00  0.00    -0.203 OA 
HETATM    5  H   UNL     1     -10.971   7.447  74.249  1.00  0.00     0.000 HD 
ENDROOT
BRANCH   3   6
HETATM    6  C   UNL     1     -11.266   8.099  72.294  1.00  0.00    -0.359 A  
HETATM    7  C   UNL     1     -10.347   8.412  71.290  1.00  0.00    -0.272 A  
HETATM    8  C   UNL     1     -10.636   9.370  70.317  1.00  0.00    -0.297 A  
HETATM    9  C   UNL     1     -11.867  10.017  70.317  1.00  0.00    -0.216 A  
HETATM   10  C   UNL     1     -12.486   8.791  72.316  1.00  0.00    -0.455 A  
HETATM   11  C   UNL     1     -12.784   9.752  71.337  1.00  0.00    -0.483 A  
BRANCH   9  12
HETATM   12  O   UNL     1     -12.281  10.937  69.321  1.00  0.00    -0.364 OA 
BRANCH  12  13
HETATM   13  C   UNL     1     -11.673  12.179  69.118  1.00  0.00    -0.328 C  
HETATM   14  O   UNL     1     -11.935  13.229  69.683  1.00  0.00    -0.308 OA 
BRANCH  13  15
HETATM   15  C   UNL     1     -10.584  12.050  68.116  1.00  0.00    -0.233 A  
HETATM   16  C   UNL     1      -9.242  11.964  68.531  1.00  0.00    -0.136 A  
HETATM   17  C   UNL     1      -8.218  11.801  67.593  1.00  0.00    -0.145 A  
HETATM   18  C   UNL     1      -8.517  11.711  66.236  1.00  0.00    -0.066 A  
HETATM   19  C   UNL     1      -9.841  11.779  65.810  1.00  0.00    -0.267 A  
HETATM   20  C   UNL     1     -10.869  11.972  66.746  1.00  0.00    -0.266 A  
BRANCH  20  21
HETATM   21  O   UNL     1     -12.197  11.968  66.274  1.00  0.00    -0.548 OA 
BRANCH  21  22
HETATM   22  C   UNL     1     -12.529  12.950  65.343  1.00  0.00    -0.454 C  
HETATM   23  O   UNL     1     -12.905  12.765  64.193  1.00  0.00    -0.683 OA 
HETATM   24  C   UNL     1     -12.459  14.298  65.996  1.00  0.00    -0.392 C  
ENDBRANCH  21  22
ENDBRANCH  20  21
ENDBRANCH  13  15
ENDBRANCH  12  13
ENDBRANCH   9  12
ENDBRANCH   3   6
TORSDOF 6
ENDMDL
MODEL       46
REMARK 921   NORMALIZED FREE ENERGY PREDICTED BY IDOCK:   -5.12 KCAL/MOL
REMARK 922        TOTAL FREE ENERGY PREDICTED BY IDOCK:   -8.39 KCAL/MOL
REMARK 923 INTER-LIGAND FREE ENERGY PREDICTED BY IDOCK:   -8.03 KCAL/MOL
REMARK 924 INTRA-LIGAND FREE ENERGY PREDICTED BY IDOCK:   -0.36 KCAL/MOL
REMARK 927      BINDING AFFINITY PREDICTED BY RF-SCORE:    0.00 PKD
ROOT
HETATM    1  C   UNL     1      -8.611   8.736  62.380  1.00  0.00    -0.188 C  
HETATM    2  C   UNL     1      -8.830  10.015  63.148  1.00  0.00    -0.237 C  
HETATM    3  N   UNL     1     -10.022  10.015  63.856  1.00  0.00    -0.475 N  
HETATM    4  O   UNL     1      -7.993  10.909  63.107  1.00  0.00    -0.003 OA 
HETATM    5  H   UNL     1     -10.597   9.175  63.783  1.00  0.00     0.000 HD 
ENDROOT
BRANCH   3   6
HETATM    6  C   UNL     1     -10.524  11.058  64.669  1.00  0.00    -0.329 A  
HETATM    7  C   UNL     1     -11.673  11.789  64.358  1.00  0.00    -0.301 A  
HETATM    8  C   UNL     1     -12.144  12.792  65.208  1.00  0.00    -0.505 A  
HETATM    9  C   UNL     1     -11.485  13.064  66.401  1.00  0.00    -0.341 A  
HETATM   10  C   UNL     1      -9.837  11.372  65.850  1.00  0.00    -0.262 A  
HETATM   11  C   UNL     1     -10.309  12.376  66.710  1.00  0.00    -0.239 A  
BRANCH   9  12
HETATM   12  O   UNL     1     -11.938  14.001  67.364  1.00  0.00    -0.388 OA 
BRANCH  12  13
HETATM   13  C   UNL     1     -11.324  14.191  68.605  1.00  0.00    -0.277 C  
HETATM   14  O   UNL     1     -10.454  15.003  68.880  1.00  0.00    -0.226 OA 
BRANCH  13  15
HETATM   15  C   UNL     1     -11.919  13.273  69.609  1.00  0.00    -0.376 A  
HETATM   16  C   UNL     1     -11.576  11.909  69.617  1.00  0.00    -0.387 A  
HETATM   17  C   UNL     1     -12.102  11.051  70.587  1.00  0.00    -0.471 A  
HETATM   18  C   UNL     1     -12.964  11.540  71.565  1.00  0.00    -0.485 A  
HETATM   19  C   UNL     1     -13.301  12.891  71.580  1.00  0.00    -0.358 A  
HETATM   20  C   UNL     1     -12.799  13.751  70.591  1.00  0.00    -0.192 A  
BRANCH  20  21
HETATM   21  O   UNL     1     -13.115  15.120  70.687  1.00  0.00    -0.377 OA 
BRANCH  21  22
HETATM   22  C   UNL     1     -13.070  15.681  71.961  1.00  0.00    -0.459 C  
HETATM   23  O   UNL     1     -13.986  15.722  72.772  1.00  0.00    -0.590 OA 
HETATM   24  C   UNL     1     -11.674  16.146  72.250  1.00  0.00    -0.564 C  
ENDBRANCH  21  22
ENDBRANCH  20  21
ENDBRANCH  13  15
ENDBRANCH  12  13
ENDBRANCH   9  12
ENDBRANCH   3   6
TORSDOF 6
ENDMDL
MODEL       47
REMARK 921   NORMALIZED FREE ENERGY PREDICTED BY IDOCK:   -5.08 KCAL/MOL
REMARK 922        TOTAL FREE ENERGY PREDICTED BY IDOCK:   -8.34 KCAL/MOL
REMARK 923 INTER-LIGAND FREE ENERGY PREDICTED BY IDOCK:   -7.16 KCAL/MOL
REMARK 924 INTRA-LIGAND FREE ENERGY PREDICTED BY IDOCK:   -1.18 KCAL/MOL
REMARK 927      BINDING AFFINITY PREDICTED BY RF-SCORE:    0.00 PKD
ROOT
HETATM    1  C   UNL     1      -6.586  20.455  64.985  1.00  0.00    -0.335 C  
HETATM    2  C   UNL     1      -7.147  19.218  65.639  1.00  0.00    -0.249 C  
HETATM    3  N   UNL     1      -8.023  19.511  66.672  1.00  0.00    -0.278 N  
HETATM    4  O   UNL     1      -6.820  18.107  65.238  1.00  0.00    -0.465 OA 
HETATM    5  H   UNL     1      -8.188  20.499  66.866  1.00  0.00     0.000 HD 
ENDROOT
BRANCH   3   6
HETATM    6  C   UNL     1      -8.713  18.582  67.487  1.00  0.00    -0.262 A  
HETATM    7  C   UNL     1     -10.106  18.518  67.568  1.00  0.00    -0.383 A  
HETATM    8  C   UNL     1     -10.741  17.564  68.367  1.00  0.00    -0.280 A  
HETATM    9  C   UNL     1      -9.989  16.637  69.080  1.00  0.00    -0.280 A  
HETATM   10  C   UNL     1      -7.961  17.676  68.248  1.00  0.00    -0.272 A  
HETATM   11  C   UNL     1      -8.595  16.712  69.048  1.00  0.00    -0.190 A  
BRANCH   9  12
HETATM   12  O   UNL     1     -10.546  15.582  69.845  1.00  0.00    -0.273 OA 
BRANCH  12  13
HETATM   13  C   UNL     1     -11.795  15.013  69.580  1.00  0.00    -0.324 C  
HETATM   14  O   UNL     1     -12.890  15.485  69.843  1.00  0.00    -0.172 OA 
BRANCH  13  15
HETATM   15  C   UNL     1     -11.622  13.724  68.864  1.00  0.00    -0.358 A  
HETATM   16  C   UNL     1     -11.448  12.528  69.584  1.00  0.00    -0.255 A  
HETATM   17  C   UNL     1     -11.326  11.307  68.913  1.00  0.00    -0.340 A  
HETATM   18  C   UNL     1     -11.386  11.261  67.523  1.00  0.00    -0.360 A  
HETATM   19  C   UNL     1     -11.573  12.433  66.796  1.00  0.00    -0.444 A  
HETATM   20  C   UNL     1     -11.667  13.664  67.463  1.00  0.00    -0.371 A  
BRANCH  20  21
HETATM   21  O   UNL     1     -11.921  14.815  66.690  1.00  0.00    -0.314 OA 
BRANCH  21  22
HETATM   22  C   UNL     1     -11.011  15.093  65.673  1.00  0.00    -0.355 C  
HETATM   23  O   UNL     1      -9.793  15.140  65.780  1.00  0.00    -0.311 OA 
HETATM   24  C   UNL     1     -11.745  15.228  64.373  1.00  0.00    -0.289 C  
ENDBRANCH  21  22
ENDBRANCH  20  21
ENDBRANCH  13  15
ENDBRANCH  12  13
ENDBRANCH   9  12
ENDBRANCH   3   6
TORSDOF 6
ENDMDL
MODEL       48
REMARK 921   NORMALIZED FREE ENERGY PREDICTED BY IDOCK:   -5.08 KCAL/MOL
REMARK 922        TOTAL FREE ENERGY PREDICTED BY IDOCK:   -8.34 KCAL/MOL
REMARK 923 INTER-LIGAND FREE ENERGY PREDICTED BY IDOCK:   -6.92 KCAL/MOL
REMARK 924 INTRA-LIGAND FREE ENERGY PREDICTED BY IDOCK:   -1.42 KCAL/MOL
REMARK 927      BINDING AFFINITY PREDICTED BY RF-SCORE:    0.00 PKD
ROOT
HETATM    1  C   UNL     1     -10.950  12.467  63.897  1.00  0.00    -0.467 C  
HETATM    2  C   UNL     1     -11.069  11.831  65.259  1.00  0.00    -0.276 C  
HETATM    3  N   UNL     1     -10.012  10.982  65.546  1.00  0.00    -0.242 N  
HETATM    4  O   UNL     1     -12.025  12.093  65.980  1.00  0.00    -0.578 OA 
HETATM    5  H   UNL     1      -9.293  10.888  64.829  1.00  0.00     0.000 HD 
ENDROOT
BRANCH   3   6
HETATM    6  C   UNL     1      -9.826  10.231  66.731  1.00  0.00    -0.197 A  
HETATM    7  C   UNL     1      -9.077  10.686  67.819  1.00  0.00    -0.144 A  
HETATM    8  C   UNL     1      -8.946   9.919  68.978  1.00  0.00    -0.160 A  
HETATM    9  C   UNL     1      -9.586   8.689  69.079  1.00  0.00    -0.163 A  
HETATM   10  C   UNL     1     -10.428   8.968  66.822  1.00  0.00    -0.270 A  
HETATM   11  C   UNL     1     -10.303   8.195  67.987  1.00  0.00    -0.267 A  
BRANCH   9  12
HETATM   12  O   UNL     1      -9.580   7.884  70.246  1.00  0.00    -0.171 OA 
BRANCH  12  13
HETATM   13  C   UNL     1     -10.052   8.320  71.487  1.00  0.00    -0.208 C  
HETATM   14  O   UNL     1      -9.389   8.755  72.415  1.00  0.00    -0.331 OA 
BRANCH  13  15
HETATM   15  C   UNL     1     -11.534   8.230  71.525  1.00  0.00    -0.325 A  
HETATM   16  C   UNL     1     -12.168   6.976  71.607  1.00  0.00    -0.395 A  
HETATM   17  C   UNL     1     -13.562   6.890  71.685  1.00  0.00    -0.275 A  
HETATM   18  C   UNL     1     -14.337   8.047  71.693  1.00  0.00    -0.581 A  
HETATM   19  C   UNL     1     -13.724   9.295  71.627  1.00  0.00    -0.421 A  
HETATM   20  C   UNL     1     -12.328   9.386  71.520  1.00  0.00    -0.370 A  
BRANCH  20  21
HETATM   21  O   UNL     1     -11.750  10.671  71.523  1.00  0.00    -0.111 OA 
BRANCH  21  22
HETATM   22  C   UNL     1     -12.388  11.641  70.755  1.00  0.00    -0.358 C  
HETATM   23  O   UNL     1     -12.895  12.677  71.166  1.00  0.00    -0.324 OA 
HETATM   24  C   UNL     1     -12.273  11.283  69.304  1.00  0.00    -0.290 C  
ENDBRANCH  21  22
ENDBRANCH  20  21
ENDBRANCH  13  15
ENDBRANCH  12  13
ENDBRANCH   9  12
ENDBRANCH   3   6
TORSDOF 6
ENDMDL
MODEL       49
REMARK 921   NORMALIZED FREE ENERGY PREDICTED BY IDOCK:   -5.08 KCAL/MOL
REMARK 922        TOTAL FREE ENERGY PREDICTED BY IDOCK:   -8.34 KCAL/MOL
REMARK 923 INTER-LIGAND FREE ENERGY PREDICTED BY IDOCK:   -7.45 KCAL/MOL
REMARK 924 INTRA-LIGAND FREE ENERGY PREDICTED BY IDOCK:   -0.89 KCAL/MOL
REMARK 927      BINDING AFFINITY PREDICTED BY RF-SCORE:    0.00 PKD
ROOT
HETATM    1  C   UNL     1     -10.316  20.020  65.908  1.00  0.00    -0.529 C  
HETATM    2  C   UNL     1     -10.508  18.524  65.898  1.00  0.00    -0.347 C  
HETATM    3  N   UNL     1     -10.048  17.919  67.057  1.00  0.00    -0.324 N  
HETATM    4  O   UNL     1     -11.030  17.977  64.934  1.00  0.00    -0.776 OA 
HETATM    5  H   UNL     1      -9.647  18.534  67.766  1.00  0.00     0.000 HD 
ENDROOT
BRANCH   3   6
HETATM    6  C   UNL     1     -10.077  16.537  67.360  1.00  0.00    -0.279 A  
HETATM    7  C   UNL     1     -10.874  15.988  68.368  1.00  0.00    -0.310 A  
HETATM    8  C   UNL     1     -10.887  14.613  68.610  1.00  0.00    -0.261 A  
HETATM    9  C   UNL     1     -10.120  13.758  67.828  1.00  0.00    -0.245 A  
HETATM   10  C   UNL     1      -9.268  15.673  66.608  1.00  0.00    -0.294 A  
HETATM   11  C   UNL     1      -9.282  14.289  66.845  1.00  0.00    -0.268 A  
BRANCH   9  12
HETATM   12  O   UNL     1     -10.137  12.345  67.944  1.00  0.00    -0.198 OA 
BRANCH  12  13
HETATM   13  C   UNL     1     -10.960  11.517  67.175  1.00  0.00    -0.286 C  
HETATM   14  O   UNL     1     -12.088  11.763  66.778  1.00  0.00    -0.547 OA 
BRANCH  13  15
HETATM   15  C   UNL     1     -10.244  10.258  66.845  1.00  0.00    -0.286 A  
HETATM   16  C   UNL     1     -10.378   9.126  67.669  1.00  0.00    -0.314 A  
HETATM   17  C   UNL     1      -9.739   7.928  67.338  1.00  0.00    -0.210 A  
HETATM   18  C   UNL     1      -8.969   7.839  66.181  1.00  0.00    -0.201 A  
HETATM   19  C   UNL     1      -8.839   8.946  65.346  1.00  0.00    -0.234 A  
HETATM   20  C   UNL     1      -9.455  10.159  65.690  1.00  0.00    -0.220 A  
BRANCH  20  21
HETATM   21  O   UNL     1      -9.349  11.231  64.781  1.00  0.00    -0.210 OA 
BRANCH  21  22
HETATM   22  C   UNL     1     -10.165  11.174  63.655  1.00  0.00    -0.387 C  
HETATM   23  O   UNL     1     -11.318  11.577  63.569  1.00  0.00    -0.408 OA 
HETATM   24  C   UNL     1      -9.380  10.631  62.498  1.00  0.00    -0.316 C  
ENDBRANCH  21  22
ENDBRANCH  20  21
ENDBRANCH  13  15
ENDBRANCH  12  13
ENDBRANCH   9  12
ENDBRANCH   3   6
TORSDOF 6
ENDMDL
MODEL       50
REMARK 921   NORMALIZED FREE ENERGY PREDICTED BY IDOCK:   -5.06 KCAL/MOL
REMARK 922        TOTAL FREE ENERGY PREDICTED BY IDOCK:   -8.32 KCAL/MOL
REMARK 923 INTER-LIGAND FREE ENERGY PREDICTED BY IDOCK:   -7.37 KCAL/MOL
REMARK 924 INTRA-LIGAND FREE ENERGY PREDICTED BY IDOCK:   -0.95 KCAL/MOL
REMARK 927      BINDING AFFINITY PREDICTED BY RF-SCORE:    0.00 PKD
ROOT
HETATM    1  C   UNL     1     -11.358   4.953  73.402  1.00  0.00    -0.379 C  
HETATM    2  C   UNL     1     -11.336   5.957  72.278  1.00  0.00    -0.298 C  
HETATM    3  N   UNL     1     -11.587   7.249  72.711  1.00  0.00    -0.533 N  
HETATM    4  O   UNL     1     -11.105   5.592  71.131  1.00  0.00    -0.185 OA 
HETATM    5  H   UNL     1     -11.750   7.373  73.711  1.00  0.00     0.000 HD 
ENDROOT
BRANCH   3   6
HETATM    6  C   UNL     1     -11.641   8.416  71.912  1.00  0.00    -0.329 A  
HETATM    7  C   UNL     1     -12.773   9.229  71.814  1.00  0.00    -0.462 A  
HETATM    8  C   UNL     1     -12.767  10.385  71.032  1.00  0.00    -0.490 A  
HETATM    9  C   UNL     1     -11.615  10.764  70.352  1.00  0.00    -0.339 A  
HETATM   10  C   UNL     1     -10.499   8.777  71.184  1.00  0.00    -0.315 A  
HETATM   11  C   UNL     1     -10.486   9.942  70.400  1.00  0.00    -0.347 A  
BRANCH   9  12
HETATM   12  O   UNL     1     -11.490  11.963  69.607  1.00  0.00    -0.285 OA 
BRANCH  12  13
HETATM   13  C   UNL     1     -11.225  11.995  68.235  1.00  0.00    -0.261 C  
HETATM   14  O   UNL     1     -11.904  11.512  67.342  1.00  0.00    -0.607 OA 
BRANCH  13  15
HETATM   15  C   UNL     1      -9.981  12.766  67.978  1.00  0.00    -0.225 A  
HETATM   16  C   UNL     1      -8.734  12.114  67.952  1.00  0.00    -0.176 A  
HETATM   17  C   UNL     1      -7.567  12.830  67.669  1.00  0.00    -0.152 A  
HETATM   18  C   UNL     1      -7.627  14.194  67.399  1.00  0.00    -0.179 A  
HETATM   19  C   UNL     1      -8.855  14.850  67.406  1.00  0.00    -0.204 A  
HETATM   20  C   UNL     1     -10.026  14.143  67.718  1.00  0.00    -0.235 A  
BRANCH  20  21
HETATM   21  O   UNL     1     -11.252  14.835  67.647  1.00  0.00    -0.298 OA 
BRANCH  21  22
HETATM   22  C   UNL     1     -11.396  15.930  68.495  1.00  0.00    -0.374 C  
HETATM   23  O   UNL     1     -11.147  17.097  68.225  1.00  0.00    -0.310 OA 
HETATM   24  C   UNL     1     -12.016  15.482  69.785  1.00  0.00    -0.384 C  
ENDBRANCH  21  22
ENDBRANCH  20  21
ENDBRANCH  13  15
ENDBRANCH  12  13
ENDBRANCH   9  12
ENDBRANCH   3   6
TORSDOF 6
ENDMDL
MODEL       51
REMARK 921   NORMALIZED FREE ENERGY PREDICTED BY IDOCK:   -5.05 KCAL/MOL
REMARK 922        TOTAL FREE ENERGY PREDICTED BY IDOCK:   -8.30 KCAL/MOL
REMARK 923 INTER-LIGAND FREE ENERGY PREDICTED BY IDOCK:   -7.38 KCAL/MOL
REMARK 924 INTRA-LIGAND FREE ENERGY PREDICTED BY IDOCK:   -0.92 KCAL/MOL
REMARK 927      BINDING AFFINITY PREDICTED BY RF-SCORE:    0.00 PKD
ROOT
HETATM    1  C   UNL     1     -13.413  15.677  73.098  1.00  0.00    -0.620 C  
HETATM    2  C   UNL     1     -13.422  14.431  72.249  1.00  0.00    -0.433 C  
HETATM    3  N   UNL     1     -12.431  14.437  71.280  1.00  0.00    -0.331 N  
HETATM    4  O   UNL     1     -14.246  13.548  72.460  1.00  0.00    -0.734 OA 
HETATM    5  H   UNL     1     -11.823  15.256  71.253  1.00  0.00     0.000 HD 
ENDROOT
BRANCH   3   6
HETATM    6  C   UNL     1     -12.174  13.426  70.325  1.00  0.00    -0.335 A  
HETATM    7  C   UNL     1     -12.272  12.061  70.605  1.00  0.00    -0.409 A  
HETATM    8  C   UNL     1     -12.034  11.101  69.620  1.00  0.00    -0.429 A  
HETATM    9  C   UNL     1     -11.719  11.493  68.323  1.00  0.00    -0.301 A  
HETATM   10  C   UNL     1     -11.807  13.812  69.028  1.00  0.00    -0.397 A  
HETATM   11  C   UNL     1     -11.572  12.851  68.032  1.00  0.00    -0.385 A  
BRANCH   9  12
HETATM   12  O   UNL     1     -11.547  10.594  67.241  1.00  0.00    -0.392 OA 
BRANCH  12  13
HETATM   13  C   UNL     1     -10.645   9.526  67.261  1.00  0.00    -0.248 C  
HETATM   14  O   UNL     1     -10.906   8.345  67.422  1.00  0.00    -0.213 OA 
BRANCH  13  15
HETATM   15  C   UNL     1      -9.269  10.022  67.003  1.00  0.00    -0.167 A  
HETATM   16  C   UNL     1      -8.397  10.290  68.074  1.00  0.00    -0.114 A  
HETATM   17  C   UNL     1      -7.087  10.717  67.833  1.00  0.00    -0.086 A  
HETATM   18  C   UNL     1      -6.628  10.872  66.528  1.00  0.00    -0.127 A  
HETATM   19  C   UNL     1      -7.474  10.596  65.457  1.00  0.00    -0.063 A  
HETATM   20  C   UNL     1      -8.797  10.195  65.693  1.00  0.00    -0.165 A  
BRANCH  20  21
HETATM   21  O   UNL     1      -9.594   9.865  64.579  1.00  0.00    -0.299 OA 
BRANCH  21  22
HETATM   22  C   UNL     1      -9.793  10.871  63.637  1.00  0.00    -0.351 C  
HETATM   23  O   UNL     1      -9.097  11.098  62.656  1.00  0.00    -0.319 OA 
HETATM   24  C   UNL     1     -11.073  11.591  63.941  1.00  0.00    -0.458 C  
ENDBRANCH  21  22
ENDBRANCH  20  21
ENDBRANCH  13  15
ENDBRANCH  12  13
ENDBRANCH   9  12
ENDBRANCH   3   6
TORSDOF 6
ENDMDL
MODEL       52
REMARK 921   NORMALIZED FREE ENERGY PREDICTED BY IDOCK:   -5.05 KCAL/MOL
REMARK 922        TOTAL FREE ENERGY PREDICTED BY IDOCK:   -8.29 KCAL/MOL
REMARK 923 INTER-LIGAND FREE ENERGY PREDICTED BY IDOCK:   -7.69 KCAL/MOL
REMARK 924 INTRA-LIGAND FREE ENERGY PREDICTED BY IDOCK:   -0.61 KCAL/MOL
REMARK 927      BINDING AFFINITY PREDICTED BY RF-SCORE:    0.00 PKD
ROOT
HETATM    1  C   UNL     1      -8.425  10.489  62.347  1.00  0.00    -0.253 C  
HETATM    2  C   UNL     1      -9.509  11.009  63.257  1.00  0.00    -0.328 C  
HETATM    3  N   UNL     1      -9.035  11.338  64.517  1.00  0.00    -0.391 N  
HETATM    4  O   UNL     1     -10.661  11.107  62.850  1.00  0.00    -0.127 OA 
HETATM    5  H   UNL     1      -8.038  11.200  64.682  1.00  0.00     0.000 HD 
ENDROOT
BRANCH   3   6
HETATM    6  C   UNL     1      -9.791  11.847  65.600  1.00  0.00    -0.241 A  
HETATM    7  C   UNL     1      -9.930  13.211  65.867  1.00  0.00    -0.275 A  
HETATM    8  C   UNL     1     -10.710  13.663  66.933  1.00  0.00    -0.275 A  
HETATM    9  C   UNL     1     -11.388  12.755  67.738  1.00  0.00    -0.294 A  
HETATM   10  C   UNL     1     -10.438  10.935  66.447  1.00  0.00    -0.307 A  
HETATM   11  C   UNL     1     -11.227  11.385  67.517  1.00  0.00    -0.356 A  
BRANCH   9  12
HETATM   12  O   UNL     1     -12.269  13.125  68.786  1.00  0.00    -0.255 OA 
BRANCH  12  13
HETATM   13  C   UNL     1     -12.106  12.715  70.112  1.00  0.00    -0.294 C  
HETATM   14  O   UNL     1     -11.734  11.621  70.504  1.00  0.00    -0.292 OA 
BRANCH  13  15
HETATM   15  C   UNL     1     -12.411  13.842  71.030  1.00  0.00    -0.453 A  
HETATM   16  C   UNL     1     -13.497  13.760  71.921  1.00  0.00    -0.514 A  
HETATM   17  C   UNL     1     -13.761  14.801  72.815  1.00  0.00    -0.486 A  
HETATM   18  C   UNL     1     -12.944  15.929  72.842  1.00  0.00    -0.595 A  
HETATM   19  C   UNL     1     -11.856  16.019  71.978  1.00  0.00    -0.623 A  
HETATM   20  C   UNL     1     -11.604  14.989  71.058  1.00  0.00    -0.322 A  
BRANCH  20  21
HETATM   21  O   UNL     1     -10.454  15.095  70.251  1.00  0.00    -0.227 OA 
BRANCH  21  22
HETATM   22  C   UNL     1     -10.477  16.077  69.264  1.00  0.00    -0.257 C  
HETATM   23  O   UNL     1     -11.468  16.510  68.690  1.00  0.00    -0.313 OA 
HETATM   24  C   UNL     1      -9.092  16.619  69.070  1.00  0.00    -0.209 C  
ENDBRANCH  21  22
ENDBRANCH  20  21
ENDBRANCH  13  15
ENDBRANCH  12  13
ENDBRANCH   9  12
ENDBRANCH   3   6
TORSDOF 6
ENDMDL
MODEL       53
REMARK 921   NORMALIZED FREE ENERGY PREDICTED BY IDOCK:   -5.05 KCAL/MOL
REMARK 922        TOTAL FREE ENERGY PREDICTED BY IDOCK:   -8.29 KCAL/MOL
REMARK 923 INTER-LIGAND FREE ENERGY PREDICTED BY IDOCK:   -7.65 KCAL/MOL
REMARK 924 INTRA-LIGAND FREE ENERGY PREDICTED BY IDOCK:   -0.64 KCAL/MOL
REMARK 927      BINDING AFFINITY PREDICTED BY RF-SCORE:    0.00 PKD
ROOT
HETATM    1  C   UNL     1     -12.595   7.124  71.516  1.00  0.00    -0.427 C  
HETATM    2  C   UNL     1     -12.052   8.530  71.490  1.00  0.00    -0.304 C  
HETATM    3  N   UNL     1     -12.745   9.354  70.618  1.00  0.00    -0.509 N  
HETATM    4  O   UNL     1     -11.100   8.835  72.200  1.00  0.00    -0.355 OA 
HETATM    5  H   UNL     1     -13.523   8.932  70.111  1.00  0.00     0.000 HD 
ENDROOT
BRANCH   3   6
HETATM    6  C   UNL     1     -12.487  10.721  70.359  1.00  0.00    -0.347 A  
HETATM    7  C   UNL     1     -12.731  11.738  71.285  1.00  0.00    -0.420 A  
HETATM    8  C   UNL     1     -12.434  13.070  70.991  1.00  0.00    -0.385 A  
HETATM    9  C   UNL     1     -11.860  13.405  69.770  1.00  0.00    -0.326 A  
HETATM   10  C   UNL     1     -11.954  11.073  69.111  1.00  0.00    -0.394 A  
HETATM   11  C   UNL     1     -11.648  12.411  68.812  1.00  0.00    -0.373 A  
BRANCH   9  12
HETATM   12  O   UNL     1     -11.445  14.715  69.419  1.00  0.00    -0.264 OA 
BRANCH  12  13
HETATM   13  C   UNL     1     -10.183  15.012  68.899  1.00  0.00    -0.235 C  
HETATM   14  O   UNL     1      -9.116  14.987  69.492  1.00  0.00    -0.165 OA 
BRANCH  13  15
HETATM   15  C   UNL     1     -10.295  15.331  67.452  1.00  0.00    -0.256 A  
HETATM   16  C   UNL     1     -10.276  14.302  66.493  1.00  0.00    -0.277 A  
HETATM   17  C   UNL     1     -10.423  14.596  65.134  1.00  0.00    -0.440 A  
HETATM   18  C   UNL     1     -10.601  15.912  64.716  1.00  0.00    -0.146 A  
HETATM   19  C   UNL     1     -10.637  16.940  65.653  1.00  0.00    -0.231 A  
HETATM   20  C   UNL     1     -10.461  16.653  67.016  1.00  0.00    -0.283 A  
BRANCH  20  21
HETATM   21  O   UNL     1     -10.571  17.718  67.932  1.00  0.00    -0.386 OA 
BRANCH  21  22
HETATM   22  C   UNL     1     -10.019  18.935  67.540  1.00  0.00    -0.345 C  
HETATM   23  O   UNL     1     -10.607  19.859  66.994  1.00  0.00    -0.449 OA 
HETATM   24  C   UNL     1      -8.589  18.999  67.987  1.00  0.00    -0.337 C  
ENDBRANCH  21  22
ENDBRANCH  20  21
ENDBRANCH  13  15
ENDBRANCH  12  13
ENDBRANCH   9  12
ENDBRANCH   3   6
TORSDOF 6
ENDMDL
MODEL       54
REMARK 921   NORMALIZED FREE ENERGY PREDICTED BY IDOCK:   -5.04 KCAL/MOL
REMARK 922        TOTAL FREE ENERGY PREDICTED BY IDOCK:   -8.29 KCAL/MOL
REMARK 923 INTER-LIGAND FREE ENERGY PREDICTED BY IDOCK:   -7.59 KCAL/MOL
REMARK 924 INTRA-LIGAND FREE ENERGY PREDICTED BY IDOCK:   -0.70 KCAL/MOL
REMARK 927      BINDING AFFINITY PREDICTED BY RF-SCORE:    0.00 PKD
ROOT
HETATM    1  C   UNL     1      -7.194   8.482  62.869  1.00  0.00    -0.095 C  
HETATM    2  C   UNL     1      -7.680   9.335  64.012  1.00  0.00    -0.117 C  
HETATM    3  N   UNL     1      -8.971   9.018  64.404  1.00  0.00    -0.424 N  
HETATM    4  O   UNL     1      -6.949  10.192  64.495  1.00  0.00    -0.135 OA 
HETATM    5  H   UNL     1      -9.432   8.265  63.893  1.00  0.00     0.000 HD 
ENDROOT
BRANCH   3   6
HETATM    6  C   UNL     1      -9.717   9.630  65.439  1.00  0.00    -0.295 A  
HETATM    7  C   UNL     1     -10.155  10.956  65.389  1.00  0.00    -0.336 A  
HETATM    8  C   UNL     1     -10.912  11.507  66.425  1.00  0.00    -0.336 A  
HETATM    9  C   UNL     1     -11.269  10.729  67.520  1.00  0.00    -0.274 A  
HETATM   10  C   UNL     1     -10.039   8.867  66.570  1.00  0.00    -0.356 A  
HETATM   11  C   UNL     1     -10.805   9.415  67.611  1.00  0.00    -0.222 A  
BRANCH   9  12
HETATM   12  O   UNL     1     -12.106  11.176  68.574  1.00  0.00    -0.586 OA 
BRANCH  12  13
HETATM   13  C   UNL     1     -11.684  11.283  69.902  1.00  0.00    -0.352 C  
HETATM   14  O   UNL     1     -10.870  10.576  70.476  1.00  0.00    -0.223 OA 
BRANCH  13  15
HETATM   15  C   UNL     1     -12.343  12.446  70.550  1.00  0.00    -0.346 A  
HETATM   16  C   UNL     1     -13.278  12.249  71.583  1.00  0.00    -0.356 A  
HETATM   17  C   UNL     1     -13.868  13.343  72.222  1.00  0.00    -0.671 A  
HETATM   18  C   UNL     1     -13.529  14.641  71.850  1.00  0.00    -0.461 A  
HETATM   19  C   UNL     1     -12.594  14.853  70.841  1.00  0.00    -0.403 A  
HETATM   20  C   UNL     1     -12.020  13.758  70.176  1.00  0.00    -0.334 A  
BRANCH  20  21
HETATM   21  O   UNL     1     -11.031  14.021  69.207  1.00  0.00    -0.250 OA 
BRANCH  21  22
HETATM   22  C   UNL     1     -11.436  14.742  68.086  1.00  0.00    -0.323 C  
HETATM   23  O   UNL     1     -12.272  14.397  67.262  1.00  0.00    -0.383 OA 
HETATM   24  C   UNL     1     -10.764  16.082  68.087  1.00  0.00    -0.311 C  
ENDBRANCH  21  22
ENDBRANCH  20  21
ENDBRANCH  13  15
ENDBRANCH  12  13
ENDBRANCH   9  12
ENDBRANCH   3   6
TORSDOF 6
ENDMDL
MODEL       55
REMARK 921   NORMALIZED FREE ENERGY PREDICTED BY IDOCK:   -5.04 KCAL/MOL
REMARK 922        TOTAL FREE ENERGY PREDICTED BY IDOCK:   -8.29 KCAL/MOL
REMARK 923 INTER-LIGAND FREE ENERGY PREDICTED BY IDOCK:   -7.36 KCAL/MOL
REMARK 924 INTRA-LIGAND FREE ENERGY PREDICTED BY IDOCK:   -0.93 KCAL/MOL
REMARK 927      BINDING AFFINITY PREDICTED BY RF-SCORE:    0.00 PKD
ROOT
HETATM    1  C   UNL     1      -8.240  20.656  67.501  1.00  0.00    -0.254 C  
HETATM    2  C   UNL     1      -8.389  19.156  67.537  1.00  0.00    -0.287 C  
HETATM    3  N   UNL     1      -9.057  18.659  66.430  1.00  0.00    -0.306 N  
HETATM    4  O   UNL     1      -7.933  18.515  68.477  1.00  0.00    -0.308 OA 
HETATM    5  H   UNL     1      -9.361  19.341  65.734  1.00  0.00     0.000 HD 
ENDROOT
BRANCH   3   6
HETATM    6  C   UNL     1      -9.362  17.303  66.163  1.00  0.00    -0.168 A  
HETATM    7  C   UNL     1      -8.517  16.244  66.502  1.00  0.00    -0.338 A  
HETATM    8  C   UNL     1      -8.876  14.921  66.241  1.00  0.00    -0.108 A  
HETATM    9  C   UNL     1     -10.104  14.631  65.658  1.00  0.00    -0.363 A  
HETATM   10  C   UNL     1     -10.577  17.006  65.530  1.00  0.00    -0.184 A  
HETATM   11  C   UNL     1     -10.945  15.676  65.270  1.00  0.00    -0.375 A  
BRANCH   9  12
HETATM   12  O   UNL     1     -10.589  13.317  65.437  1.00  0.00    -0.282 OA 
BRANCH  12  13
HETATM   13  C   UNL     1     -11.816  12.856  65.919  1.00  0.00    -0.424 C  
HETATM   14  O   UNL     1     -12.906  12.957  65.378  1.00  0.00    -0.599 OA 
BRANCH  13  15
HETATM   15  C   UNL     1     -11.618  12.150  67.212  1.00  0.00    -0.404 A  
HETATM   16  C   UNL     1     -11.158  10.821  67.233  1.00  0.00    -0.339 A  
HETATM   17  C   UNL     1     -10.931  10.169  68.448  1.00  0.00    -0.293 A  
HETATM   18  C   UNL     1     -11.149  10.832  69.653  1.00  0.00    -0.339 A  
HETATM   19  C   UNL     1     -11.590  12.152  69.649  1.00  0.00    -0.361 A  
HETATM   20  C   UNL     1     -11.847  12.802  68.432  1.00  0.00    -0.310 A  
BRANCH  20  21
HETATM   21  O   UNL     1     -12.228  14.158  68.477  1.00  0.00    -0.311 OA 
BRANCH  21  22
HETATM   22  C   UNL     1     -11.556  14.962  69.394  1.00  0.00    -0.309 C  
HETATM   23  O   UNL     1     -10.395  15.344  69.313  1.00  0.00    -0.225 OA 
HETATM   24  C   UNL     1     -12.507  15.394  70.469  1.00  0.00    -0.468 C  
ENDBRANCH  21  22
ENDBRANCH  20  21
ENDBRANCH  13  15
ENDBRANCH  12  13
ENDBRANCH   9  12
ENDBRANCH   3   6
TORSDOF 6
ENDMDL
MODEL       56
REMARK 921   NORMALIZED FREE ENERGY PREDICTED BY IDOCK:   -5.04 KCAL/MOL
REMARK 922        TOTAL FREE ENERGY PREDICTED BY IDOCK:   -8.29 KCAL/MOL
REMARK 923 INTER-LIGAND FREE ENERGY PREDICTED BY IDOCK:   -7.66 KCAL/MOL
REMARK 924 INTRA-LIGAND FREE ENERGY PREDICTED BY IDOCK:   -0.63 KCAL/MOL
REMARK 927      BINDING AFFINITY PREDICTED BY RF-SCORE:    0.00 PKD
ROOT
HETATM    1  C   UNL     1     -12.629  15.994  74.386  1.00  0.00    -0.642 C  
HETATM    2  C   UNL     1     -12.630  15.110  73.164  1.00  0.00    -0.473 C  
HETATM    3  N   UNL     1     -11.842  15.612  72.141  1.00  0.00    -0.428 N  
HETATM    4  O   UNL     1     -13.277  14.069  73.158  1.00  0.00    -0.589 OA 
HETATM    5  H   UNL     1     -11.363  16.494  72.324  1.00  0.00     0.000 HD 
ENDROOT
BRANCH   3   6
HETATM    6  C   UNL     1     -11.633  15.030  70.868  1.00  0.00    -0.319 A  
HETATM    7  C   UNL     1     -12.625  14.339  70.167  1.00  0.00    -0.338 A  
HETATM    8  C   UNL     1     -12.377  13.805  68.901  1.00  0.00    -0.067 A  
HETATM    9  C   UNL     1     -11.135  13.977  68.301  1.00  0.00    -0.254 A  
HETATM   10  C   UNL     1     -10.368  15.156  70.277  1.00  0.00    -0.095 A  
HETATM   11  C   UNL     1     -10.116  14.626  69.002  1.00  0.00    -0.211 A  
BRANCH   9  12
HETATM   12  O   UNL     1     -10.821  13.547  66.987  1.00  0.00    -0.278 OA 
BRANCH  12  13
HETATM   13  C   UNL     1     -11.617  12.664  66.254  1.00  0.00    -0.386 C  
HETATM   14  O   UNL     1     -12.711  12.892  65.763  1.00  0.00    -0.492 OA 
BRANCH  13  15
HETATM   15  C   UNL     1     -10.917  11.363  66.096  1.00  0.00    -0.294 A  
HETATM   16  C   UNL     1     -10.125  11.115  64.959  1.00  0.00    -0.338 A  
HETATM   17  C   UNL     1      -9.431   9.909  64.828  1.00  0.00    -0.356 A  
HETATM   18  C   UNL     1      -9.507   8.942  65.828  1.00  0.00    -0.272 A  
HETATM   19  C   UNL     1     -10.273   9.179  66.966  1.00  0.00    -0.333 A  
HETATM   20  C   UNL     1     -10.995  10.376  67.089  1.00  0.00    -0.196 A  
BRANCH  20  21
HETATM   21  O   UNL     1     -11.703  10.598  68.287  1.00  0.00    -0.445 OA 
BRANCH  21  22
HETATM   22  C   UNL     1     -10.943  10.675  69.452  1.00  0.00    -0.255 C  
HETATM   23  O   UNL     1      -9.728  10.806  69.521  1.00  0.00    -0.133 OA 
HETATM   24  C   UNL     1     -11.857  10.683  70.641  1.00  0.00    -0.463 C  
ENDBRANCH  21  22
ENDBRANCH  20  21
ENDBRANCH  13  15
ENDBRANCH  12  13
ENDBRANCH   9  12
ENDBRANCH   3   6
TORSDOF 6
ENDMDL
MODEL       57
REMARK 921   NORMALIZED FREE ENERGY PREDICTED BY IDOCK:   -5.03 KCAL/MOL
REMARK 922        TOTAL FREE ENERGY PREDICTED BY IDOCK:   -8.27 KCAL/MOL
REMARK 923 INTER-LIGAND FREE ENERGY PREDICTED BY IDOCK:   -7.33 KCAL/MOL
REMARK 924 INTRA-LIGAND FREE ENERGY PREDICTED BY IDOCK:   -0.94 KCAL/MOL
REMARK 927      BINDING AFFINITY PREDICTED BY RF-SCORE:    0.00 PKD
ROOT
HETATM    1  C   UNL     1     -11.554  15.886  64.212  1.00  0.00    -0.179 C  
HETATM    2  C   UNL     1     -11.852  14.496  64.713  1.00  0.00    -0.441 C  
HETATM    3  N   UNL     1     -10.990  14.095  65.721  1.00  0.00    -0.296 N  
HETATM    4  O   UNL     1     -12.781  13.855  64.234  1.00  0.00    -0.664 OA 
HETATM    5  H   UNL     1     -10.275  14.766  66.005  1.00  0.00     0.000 HD 
ENDROOT
BRANCH   3   6
HETATM    6  C   UNL     1     -10.998  12.853  66.399  1.00  0.00    -0.285 A  
HETATM    7  C   UNL     1     -10.290  11.733  65.958  1.00  0.00    -0.276 A  
HETATM    8  C   UNL     1     -10.308  10.536  66.677  1.00  0.00    -0.295 A  
HETATM    9  C   UNL     1     -11.017  10.449  67.870  1.00  0.00    -0.297 A  
HETATM   10  C   UNL     1     -11.750  12.742  67.577  1.00  0.00    -0.422 A  
HETATM   11  C   UNL     1     -11.767  11.542  68.307  1.00  0.00    -0.371 A  
BRANCH   9  12
HETATM   12  O   UNL     1     -11.021   9.306  68.709  1.00  0.00    -0.138 OA 
BRANCH  12  13
HETATM   13  C   UNL     1     -10.130   9.124  69.770  1.00  0.00    -0.199 C  
HETATM   14  O   UNL     1      -9.224   9.869  70.108  1.00  0.00    -0.228 OA 
BRANCH  13  15
HETATM   15  C   UNL     1     -10.465   7.875  70.503  1.00  0.00    -0.214 A  
HETATM   16  C   UNL     1      -9.958   6.638  70.067  1.00  0.00    -0.189 A  
HETATM   17  C   UNL     1     -10.237   5.467  70.778  1.00  0.00    -0.313 A  
HETATM   18  C   UNL     1     -11.012   5.515  71.934  1.00  0.00    -0.264 A  
HETATM   19  C   UNL     1     -11.508   6.734  72.388  1.00  0.00    -0.302 A  
HETATM   20  C   UNL     1     -11.255   7.908  71.661  1.00  0.00    -0.251 A  
BRANCH  20  21
HETATM   21  O   UNL     1     -11.722   9.126  72.194  1.00  0.00    -0.342 OA 
BRANCH  21  22
HETATM   22  C   UNL     1     -13.014   9.504  71.840  1.00  0.00    -0.425 C  
HETATM   23  O   UNL     1     -13.987   8.767  71.738  1.00  0.00    -0.397 OA 
HETATM   24  C   UNL     1     -13.075  10.996  71.698  1.00  0.00    -0.543 C  
ENDBRANCH  21  22
ENDBRANCH  20  21
ENDBRANCH  13  15
ENDBRANCH  12  13
ENDBRANCH   9  12
ENDBRANCH   3   6
TORSDOF 6
ENDMDL
MODEL       58
REMARK 921   NORMALIZED FREE ENERGY PREDICTED BY IDOCK:   -5.02 KCAL/MOL
REMARK 922        TOTAL FREE ENERGY PREDICTED BY IDOCK:   -8.26 KCAL/MOL
REMARK 923 INTER-LIGAND FREE ENERGY PREDICTED BY IDOCK:   -7.59 KCAL/MOL
REMARK 924 INTRA-LIGAND FREE ENERGY PREDICTED BY IDOCK:   -0.66 KCAL/MOL
REMARK 927      BINDING AFFINITY PREDICTED BY RF-SCORE:    0.00 PKD
ROOT
HETATM    1  C   UNL     1      -8.663  19.834  67.969  1.00  0.00    -0.353 C  
HETATM    2  C   UNL     1      -8.842  18.344  68.121  1.00  0.00    -0.302 C  
HETATM    3  N   UNL     1     -10.175  17.965  68.125  1.00  0.00    -0.362 N  
HETATM    4  O   UNL     1      -7.864  17.613  68.217  1.00  0.00    -0.236 OA 
HETATM    5  H   UNL     1     -10.864  18.711  68.025  1.00  0.00     0.000 HD 
ENDROOT
BRANCH   3   6
HETATM    6  C   UNL     1     -10.681  16.650  68.254  1.00  0.00    -0.351 A  
HETATM    7  C   UNL     1     -10.855  15.784  67.172  1.00  0.00    -0.289 A  
HETATM    8  C   UNL     1     -11.332  14.485  67.355  1.00  0.00    -0.370 A  
HETATM    9  C   UNL     1     -11.621  14.019  68.633  1.00  0.00    -0.325 A  
HETATM   10  C   UNL     1     -11.021  16.189  69.534  1.00  0.00    -0.341 A  
HETATM   11  C   UNL     1     -11.497  14.882  69.724  1.00  0.00    -0.328 A  
BRANCH   9  12
HETATM   12  O   UNL     1     -12.026  12.692  68.922  1.00  0.00    -0.302 OA 
BRANCH  12  13
HETATM   13  C   UNL     1     -11.578  11.576  68.211  1.00  0.00    -0.308 C  
HETATM   14  O   UNL     1     -11.707  11.364  67.015  1.00  0.00    -0.535 OA 
BRANCH  13  15
HETATM   15  C   UNL     1     -10.850  10.655  69.121  1.00  0.00    -0.279 A  
HETATM   16  C   UNL     1      -9.461  10.475  68.987  1.00  0.00    -0.211 A  
HETATM   17  C   UNL     1      -8.766   9.641  69.869  1.00  0.00    -0.236 A  
HETATM   18  C   UNL     1      -9.441   8.987  70.896  1.00  0.00    -0.331 A  
HETATM   19  C   UNL     1     -10.813   9.167  71.051  1.00  0.00    -0.362 A  
HETATM   20  C   UNL     1     -11.519   9.979  70.151  1.00  0.00    -0.277 A  
BRANCH  20  21
HETATM   21  O   UNL     1     -12.893  10.183  70.388  1.00  0.00    -0.231 OA 
BRANCH  21  22
HETATM   22  C   UNL     1     -13.260  10.488  71.696  1.00  0.00    -0.391 C  
HETATM   23  O   UNL     1     -13.580   9.691  72.567  1.00  0.00    -0.400 OA 
HETATM   24  C   UNL     1     -13.102  11.962  71.926  1.00  0.00    -0.474 C  
ENDBRANCH  21  22
ENDBRANCH  20  21
ENDBRANCH  13  15
ENDBRANCH  12  13
ENDBRANCH   9  12
ENDBRANCH   3   6
TORSDOF 6
ENDMDL
MODEL       59
REMARK 921   NORMALIZED FREE ENERGY PREDICTED BY IDOCK:   -5.02 KCAL/MOL
REMARK 922        TOTAL FREE ENERGY PREDICTED BY IDOCK:   -8.26 KCAL/MOL
REMARK 923 INTER-LIGAND FREE ENERGY PREDICTED BY IDOCK:   -7.60 KCAL/MOL
REMARK 924 INTRA-LIGAND FREE ENERGY PREDICTED BY IDOCK:   -0.66 KCAL/MOL
REMARK 927      BINDING AFFINITY PREDICTED BY RF-SCORE:    0.00 PKD
ROOT
HETATM    1  C   UNL     1     -13.063  15.955  73.558  1.00  0.00    -0.676 C  
HETATM    2  C   UNL     1     -12.317  15.171  72.508  1.00  0.00    -0.370 C  
HETATM    3  N   UNL     1     -13.064  14.125  71.991  1.00  0.00    -0.362 N  
HETATM    4  O   UNL     1     -11.176  15.492  72.195  1.00  0.00    -0.377 OA 
HETATM    5  H   UNL     1     -14.007  14.008  72.364  1.00  0.00     0.000 HD 
ENDROOT
BRANCH   3   6
HETATM    6  C   UNL     1     -12.657  13.202  70.999  1.00  0.00    -0.312 A  
HETATM    7  C   UNL     1     -12.769  11.817  71.145  1.00  0.00    -0.405 A  
HETATM    8  C   UNL     1     -12.377  10.948  70.126  1.00  0.00    -0.399 A  
HETATM    9  C   UNL     1     -11.889  11.453  68.926  1.00  0.00    -0.347 A  
HETATM   10  C   UNL     1     -12.116  13.701  69.806  1.00  0.00    -0.396 A  
HETATM   11  C   UNL     1     -11.726  12.832  68.775  1.00  0.00    -0.363 A  
BRANCH   9  12
HETATM   12  O   UNL     1     -11.549  10.652  67.806  1.00  0.00    -0.501 OA 
BRANCH  12  13
HETATM   13  C   UNL     1     -10.303  10.041  67.644  1.00  0.00    -0.224 C  
HETATM   14  O   UNL     1      -9.258  10.576  67.307  1.00  0.00    -0.143 OA 
BRANCH  13  15
HETATM   15  C   UNL     1     -10.396   8.600  67.994  1.00  0.00    -0.277 A  
HETATM   16  C   UNL     1     -10.777   7.656  67.023  1.00  0.00    -0.340 A  
HETATM   17  C   UNL     1     -10.825   6.295  67.338  1.00  0.00    -0.448 A  
HETATM   18  C   UNL     1     -10.487   5.857  68.616  1.00  0.00    -0.302 A  
HETATM   19  C   UNL     1     -10.093   6.777  69.584  1.00  0.00    -0.197 A  
HETATM   20  C   UNL     1     -10.071   8.147  69.281  1.00  0.00    -0.202 A  
BRANCH  20  21
HETATM   21  O   UNL     1      -9.603   9.033  70.272  1.00  0.00    -0.174 OA 
BRANCH  21  22
HETATM   22  C   UNL     1      -9.541   8.535  71.571  1.00  0.00    -0.228 C  
HETATM   23  O   UNL     1      -8.533   8.173  72.164  1.00  0.00    -0.131 OA 
HETATM   24  C   UNL     1     -10.902   8.603  72.196  1.00  0.00    -0.424 C  
ENDBRANCH  21  22
ENDBRANCH  20  21
ENDBRANCH  13  15
ENDBRANCH  12  13
ENDBRANCH   9  12
ENDBRANCH   3   6
TORSDOF 6
ENDMDL
MODEL       60
REMARK 921   NORMALIZED FREE ENERGY PREDICTED BY IDOCK:   -5.02 KCAL/MOL
REMARK 922        TOTAL FREE ENERGY PREDICTED BY IDOCK:   -8.26 KCAL/MOL
REMARK 923 INTER-LIGAND FREE ENERGY PREDICTED BY IDOCK:   -7.37 KCAL/MOL
REMARK 924 INTRA-LIGAND FREE ENERGY PREDICTED BY IDOCK:   -0.89 KCAL/MOL
REMARK 927      BINDING AFFINITY PREDICTED BY RF-SCORE:    0.00 PKD
ROOT
HETATM    1  C   UNL     1     -10.574   7.733  66.919  1.00  0.00    -0.347 C  
HETATM    2  C   UNL     1     -10.302   9.156  66.502  1.00  0.00    -0.199 C  
HETATM    3  N   UNL     1     -10.777  10.081  67.418  1.00  0.00    -0.280 N  
HETATM    4  O   UNL     1      -9.710   9.387  65.454  1.00  0.00    -0.280 OA 
HETATM    5  H   UNL     1     -11.240   9.708  68.246  1.00  0.00     0.000 HD 
ENDROOT
BRANCH   3   6
HETATM    6  C   UNL     1     -10.687  11.490  67.323  1.00  0.00    -0.244 A  
HETATM    7  C   UNL     1     -11.759  12.306  66.954  1.00  0.00    -0.404 A  
HETATM    8  C   UNL     1     -11.626  13.695  66.901  1.00  0.00    -0.397 A  
HETATM    9  C   UNL     1     -10.420  14.296  67.244  1.00  0.00    -0.269 A  
HETATM   10  C   UNL     1      -9.460  12.101  67.619  1.00  0.00    -0.187 A  
HETATM   11  C   UNL     1      -9.323  13.497  67.572  1.00  0.00    -0.220 A  
BRANCH   9  12
HETATM   12  O   UNL     1     -10.220  15.698  67.303  1.00  0.00    -0.256 OA 
BRANCH  12  13
HETATM   13  C   UNL     1     -10.185  16.521  66.174  1.00  0.00    -0.346 C  
HETATM   14  O   UNL     1     -10.388  16.192  65.016  1.00  0.00    -0.573 OA 
BRANCH  13  15
HETATM   15  C   UNL     1      -9.903  17.922  66.578  1.00  0.00    -0.343 A  
HETATM   16  C   UNL     1     -10.856  18.657  67.307  1.00  0.00    -0.369 A  
HETATM   17  C   UNL     1     -10.576  19.962  67.725  1.00  0.00    -0.460 A  
HETATM   18  C   UNL     1      -9.346  20.545  67.433  1.00  0.00    -0.511 A  
HETATM   19  C   UNL     1      -8.386  19.825  66.727  1.00  0.00    -0.354 A  
HETATM   20  C   UNL     1      -8.673  18.526  66.280  1.00  0.00    -0.203 A  
BRANCH  20  21
HETATM   21  O   UNL     1      -7.647  17.813  65.627  1.00  0.00    -0.541 OA 
BRANCH  21  22
HETATM   22  C   UNL     1      -6.565  17.423  66.411  1.00  0.00    -0.257 C  
HETATM   23  O   UNL     1      -6.616  16.791  67.458  1.00  0.00    -0.126 OA 
HETATM   24  C   UNL     1      -5.289  17.803  65.722  1.00  0.00    -0.200 C  
ENDBRANCH  21  22
ENDBRANCH  20  21
ENDBRANCH  13  15
ENDBRANCH  12  13
ENDBRANCH   9  12
ENDBRANCH   3   6
TORSDOF 6
ENDMDL
MODEL       61
REMARK 921   NORMALIZED FREE ENERGY PREDICTED BY IDOCK:   -5.01 KCAL/MOL
REMARK 922        TOTAL FREE ENERGY PREDICTED BY IDOCK:   -8.25 KCAL/MOL
REMARK 923 INTER-LIGAND FREE ENERGY PREDICTED BY IDOCK:   -7.04 KCAL/MOL
REMARK 924 INTRA-LIGAND FREE ENERGY PREDICTED BY IDOCK:   -1.21 KCAL/MOL
REMARK 927      BINDING AFFINITY PREDICTED BY RF-SCORE:    0.00 PKD
ROOT
HETATM    1  C   UNL     1      -8.582  20.539  67.152  1.00  0.00    -0.364 C  
HETATM    2  C   UNL     1      -9.581  19.462  66.811  1.00  0.00    -0.346 C  
HETATM    3  N   UNL     1      -9.248  18.232  67.357  1.00  0.00    -0.249 N  
HETATM    4  O   UNL     1     -10.562  19.727  66.126  1.00  0.00    -0.480 OA 
HETATM    5  H   UNL     1      -8.393  18.195  67.913  1.00  0.00     0.000 HD 
ENDROOT
BRANCH   3   6
HETATM    6  C   UNL     1      -9.970  17.023  67.223  1.00  0.00    -0.275 A  
HETATM    7  C   UNL     1     -10.747  16.475  68.245  1.00  0.00    -0.345 A  
HETATM    8  C   UNL     1     -11.463  15.291  68.054  1.00  0.00    -0.351 A  
HETATM    9  C   UNL     1     -11.434  14.647  66.823  1.00  0.00    -0.364 A  
HETATM   10  C   UNL     1      -9.905  16.341  65.999  1.00  0.00    -0.371 A  
HETATM   11  C   UNL     1     -10.628  15.153  65.801  1.00  0.00    -0.364 A  
BRANCH   9  12
HETATM   12  O   UNL     1     -12.195  13.492  66.511  1.00  0.00    -0.407 OA 
BRANCH  12  13
HETATM   13  C   UNL     1     -11.806  12.195  66.857  1.00  0.00    -0.222 C  
HETATM   14  O   UNL     1     -12.159  11.556  67.835  1.00  0.00    -0.630 OA 
BRANCH  13  15
HETATM   15  C   UNL     1     -10.902  11.644  65.814  1.00  0.00    -0.334 A  
HETATM   16  C   UNL     1     -11.303  11.622  64.466  1.00  0.00    -0.310 A  
HETATM   17  C   UNL     1     -10.439  11.142  63.477  1.00  0.00    -0.422 A  
HETATM   18  C   UNL     1      -9.166  10.691  63.816  1.00  0.00    -0.280 A  
HETATM   19  C   UNL     1      -8.748  10.721  65.144  1.00  0.00    -0.174 A  
HETATM   20  C   UNL     1      -9.623  11.174  66.143  1.00  0.00    -0.210 A  
BRANCH  20  21
HETATM   21  O   UNL     1      -9.133  11.248  67.462  1.00  0.00    -0.149 OA 
BRANCH  21  22
HETATM   22  C   UNL     1      -7.907  11.885  67.635  1.00  0.00    -0.142 C  
HETATM   23  O   UNL     1      -6.807  11.349  67.674  1.00  0.00    -0.071 OA 
HETATM   24  C   UNL     1      -8.117  13.369  67.661  1.00  0.00    -0.175 C  
ENDBRANCH  21  22
ENDBRANCH  20  21
ENDBRANCH  13  15
ENDBRANCH  12  13
ENDBRANCH   9  12
ENDBRANCH   3   6
TORSDOF 6
ENDMDL
MODEL       62
REMARK 921   NORMALIZED FREE ENERGY PREDICTED BY IDOCK:   -5.00 KCAL/MOL
REMARK 922        TOTAL FREE ENERGY PREDICTED BY IDOCK:   -8.23 KCAL/MOL
REMARK 923 INTER-LIGAND FREE ENERGY PREDICTED BY IDOCK:   -7.45 KCAL/MOL
REMARK 924 INTRA-LIGAND FREE ENERGY PREDICTED BY IDOCK:   -0.78 KCAL/MOL
REMARK 927      BINDING AFFINITY PREDICTED BY RF-SCORE:    0.00 PKD
ROOT
HETATM    1  C   UNL     1     -10.728   5.394  73.998  1.00  0.00    -0.253 C  
HETATM    2  C   UNL     1     -10.588   6.787  73.437  1.00  0.00    -0.325 C  
HETATM    3  N   UNL     1     -11.717   7.200  72.746  1.00  0.00    -0.534 N  
HETATM    4  O   UNL     1      -9.558   7.424  73.622  1.00  0.00    -0.241 OA 
HETATM    5  H   UNL     1     -12.492   6.539  72.699  1.00  0.00     0.000 HD 
ENDROOT
BRANCH   3   6
HETATM    6  C   UNL     1     -11.905   8.445  72.100  1.00  0.00    -0.375 A  
HETATM    7  C   UNL     1     -13.018   9.261  72.315  1.00  0.00    -0.488 A  
HETATM    8  C   UNL     1     -13.145  10.494  71.673  1.00  0.00    -0.551 A  
HETATM    9  C   UNL     1     -12.143  10.946  70.821  1.00  0.00    -0.368 A  
HETATM   10  C   UNL     1     -10.923   8.885  71.201  1.00  0.00    -0.356 A  
HETATM   11  C   UNL     1     -11.044  10.126  70.557  1.00  0.00    -0.400 A  
BRANCH   9  12
HETATM   12  O   UNL     1     -12.146  12.218  70.195  1.00  0.00    -0.327 OA 
BRANCH  12  13
HETATM   13  C   UNL     1     -11.906  12.408  68.832  1.00  0.00    -0.301 C  
HETATM   14  O   UNL     1     -12.246  11.677  67.915  1.00  0.00    -0.560 OA 
BRANCH  13  15
HETATM   15  C   UNL     1     -11.193  13.693  68.618  1.00  0.00    -0.308 A  
HETATM   16  C   UNL     1     -11.892  14.913  68.679  1.00  0.00    -0.332 A  
HETATM   17  C   UNL     1     -11.216  16.126  68.520  1.00  0.00    -0.365 A  
HETATM   18  C   UNL     1      -9.840  16.142  68.309  1.00  0.00    -0.224 A  
HETATM   19  C   UNL     1      -9.131  14.944  68.262  1.00  0.00    -0.179 A  
HETATM   20  C   UNL     1      -9.809  13.723  68.392  1.00  0.00    -0.227 A  
BRANCH  20  21
HETATM   21  O   UNL     1      -9.041  12.541  68.403  1.00  0.00    -0.194 OA 
BRANCH  21  22
HETATM   22  C   UNL     1      -8.319  12.259  67.246  1.00  0.00    -0.182 C  
HETATM   23  O   UNL     1      -7.105  12.341  67.107  1.00  0.00    -0.147 OA 
HETATM   24  C   UNL     1      -9.248  11.726  66.197  1.00  0.00    -0.218 C  
ENDBRANCH  21  22
ENDBRANCH  20  21
ENDBRANCH  13  15
ENDBRANCH  12  13
ENDBRANCH   9  12
ENDBRANCH   3   6
TORSDOF 6
ENDMDL
MODEL       63
REMARK 921   NORMALIZED FREE ENERGY PREDICTED BY IDOCK:   -4.94 KCAL/MOL
REMARK 922        TOTAL FREE ENERGY PREDICTED BY IDOCK:   -8.15 KCAL/MOL
REMARK 923 INTER-LIGAND FREE ENERGY PREDICTED BY IDOCK:   -7.14 KCAL/MOL
REMARK 924 INTRA-LIGAND FREE ENERGY PREDICTED BY IDOCK:   -1.01 KCAL/MOL
REMARK 927      BINDING AFFINITY PREDICTED BY RF-SCORE:    0.00 PKD
ROOT
HETATM    1  C   UNL     1     -11.831  14.357  66.502  1.00  0.00    -0.406 C  
HETATM    2  C   UNL     1     -11.868  12.992  67.143  1.00  0.00    -0.373 C  
HETATM    3  N   UNL     1     -11.622  13.035  68.506  1.00  0.00    -0.305 N  
HETATM    4  O   UNL     1     -12.105  12.000  66.464  1.00  0.00    -0.617 OA 
HETATM    5  H   UNL     1     -11.452  13.956  68.911  1.00  0.00     0.000 HD 
ENDROOT
BRANCH   3   6
HETATM    6  C   UNL     1     -11.582  11.935  69.395  1.00  0.00    -0.325 A  
HETATM    7  C   UNL     1     -12.504  11.748  70.428  1.00  0.00    -0.280 A  
HETATM    8  C   UNL     1     -12.438  10.631  71.262  1.00  0.00    -0.515 A  
HETATM    9  C   UNL     1     -11.460   9.663  71.059  1.00  0.00    -0.371 A  
HETATM   10  C   UNL     1     -10.570  10.980  69.228  1.00  0.00    -0.236 A  
HETATM   11  C   UNL     1     -10.502   9.852  70.061  1.00  0.00    -0.331 A  
BRANCH   9  12
HETATM   12  O   UNL     1     -11.371   8.457  71.799  1.00  0.00    -0.264 OA 
BRANCH  12  13
HETATM   13  C   UNL     1     -12.080   7.298  71.473  1.00  0.00    -0.331 C  
HETATM   14  O   UNL     1     -13.260   7.070  71.690  1.00  0.00    -0.374 OA 
BRANCH  13  15
HETATM   15  C   UNL     1     -11.193   6.347  70.755  1.00  0.00    -0.386 A  
HETATM   16  C   UNL     1     -11.237   6.255  69.352  1.00  0.00    -0.489 A  
HETATM   17  C   UNL     1     -10.374   5.392  68.670  1.00  0.00    -0.229 A  
HETATM   18  C   UNL     1      -9.454   4.620  69.373  1.00  0.00    -0.239 A  
HETATM   19  C   UNL     1      -9.387   4.710  70.761  1.00  0.00    -0.215 A  
HETATM   20  C   UNL     1     -10.270   5.554  71.452  1.00  0.00    -0.215 A  
BRANCH  20  21
HETATM   21  O   UNL     1     -10.120   5.661  72.849  1.00  0.00    -0.170 OA 
BRANCH  21  22
HETATM   22  C   UNL     1     -10.023   4.466  73.557  1.00  0.00    -0.140 C  
HETATM   23  O   UNL     1      -9.025   4.030  74.114  1.00  0.00    -0.095 OA 
HETATM   24  C   UNL     1     -11.375   3.822  73.633  1.00  0.00    -0.231 C  
ENDBRANCH  21  22
ENDBRANCH  20  21
ENDBRANCH  13  15
ENDBRANCH  12  13
ENDBRANCH   9  12
ENDBRANCH   3   6
TORSDOF 6
ENDMDL
MODEL       64
REMARK 921   NORMALIZED FREE ENERGY PREDICTED BY IDOCK:   -4.93 KCAL/MOL
REMARK 922        TOTAL FREE ENERGY PREDICTED BY IDOCK:   -8.13 KCAL/MOL
REMARK 923 INTER-LIGAND FREE ENERGY PREDICTED BY IDOCK:   -7.66 KCAL/MOL
REMARK 924 INTRA-LIGAND FREE ENERGY PREDICTED BY IDOCK:   -0.47 KCAL/MOL
REMARK 927      BINDING AFFINITY PREDICTED BY RF-SCORE:    0.00 PKD
ROOT
HETATM    1  C   UNL     1     -10.480  18.621  65.865  1.00  0.00    -0.395 C  
HETATM    2  C   UNL     1     -10.724  17.169  65.537  1.00  0.00    -0.117 C  
HETATM    3  N   UNL     1     -10.454  16.328  66.606  1.00  0.00    -0.302 N  
HETATM    4  O   UNL     1     -11.125  16.848  64.425  1.00  0.00    -1.128 OA 
HETATM    5  H   UNL     1     -10.135  16.771  67.467  1.00  0.00     0.000 HD 
ENDROOT
BRANCH   3   6
HETATM    6  C   UNL     1     -10.576  14.919  66.626  1.00  0.00    -0.305 A  
HETATM    7  C   UNL     1     -11.803  14.254  66.696  1.00  0.00    -0.442 A  
HETATM    8  C   UNL     1     -11.872  12.860  66.686  1.00  0.00    -0.461 A  
HETATM    9  C   UNL     1     -10.710  12.103  66.577  1.00  0.00    -0.255 A  
HETATM   10  C   UNL     1      -9.406  14.148  66.567  1.00  0.00    -0.285 A  
HETATM   11  C   UNL     1      -9.470  12.746  66.551  1.00  0.00    -0.253 A  
BRANCH   9  12
HETATM   12  O   UNL     1     -10.690  10.690  66.472  1.00  0.00    -0.224 OA 
BRANCH  12  13
HETATM   13  C   UNL     1      -9.636   9.896  66.933  1.00  0.00    -0.179 C  
HETATM   14  O   UNL     1      -8.445  10.164  66.904  1.00  0.00    -0.125 OA 
BRANCH  13  15
HETATM   15  C   UNL     1     -10.169   8.647  67.536  1.00  0.00    -0.308 A  
HETATM   16  C   UNL     1     -10.385   7.509  66.738  1.00  0.00    -0.332 A  
HETATM   17  C   UNL     1     -10.847   6.320  67.309  1.00  0.00    -0.457 A  
HETATM   18  C   UNL     1     -11.089   6.246  68.678  1.00  0.00    -0.409 A  
HETATM   19  C   UNL     1     -10.865   7.359  69.484  1.00  0.00    -0.201 A  
HETATM   20  C   UNL     1     -10.429   8.563  68.911  1.00  0.00    -0.188 A  
BRANCH  20  21
HETATM   21  O   UNL     1     -10.154   9.642  69.775  1.00  0.00    -0.203 OA 
BRANCH  21  22
HETATM   22  C   UNL     1     -11.139   9.957  70.709  1.00  0.00    -0.347 C  
HETATM   23  O   UNL     1     -11.197   9.562  71.866  1.00  0.00    -0.310 OA 
HETATM   24  C   UNL     1     -12.086  10.956  70.115  1.00  0.00    -0.431 C  
ENDBRANCH  21  22
ENDBRANCH  20  21
ENDBRANCH  13  15
ENDBRANCH  12  13
ENDBRANCH   9  12
ENDBRANCH   3   6
TORSDOF 6
ENDMDL
MODEL       65
REMARK 921   NORMALIZED FREE ENERGY PREDICTED BY IDOCK:   -4.92 KCAL/MOL
REMARK 922        TOTAL FREE ENERGY PREDICTED BY IDOCK:   -8.12 KCAL/MOL
REMARK 923 INTER-LIGAND FREE ENERGY PREDICTED BY IDOCK:   -7.33 KCAL/MOL
REMARK 924 INTRA-LIGAND FREE ENERGY PREDICTED BY IDOCK:   -0.79 KCAL/MOL
REMARK 927      BINDING AFFINITY PREDICTED BY RF-SCORE:    0.00 PKD
ROOT
HETATM    1  C   UNL     1      -9.530   2.893  70.597  1.00  0.00    -0.218 C  
HETATM    2  C   UNL     1      -9.717   4.305  71.094  1.00  0.00    -0.189 C  
HETATM    3  N   UNL     1     -10.482   5.076  70.234  1.00  0.00    -0.232 N  
HETATM    4  O   UNL     1      -9.220   4.653  72.158  1.00  0.00    -0.125 OA 
HETATM    5  H   UNL     1     -10.825   4.617  69.390  1.00  0.00     0.000 HD 
ENDROOT
BRANCH   3   6
HETATM    6  C   UNL     1     -10.836   6.436  70.404  1.00  0.00    -0.286 A  
HETATM    7  C   UNL     1     -12.009   6.850  71.039  1.00  0.00    -0.422 A  
HETATM    8  C   UNL     1     -12.301   8.205  71.207  1.00  0.00    -0.285 A  
HETATM    9  C   UNL     1     -11.407   9.173  70.762  1.00  0.00    -0.280 A  
HETATM   10  C   UNL     1      -9.964   7.418  69.914  1.00  0.00    -0.188 A  
HETATM   11  C   UNL     1     -10.250   8.782  70.085  1.00  0.00    -0.207 A  
BRANCH   9  12
HETATM   12  O   UNL     1     -11.578  10.565  70.966  1.00  0.00    -0.330 OA 
BRANCH  12  13
HETATM   13  C   UNL     1     -12.172  11.415  70.028  1.00  0.00    -0.301 C  
HETATM   14  O   UNL     1     -12.460  11.150  68.872  1.00  0.00    -0.460 OA 
BRANCH  13  15
HETATM   15  C   UNL     1     -12.467  12.730  70.654  1.00  0.00    -0.328 A  
HETATM   16  C   UNL     1     -13.322  12.811  71.768  1.00  0.00    -0.436 A  
HETATM   17  C   UNL     1     -13.568  14.042  72.385  1.00  0.00    -0.658 A  
HETATM   18  C   UNL     1     -12.962  15.200  71.907  1.00  0.00    -0.443 A  
HETATM   19  C   UNL     1     -12.101  15.135  70.814  1.00  0.00    -0.387 A  
HETATM   20  C   UNL     1     -11.873  13.907  70.175  1.00  0.00    -0.298 A  
BRANCH  20  21
HETATM   21  O   UNL     1     -10.945  13.879  69.115  1.00  0.00    -0.245 OA 
BRANCH  21  22
HETATM   22  C   UNL     1     -11.120  14.827  68.111  1.00  0.00    -0.278 C  
HETATM   23  O   UNL     1     -10.588  15.928  68.048  1.00  0.00    -0.269 OA 
HETATM   24  C   UNL     1     -11.992  14.255  67.033  1.00  0.00    -0.463 C  
ENDBRANCH  21  22
ENDBRANCH  20  21
ENDBRANCH  13  15
ENDBRANCH  12  13
ENDBRANCH   9  12
ENDBRANCH   3   6
TORSDOF 6
ENDMDL
MODEL       66
REMARK 921   NORMALIZED FREE ENERGY PREDICTED BY IDOCK:   -4.91 KCAL/MOL
REMARK 922        TOTAL FREE ENERGY PREDICTED BY IDOCK:   -8.10 KCAL/MOL
REMARK 923 INTER-LIGAND FREE ENERGY PREDICTED BY IDOCK:   -7.66 KCAL/MOL
REMARK 924 INTRA-LIGAND FREE ENERGY PREDICTED BY IDOCK:   -0.45 KCAL/MOL
REMARK 927      BINDING AFFINITY PREDICTED BY RF-SCORE:    0.00 PKD
ROOT
HETATM    1  C   UNL     1     -10.531   7.037  67.255  1.00  0.00    -0.363 C  
HETATM    2  C   UNL     1     -10.385   8.382  67.920  1.00  0.00    -0.221 C  
HETATM    3  N   UNL     1     -10.531   9.435  67.031  1.00  0.00    -0.248 N  
HETATM    4  O   UNL     1     -10.169   8.454  69.124  1.00  0.00    -0.202 OA 
HETATM    5  H   UNL     1     -10.718   9.190  66.058  1.00  0.00     0.000 HD 
ENDROOT
BRANCH   3   6
HETATM    6  C   UNL     1     -10.447  10.816  67.332  1.00  0.00    -0.225 A  
HETATM    7  C   UNL     1     -11.556  11.665  67.356  1.00  0.00    -0.330 A  
HETATM    8  C   UNL     1     -11.425  13.015  67.686  1.00  0.00    -0.369 A  
HETATM    9  C   UNL     1     -10.181  13.535  68.024  1.00  0.00    -0.243 A  
HETATM   10  C   UNL     1      -9.189  11.358  67.625  1.00  0.00    -0.158 A  
HETATM   11  C   UNL     1      -9.052  12.714  67.962  1.00  0.00    -0.207 A  
BRANCH   9  12
HETATM   12  O   UNL     1      -9.967  14.869  68.454  1.00  0.00    -0.212 OA 
BRANCH  12  13
HETATM   13  C   UNL     1     -10.940  15.869  68.379  1.00  0.00    -0.331 C  
HETATM   14  O   UNL     1     -12.119  15.775  68.682  1.00  0.00    -0.269 OA 
BRANCH  13  15
HETATM   15  C   UNL     1     -10.326  17.137  67.905  1.00  0.00    -0.350 A  
HETATM   16  C   UNL     1     -10.282  18.263  68.747  1.00  0.00    -0.342 A  
HETATM   17  C   UNL     1      -9.668  19.444  68.320  1.00  0.00    -0.480 A  
HETATM   18  C   UNL     1      -9.083  19.515  67.058  1.00  0.00    -0.378 A  
HETATM   19  C   UNL     1      -9.104  18.404  66.219  1.00  0.00    -0.213 A  
HETATM   20  C   UNL     1      -9.744  17.226  66.633  1.00  0.00    -0.288 A  
BRANCH  20  21
HETATM   21  O   UNL     1      -9.682  16.108  65.777  1.00  0.00    -0.353 OA 
BRANCH  21  22
HETATM   22  C   UNL     1     -10.721  15.969  64.860  1.00  0.00    -0.316 C  
HETATM   23  O   UNL     1     -11.248  16.867  64.215  1.00  0.00    -1.204 OA 
HETATM   24  C   UNL     1     -11.042  14.515  64.688  1.00  0.00    -0.356 C  
ENDBRANCH  21  22
ENDBRANCH  20  21
ENDBRANCH  13  15
ENDBRANCH  12  13
ENDBRANCH   9  12
ENDBRANCH   3   6
TORSDOF 6
ENDMDL
MODEL       67
REMARK 921   NORMALIZED FREE ENERGY PREDICTED BY IDOCK:   -4.89 KCAL/MOL
REMARK 922        TOTAL FREE ENERGY PREDICTED BY IDOCK:   -8.08 KCAL/MOL
REMARK 923 INTER-LIGAND FREE ENERGY PREDICTED BY IDOCK:   -7.20 KCAL/MOL
REMARK 924 INTRA-LIGAND FREE ENERGY PREDICTED BY IDOCK:   -0.88 KCAL/MOL
REMARK 927      BINDING AFFINITY PREDICTED BY RF-SCORE:    0.00 PKD
ROOT
HETATM    1  C   UNL     1      -9.779  19.944  66.423  1.00  0.00    -0.558 C  
HETATM    2  C   UNL     1     -10.397  18.610  66.088  1.00  0.00    -0.443 C  
HETATM    3  N   UNL     1     -10.187  17.662  67.077  1.00  0.00    -0.320 N  
HETATM    4  O   UNL     1     -11.010  18.462  65.038  1.00  0.00    -0.644 OA 
HETATM    5  H   UNL     1      -9.658  17.964  67.895  1.00  0.00     0.000 HD 
ENDROOT
BRANCH   3   6
HETATM    6  C   UNL     1     -10.631  16.318  67.070  1.00  0.00    -0.284 A  
HETATM    7  C   UNL     1     -11.412  15.761  68.085  1.00  0.00    -0.302 A  
HETATM    8  C   UNL     1     -11.847  14.437  68.018  1.00  0.00    -0.361 A  
HETATM    9  C   UNL     1     -11.530  13.651  66.916  1.00  0.00    -0.345 A  
HETATM   10  C   UNL     1     -10.274  15.505  65.985  1.00  0.00    -0.349 A  
HETATM   11  C   UNL     1     -10.714  14.174  65.911  1.00  0.00    -0.298 A  
BRANCH   9  12
HETATM   12  O   UNL     1     -12.000  12.328  66.722  1.00  0.00    -0.586 OA 
BRANCH  12  13
HETATM   13  C   UNL     1     -11.657  11.257  67.553  1.00  0.00    -0.175 C  
HETATM   14  O   UNL     1     -12.239  10.892  68.562  1.00  0.00    -0.535 OA 
BRANCH  13  15
HETATM   15  C   UNL     1     -10.468  10.554  67.007  1.00  0.00    -0.304 A  
HETATM   16  C   UNL     1     -10.434  10.158  65.657  1.00  0.00    -0.103 A  
HETATM   17  C   UNL     1      -9.299   9.534  65.130  1.00  0.00    -0.316 A  
HETATM   18  C   UNL     1      -8.185   9.306  65.934  1.00  0.00    -0.116 A  
HETATM   19  C   UNL     1      -8.197   9.706  67.267  1.00  0.00    -0.114 A  
HETATM   20  C   UNL     1      -9.344  10.307  67.808  1.00  0.00    -0.144 A  
BRANCH  20  21
HETATM   21  O   UNL     1      -9.285  10.754  69.144  1.00  0.00    -0.184 OA 
BRANCH  21  22
HETATM   22  C   UNL     1      -8.888   9.818  70.095  1.00  0.00    -0.188 C  
HETATM   23  O   UNL     1      -7.835   9.815  70.719  1.00  0.00    -0.304 OA 
HETATM   24  C   UNL     1     -10.005   8.845  70.332  1.00  0.00    -0.230 C  
ENDBRANCH  21  22
ENDBRANCH  20  21
ENDBRANCH  13  15
ENDBRANCH  12  13
ENDBRANCH   9  12
ENDBRANCH   3   6
TORSDOF 6
ENDMDL
MODEL       68
REMARK 921   NORMALIZED FREE ENERGY PREDICTED BY IDOCK:   -4.88 KCAL/MOL
REMARK 922        TOTAL FREE ENERGY PREDICTED BY IDOCK:   -8.07 KCAL/MOL
REMARK 923 INTER-LIGAND FREE ENERGY PREDICTED BY IDOCK:   -7.26 KCAL/MOL
REMARK 924 INTRA-LIGAND FREE ENERGY PREDICTED BY IDOCK:   -0.81 KCAL/MOL
REMARK 927      BINDING AFFINITY PREDICTED BY RF-SCORE:    0.00 PKD
ROOT
HETATM    1  C   UNL     1     -11.150   7.311  73.215  1.00  0.00    -0.281 C  
HETATM    2  C   UNL     1     -11.362   7.948  71.865  1.00  0.00    -0.276 C  
HETATM    3  N   UNL     1     -10.773   9.199  71.767  1.00  0.00    -0.366 N  
HETATM    4  O   UNL     1     -11.992   7.355  70.997  1.00  0.00    -0.304 OA 
HETATM    5  H   UNL     1     -10.276   9.536  72.591  1.00  0.00     0.000 HD 
ENDROOT
BRANCH   3   6
HETATM    6  C   UNL     1     -10.790  10.057  70.641  1.00  0.00    -0.297 A  
HETATM    7  C   UNL     1     -11.766  11.035  70.436  1.00  0.00    -0.437 A  
HETATM    8  C   UNL     1     -11.724  11.875  69.322  1.00  0.00    -0.389 A  
HETATM    9  C   UNL     1     -10.684  11.769  68.405  1.00  0.00    -0.219 A  
HETATM   10  C   UNL     1      -9.773   9.923  69.686  1.00  0.00    -0.252 A  
HETATM   11  C   UNL     1      -9.723  10.769  68.567  1.00  0.00    -0.184 A  
BRANCH   9  12
HETATM   12  O   UNL     1     -10.512  12.634  67.295  1.00  0.00    -0.226 OA 
BRANCH  12  13
HETATM   13  C   UNL     1     -11.416  13.645  66.958  1.00  0.00    -0.343 C  
HETATM   14  O   UNL     1     -12.590  13.512  66.649  1.00  0.00    -0.271 OA 
BRANCH  13  15
HETATM   15  C   UNL     1     -10.757  14.972  67.071  1.00  0.00    -0.304 A  
HETATM   16  C   UNL     1      -9.751  15.346  66.161  1.00  0.00    -0.347 A  
HETATM   17  C   UNL     1      -9.158  16.609  66.239  1.00  0.00    -0.333 A  
HETATM   18  C   UNL     1      -9.564  17.517  67.214  1.00  0.00    -0.273 A  
HETATM   19  C   UNL     1     -10.569  17.168  68.112  1.00  0.00    -0.380 A  
HETATM   20  C   UNL     1     -11.147  15.890  68.056  1.00  0.00    -0.334 A  
BRANCH  20  21
HETATM   21  O   UNL     1     -12.205  15.607  68.943  1.00  0.00    -0.251 OA 
BRANCH  21  22
HETATM   22  C   UNL     1     -11.863  15.428  70.281  1.00  0.00    -0.338 C  
HETATM   23  O   UNL     1     -10.735  15.462  70.754  1.00  0.00    -0.306 OA 
HETATM   24  C   UNL     1     -13.111  15.288  71.099  1.00  0.00    -0.546 C  
ENDBRANCH  21  22
ENDBRANCH  20  21
ENDBRANCH  13  15
ENDBRANCH  12  13
ENDBRANCH   9  12
ENDBRANCH   3   6
TORSDOF 6
ENDMDL
MODEL       69
REMARK 921   NORMALIZED FREE ENERGY PREDICTED BY IDOCK:   -4.88 KCAL/MOL
REMARK 922        TOTAL FREE ENERGY PREDICTED BY IDOCK:   -8.07 KCAL/MOL
REMARK 923 INTER-LIGAND FREE ENERGY PREDICTED BY IDOCK:   -7.03 KCAL/MOL
REMARK 924 INTRA-LIGAND FREE ENERGY PREDICTED BY IDOCK:   -1.03 KCAL/MOL
REMARK 927      BINDING AFFINITY PREDICTED BY RF-SCORE:    0.00 PKD
ROOT
HETATM    1  C   UNL     1      -8.966   5.186  66.224  1.00  0.00    -0.130 C  
HETATM    2  C   UNL     1      -9.902   6.341  66.474  1.00  0.00    -0.126 C  
HETATM    3  N   UNL     1      -9.291   7.572  66.298  1.00  0.00    -0.311 N  
HETATM    4  O   UNL     1     -11.068   6.131  66.790  1.00  0.00    -0.322 OA 
HETATM    5  H   UNL     1      -8.308   7.560  66.024  1.00  0.00     0.000 HD 
ENDROOT
BRANCH   3   6
HETATM    6  C   UNL     1      -9.888   8.845  66.459  1.00  0.00    -0.274 A  
HETATM    7  C   UNL     1      -9.878   9.829  65.468  1.00  0.00    -0.378 A  
HETATM    8  C   UNL     1     -10.505  11.061  65.665  1.00  0.00    -0.293 A  
HETATM    9  C   UNL     1     -11.178  11.320  66.854  1.00  0.00    -0.230 A  
HETATM   10  C   UNL     1     -10.526   9.133  67.674  1.00  0.00    -0.323 A  
HETATM   11  C   UNL     1     -11.162  10.368  67.875  1.00  0.00    -0.332 A  
BRANCH   9  12
HETATM   12  O   UNL     1     -11.915  12.505  67.108  1.00  0.00    -0.484 OA 
BRANCH  12  13
HETATM   13  C   UNL     1     -11.543  13.454  68.063  1.00  0.00    -0.334 C  
HETATM   14  O   UNL     1     -12.131  13.727  69.098  1.00  0.00    -0.346 OA 
BRANCH  13  15
HETATM   15  C   UNL     1     -10.259  14.090  67.672  1.00  0.00    -0.241 A  
HETATM   16  C   UNL     1      -9.041  13.605  68.183  1.00  0.00    -0.195 A  
HETATM   17  C   UNL     1      -7.828  14.174  67.784  1.00  0.00    -0.177 A  
HETATM   18  C   UNL     1      -7.811  15.221  66.867  1.00  0.00    -0.152 A  
HETATM   19  C   UNL     1      -9.007  15.702  66.340  1.00  0.00    -0.362 A  
HETATM   20  C   UNL     1     -10.229  15.154  66.759  1.00  0.00    -0.264 A  
BRANCH  20  21
HETATM   21  O   UNL     1     -11.407  15.628  66.149  1.00  0.00    -0.125 OA 
BRANCH  21  22
HETATM   22  C   UNL     1     -11.423  15.643  64.757  1.00  0.00    -0.283 C  
HETATM   23  O   UNL     1     -11.279  16.622  64.037  1.00  0.00    -1.052 OA 
HETATM   24  C   UNL     1     -11.541  14.237  64.246  1.00  0.00    -0.299 C  
ENDBRANCH  21  22
ENDBRANCH  20  21
ENDBRANCH  13  15
ENDBRANCH  12  13
ENDBRANCH   9  12
ENDBRANCH   3   6
TORSDOF 6
ENDMDL
MODEL       70
REMARK 921   NORMALIZED FREE ENERGY PREDICTED BY IDOCK:   -4.87 KCAL/MOL
REMARK 922        TOTAL FREE ENERGY PREDICTED BY IDOCK:   -8.06 KCAL/MOL
REMARK 923 INTER-LIGAND FREE ENERGY PREDICTED BY IDOCK:   -7.05 KCAL/MOL
REMARK 924 INTRA-LIGAND FREE ENERGY PREDICTED BY IDOCK:   -1.01 KCAL/MOL
REMARK 927      BINDING AFFINITY PREDICTED BY RF-SCORE:    0.00 PKD
ROOT
HETATM    1  C   UNL     1     -12.454  12.200  63.334  1.00  0.00    -0.625 C  
HETATM    2  C   UNL     1     -12.190  13.190  64.440  1.00  0.00    -0.398 C  
HETATM    3  N   UNL     1     -10.932  13.765  64.353  1.00  0.00    -0.542 N  
HETATM    4  O   UNL     1     -13.049  13.412  65.286  1.00  0.00    -0.687 OA 
HETATM    5  H   UNL     1     -10.347  13.467  63.572  1.00  0.00     0.000 HD 
ENDROOT
BRANCH   3   6
HETATM    6  C   UNL     1     -10.376  14.724  65.233  1.00  0.00    -0.398 A  
HETATM    7  C   UNL     1      -9.491  14.398  66.263  1.00  0.00    -0.297 A  
HETATM    8  C   UNL     1      -8.948  15.384  67.089  1.00  0.00    -0.236 A  
HETATM    9  C   UNL     1      -9.262  16.723  66.879  1.00  0.00    -0.232 A  
HETATM   10  C   UNL     1     -10.726  16.070  65.059  1.00  0.00    -0.400 A  
HETATM   11  C   UNL     1     -10.178  17.066  65.883  1.00  0.00    -0.311 A  
BRANCH   9  12
HETATM   12  O   UNL     1      -8.692  17.796  67.609  1.00  0.00    -0.239 OA 
BRANCH  12  13
HETATM   13  C   UNL     1      -7.446  18.356  67.312  1.00  0.00    -0.217 C  
HETATM   14  O   UNL     1      -7.014  18.651  66.209  1.00  0.00    -0.209 OA 
BRANCH  13  15
HETATM   15  C   UNL     1      -6.692  18.603  68.568  1.00  0.00    -0.274 A  
HETATM   16  C   UNL     1      -6.813  19.834  69.239  1.00  0.00    -0.370 A  
HETATM   17  C   UNL     1      -6.137  20.054  70.443  1.00  0.00    -0.384 A  
HETATM   18  C   UNL     1      -5.344  19.053  70.997  1.00  0.00    -0.270 A  
HETATM   19  C   UNL     1      -5.226  17.824  70.353  1.00  0.00    -0.262 A  
HETATM   20  C   UNL     1      -5.879  17.608  69.130  1.00  0.00    -0.208 A  
BRANCH  20  21
HETATM   21  O   UNL     1      -5.783  16.328  68.550  1.00  0.00    -0.105 OA 
BRANCH  21  22
HETATM   22  C   UNL     1      -6.251  15.262  69.315  1.00  0.00    -0.118 C  
HETATM   23  O   UNL     1      -7.320  15.207  69.909  1.00  0.00    -0.188 OA 
HETATM   24  C   UNL     1      -5.285  14.120  69.221  1.00  0.00    -0.081 C  
ENDBRANCH  21  22
ENDBRANCH  20  21
ENDBRANCH  13  15
ENDBRANCH  12  13
ENDBRANCH   9  12
ENDBRANCH   3   6
TORSDOF 6
ENDMDL
MODEL       71
REMARK 921   NORMALIZED FREE ENERGY PREDICTED BY IDOCK:   -4.87 KCAL/MOL
REMARK 922        TOTAL FREE ENERGY PREDICTED BY IDOCK:   -8.06 KCAL/MOL
REMARK 923 INTER-LIGAND FREE ENERGY PREDICTED BY IDOCK:   -7.41 KCAL/MOL
REMARK 924 INTRA-LIGAND FREE ENERGY PREDICTED BY IDOCK:   -0.65 KCAL/MOL
REMARK 927      BINDING AFFINITY PREDICTED BY RF-SCORE:    0.00 PKD
ROOT
HETATM    1  C   UNL     1     -10.079   4.982  66.242  1.00  0.00    -0.275 C  
HETATM    2  C   UNL     1     -10.524   6.293  66.840  1.00  0.00    -0.272 C  
HETATM    3  N   UNL     1      -9.924   7.387  66.237  1.00  0.00    -0.457 N  
HETATM    4  O   UNL     1     -11.340   6.307  67.755  1.00  0.00    -0.250 OA 
HETATM    5  H   UNL     1      -9.271   7.189  65.478  1.00  0.00     0.000 HD 
ENDROOT
BRANCH   3   6
HETATM    6  C   UNL     1     -10.121   8.749  66.564  1.00  0.00    -0.279 A  
HETATM    7  C   UNL     1     -10.403   9.196  67.857  1.00  0.00    -0.285 A  
HETATM    8  C   UNL     1     -10.562  10.555  68.133  1.00  0.00    -0.240 A  
HETATM    9  C   UNL     1     -10.416  11.497  67.121  1.00  0.00    -0.224 A  
HETATM   10  C   UNL     1     -10.024   9.701  65.539  1.00  0.00    -0.279 A  
HETATM   11  C   UNL     1     -10.179  11.069  65.813  1.00  0.00    -0.316 A  
BRANCH   9  12
HETATM   12  O   UNL     1     -10.475  12.898  67.325  1.00  0.00    -0.232 OA 
BRANCH  12  13
HETATM   13  C   UNL     1     -11.670  13.617  67.406  1.00  0.00    -0.381 C  
HETATM   14  O   UNL     1     -12.452  13.851  66.498  1.00  0.00    -0.424 OA 
BRANCH  13  15
HETATM   15  C   UNL     1     -11.910  14.044  68.809  1.00  0.00    -0.396 A  
HETATM   16  C   UNL     1     -12.277  13.101  69.786  1.00  0.00    -0.266 A  
HETATM   17  C   UNL     1     -12.462  13.492  71.115  1.00  0.00    -0.424 A  
HETATM   18  C   UNL     1     -12.275  14.820  71.489  1.00  0.00    -0.407 A  
HETATM   19  C   UNL     1     -11.897  15.763  70.537  1.00  0.00    -0.402 A  
HETATM   20  C   UNL     1     -11.738  15.381  69.196  1.00  0.00    -0.345 A  
BRANCH  20  21
HETATM   21  O   UNL     1     -11.291  16.356  68.282  1.00  0.00    -0.350 OA 
BRANCH  21  22
HETATM   22  C   UNL     1     -10.136  17.051  68.630  1.00  0.00    -0.303 C  
HETATM   23  O   UNL     1     -10.066  18.228  68.958  1.00  0.00    -0.379 OA 
HETATM   24  C   UNL     1      -8.973  16.104  68.650  1.00  0.00    -0.221 C  
ENDBRANCH  21  22
ENDBRANCH  20  21
ENDBRANCH  13  15
ENDBRANCH  12  13
ENDBRANCH   9  12
ENDBRANCH   3   6
TORSDOF 6
ENDMDL
MODEL       72
REMARK 921   NORMALIZED FREE ENERGY PREDICTED BY IDOCK:   -4.85 KCAL/MOL
REMARK 922        TOTAL FREE ENERGY PREDICTED BY IDOCK:   -8.02 KCAL/MOL
REMARK 923 INTER-LIGAND FREE ENERGY PREDICTED BY IDOCK:   -7.52 KCAL/MOL
REMARK 924 INTRA-LIGAND FREE ENERGY PREDICTED BY IDOCK:   -0.50 KCAL/MOL
REMARK 927      BINDING AFFINITY PREDICTED BY RF-SCORE:    0.00 PKD
ROOT
HETATM    1  C   UNL     1     -12.118  14.753  64.346  1.00  0.00    -0.457 C  
HETATM    2  C   UNL     1     -12.413  13.635  65.314  1.00  0.00    -0.479 C  
HETATM    3  N   UNL     1     -11.703  13.753  66.498  1.00  0.00    -0.364 N  
HETATM    4  O   UNL     1     -13.213  12.756  65.014  1.00  0.00    -0.768 OA 
HETATM    5  H   UNL     1     -11.084  14.559  66.582  1.00  0.00     0.000 HD 
ENDROOT
BRANCH   3   6
HETATM    6  C   UNL     1     -11.749  12.871  67.604  1.00  0.00    -0.370 A  
HETATM    7  C   UNL     1     -11.566  11.491  67.494  1.00  0.00    -0.322 A  
HETATM    8  C   UNL     1     -11.593  10.666  68.620  1.00  0.00    -0.297 A  
HETATM    9  C   UNL     1     -11.777  11.214  69.885  1.00  0.00    -0.355 A  
HETATM   10  C   UNL     1     -11.984  13.410  68.877  1.00  0.00    -0.362 A  
HETATM   11  C   UNL     1     -12.006  12.586  70.013  1.00  0.00    -0.372 A  
BRANCH   9  12
HETATM   12  O   UNL     1     -11.733  10.467  71.089  1.00  0.00    -0.329 OA 
BRANCH  12  13
HETATM   13  C   UNL     1     -11.502   9.090  71.134  1.00  0.00    -0.308 C  
HETATM   14  O   UNL     1     -12.316   8.200  70.948  1.00  0.00    -0.200 OA 
BRANCH  13  15
HETATM   15  C   UNL     1     -10.065   8.827  71.404  1.00  0.00    -0.354 A  
HETATM   16  C   UNL     1      -9.071   9.402  70.591  1.00  0.00    -0.292 A  
HETATM   17  C   UNL     1      -7.717   9.191  70.868  1.00  0.00    -0.152 A  
HETATM   18  C   UNL     1      -7.337   8.415  71.960  1.00  0.00    -0.122 A  
HETATM   19  C   UNL     1      -8.307   7.851  72.783  1.00  0.00    -0.203 A  
HETATM   20  C   UNL     1      -9.668   8.037  72.493  1.00  0.00    -0.258 A  
BRANCH  20  21
HETATM   21  O   UNL     1     -10.612   7.502  73.392  1.00  0.00    -0.375 OA 
BRANCH  21  22
HETATM   22  C   UNL     1     -10.805   6.124  73.342  1.00  0.00    -0.221 C  
HETATM   23  O   UNL     1     -11.324   5.494  72.430  1.00  0.00    -0.271 OA 
HETATM   24  C   UNL     1     -10.179   5.490  74.548  1.00  0.00    -0.291 C  
ENDBRANCH  21  22
ENDBRANCH  20  21
ENDBRANCH  13  15
ENDBRANCH  12  13
ENDBRANCH   9  12
ENDBRANCH   3   6
TORSDOF 6
ENDMDL
MODEL       73
REMARK 921   NORMALIZED FREE ENERGY PREDICTED BY IDOCK:   -4.82 KCAL/MOL
REMARK 922        TOTAL FREE ENERGY PREDICTED BY IDOCK:   -7.99 KCAL/MOL
REMARK 923 INTER-LIGAND FREE ENERGY PREDICTED BY IDOCK:   -7.13 KCAL/MOL
REMARK 924 INTRA-LIGAND FREE ENERGY PREDICTED BY IDOCK:   -0.86 KCAL/MOL
REMARK 927      BINDING AFFINITY PREDICTED BY RF-SCORE:    0.00 PKD
ROOT
HETATM    1  C   UNL     1     -10.408   8.061  66.912  1.00  0.00    -0.408 C  
HETATM    2  C   UNL     1     -10.576   9.553  67.052  1.00  0.00    -0.201 C  
HETATM    3  N   UNL     1      -9.940  10.259  66.043  1.00  0.00    -0.233 N  
HETATM    4  O   UNL     1     -11.226  10.014  67.982  1.00  0.00    -0.244 OA 
HETATM    5  H   UNL     1      -9.448   9.707  65.339  1.00  0.00     0.000 HD 
ENDROOT
BRANCH   3   6
HETATM    6  C   UNL     1      -9.901  11.664  65.887  1.00  0.00    -0.233 A  
HETATM    7  C   UNL     1     -10.445  12.331  64.786  1.00  0.00    -0.328 A  
HETATM    8  C   UNL     1     -10.405  13.723  64.692  1.00  0.00    -0.393 A  
HETATM    9  C   UNL     1      -9.842  14.477  65.715  1.00  0.00    -0.314 A  
HETATM   10  C   UNL     1      -9.291  12.430  66.891  1.00  0.00    -0.213 A  
HETATM   11  C   UNL     1      -9.253  13.830  66.803  1.00  0.00    -0.255 A  
BRANCH   9  12
HETATM   12  O   UNL     1      -9.836  15.895  65.746  1.00  0.00    -0.319 OA 
BRANCH  12  13
HETATM   13  C   UNL     1      -8.772  16.651  66.247  1.00  0.00    -0.324 C  
HETATM   14  O   UNL     1      -7.581  16.410  66.138  1.00  0.00    -0.163 OA 
BRANCH  13  15
HETATM   15  C   UNL     1      -9.292  17.868  66.923  1.00  0.00    -0.276 A  
HETATM   16  C   UNL     1      -9.441  19.070  66.207  1.00  0.00    -0.341 A  
HETATM   17  C   UNL     1      -9.969  20.205  66.830  1.00  0.00    -0.604 A  
HETATM   18  C   UNL     1     -10.363  20.155  68.164  1.00  0.00    -0.441 A  
HETATM   19  C   UNL     1     -10.237  18.969  68.882  1.00  0.00    -0.289 A  
HETATM   20  C   UNL     1      -9.681  17.835  68.270  1.00  0.00    -0.320 A  
BRANCH  20  21
HETATM   21  O   UNL     1      -9.634  16.640  69.016  1.00  0.00    -0.258 OA 
BRANCH  21  22
HETATM   22  C   UNL     1     -10.837  16.204  69.567  1.00  0.00    -0.329 C  
HETATM   23  O   UNL     1     -11.148  16.231  70.750  1.00  0.00    -0.320 OA 
HETATM   24  C   UNL     1     -11.764  15.784  68.466  1.00  0.00    -0.328 C  
ENDBRANCH  21  22
ENDBRANCH  20  21
ENDBRANCH  13  15
ENDBRANCH  12  13
ENDBRANCH   9  12
ENDBRANCH   3   6
TORSDOF 6
ENDMDL
MODEL       74
REMARK 921   NORMALIZED FREE ENERGY PREDICTED BY IDOCK:   -4.80 KCAL/MOL
REMARK 922        TOTAL FREE ENERGY PREDICTED BY IDOCK:   -7.96 KCAL/MOL
REMARK 923 INTER-LIGAND FREE ENERGY PREDICTED BY IDOCK:   -7.02 KCAL/MOL
REMARK 924 INTRA-LIGAND FREE ENERGY PREDICTED BY IDOCK:   -0.94 KCAL/MOL
REMARK 927      BINDING AFFINITY PREDICTED BY RF-SCORE:    0.00 PKD
ROOT
HETATM    1  C   UNL     1     -11.464   7.515  70.955  1.00  0.00    -0.299 C  
HETATM    2  C   UNL     1     -11.136   8.979  70.800  1.00  0.00    -0.272 C  
HETATM    3  N   UNL     1     -12.114   9.673  70.104  1.00  0.00    -0.467 N  
HETATM    4  O   UNL     1     -10.100   9.431  71.272  1.00  0.00    -0.302 OA 
HETATM    5  H   UNL     1     -12.921   9.135  69.789  1.00  0.00     0.000 HD 
ENDROOT
BRANCH   3   6
HETATM    6  C   UNL     1     -12.109  11.052  69.786  1.00  0.00    -0.353 A  
HETATM    7  C   UNL     1     -12.390  12.056  70.716  1.00  0.00    -0.403 A  
HETATM    8  C   UNL     1     -12.346  13.405  70.359  1.00  0.00    -0.382 A  
HETATM    9  C   UNL     1     -11.991  13.775  69.067  1.00  0.00    -0.360 A  
HETATM   10  C   UNL     1     -11.800  11.432  68.473  1.00  0.00    -0.364 A  
HETATM   11  C   UNL     1     -11.748  12.787  68.110  1.00  0.00    -0.392 A  
BRANCH   9  12
HETATM   12  O   UNL     1     -11.835  15.118  68.639  1.00  0.00    -0.339 OA 
BRANCH  12  13
HETATM   13  C   UNL     1     -11.260  16.117  69.429  1.00  0.00    -0.335 C  
HETATM   14  O   UNL     1     -11.449  16.316  70.619  1.00  0.00    -0.377 OA 
BRANCH  13  15
HETATM   15  C   UNL     1     -10.310  16.920  68.616  1.00  0.00    -0.332 A  
HETATM   16  C   UNL     1     -10.782  17.942  67.773  1.00  0.00    -0.339 A  
HETATM   17  C   UNL     1      -9.887  18.726  67.039  1.00  0.00    -0.359 A  
HETATM   18  C   UNL     1      -8.516  18.510  67.143  1.00  0.00    -0.268 A  
HETATM   19  C   UNL     1      -8.031  17.513  67.985  1.00  0.00    -0.234 A  
HETATM   20  C   UNL     1      -8.927  16.704  68.702  1.00  0.00    -0.246 A  
BRANCH  20  21
HETATM   21  O   UNL     1      -8.388  15.752  69.590  1.00  0.00    -0.200 OA 
BRANCH  21  22
HETATM   22  C   UNL     1      -7.509  14.821  69.044  1.00  0.00    -0.142 C  
HETATM   23  O   UNL     1      -6.316  14.711  69.296  1.00  0.00    -0.103 OA 
HETATM   24  C   UNL     1      -8.269  13.877  68.161  1.00  0.00    -0.158 C  
ENDBRANCH  21  22
ENDBRANCH  20  21
ENDBRANCH  13  15
ENDBRANCH  12  13
ENDBRANCH   9  12
ENDBRANCH   3   6
TORSDOF 6
ENDMDL
MODEL       75
REMARK 921   NORMALIZED FREE ENERGY PREDICTED BY IDOCK:   -4.80 KCAL/MOL
REMARK 922        TOTAL FREE ENERGY PREDICTED BY IDOCK:   -7.96 KCAL/MOL
REMARK 923 INTER-LIGAND FREE ENERGY PREDICTED BY IDOCK:   -7.06 KCAL/MOL
REMARK 924 INTRA-LIGAND FREE ENERGY PREDICTED BY IDOCK:   -0.90 KCAL/MOL
REMARK 927      BINDING AFFINITY PREDICTED BY RF-SCORE:    0.00 PKD
ROOT
HETATM    1  C   UNL     1      -8.933   2.812  68.203  1.00  0.00    -0.198 C  
HETATM    2  C   UNL     1      -8.762   4.297  68.008  1.00  0.00    -0.105 C  
HETATM    3  N   UNL     1      -9.909   5.012  68.312  1.00  0.00    -0.155 N  
HETATM    4  O   UNL     1      -7.688   4.748  67.625  1.00  0.00    -0.085 OA 
HETATM    5  H   UNL     1     -10.714   4.471  68.628  1.00  0.00     0.000 HD 
ENDROOT
BRANCH   3   6
HETATM    6  C   UNL     1     -10.081   6.414  68.231  1.00  0.00    -0.153 A  
HETATM    7  C   UNL     1      -9.938   7.270  69.326  1.00  0.00    -0.170 A  
HETATM    8  C   UNL     1     -10.091   8.651  69.188  1.00  0.00    -0.203 A  
HETATM    9  C   UNL     1     -10.365   9.204  67.942  1.00  0.00    -0.232 A  
HETATM   10  C   UNL     1     -10.406   6.974  66.988  1.00  0.00    -0.360 A  
HETATM   11  C   UNL     1     -10.556   8.363  66.843  1.00  0.00    -0.285 A  
BRANCH   9  12
HETATM   12  O   UNL     1     -10.451  10.597  67.692  1.00  0.00    -0.199 OA 
BRANCH  12  13
HETATM   13  C   UNL     1     -11.534  11.386  68.088  1.00  0.00    -0.305 C  
HETATM   14  O   UNL     1     -12.512  11.029  68.724  1.00  0.00    -0.468 OA 
BRANCH  13  15
HETATM   15  C   UNL     1     -11.317  12.793  67.660  1.00  0.00    -0.359 A  
HETATM   16  C   UNL     1     -10.549  13.666  68.452  1.00  0.00    -0.260 A  
HETATM   17  C   UNL     1     -10.308  14.978  68.032  1.00  0.00    -0.236 A  
HETATM   18  C   UNL     1     -10.818  15.431  66.818  1.00  0.00    -0.306 A  
HETATM   19  C   UNL     1     -11.567  14.574  66.016  1.00  0.00    -0.356 A  
HETATM   20  C   UNL     1     -11.835  13.266  66.447  1.00  0.00    -0.396 A  
BRANCH  20  21
HETATM   21  O   UNL     1     -12.541  12.417  65.571  1.00  0.00    -0.616 OA 
BRANCH  21  22
HETATM   22  C   UNL     1     -12.139  12.426  64.238  1.00  0.00    -0.433 C  
HETATM   23  O   UNL     1     -12.628  13.092  63.335  1.00  0.00    -0.722 OA 
HETATM   24  C   UNL     1     -10.923  11.562  64.079  1.00  0.00    -0.454 C  
ENDBRANCH  21  22
ENDBRANCH  20  21
ENDBRANCH  13  15
ENDBRANCH  12  13
ENDBRANCH   9  12
ENDBRANCH   3   6
TORSDOF 6
ENDMDL
MODEL       76
REMARK 921   NORMALIZED FREE ENERGY PREDICTED BY IDOCK:   -4.79 KCAL/MOL
REMARK 922        TOTAL FREE ENERGY PREDICTED BY IDOCK:   -7.94 KCAL/MOL
REMARK 923 INTER-LIGAND FREE ENERGY PREDICTED BY IDOCK:   -7.05 KCAL/MOL
REMARK 924 INTRA-LIGAND FREE ENERGY PREDICTED BY IDOCK:   -0.89 KCAL/MOL
REMARK 927      BINDING AFFINITY PREDICTED BY RF-SCORE:    0.00 PKD
ROOT
HETATM    1  C   UNL     1      -9.464   2.990  70.909  1.00  0.00    -0.229 C  
HETATM    2  C   UNL     1      -9.184   4.133  69.966  1.00  0.00    -0.143 C  
HETATM    3  N   UNL     1     -10.233   5.037  69.896  1.00  0.00    -0.276 N  
HETATM    4  O   UNL     1      -8.116   4.190  69.368  1.00  0.00    -0.059 OA 
HETATM    5  H   UNL     1     -11.049   4.835  70.474  1.00  0.00     0.000 HD 
ENDROOT
BRANCH   3   6
HETATM    6  C   UNL     1     -10.289   6.209  69.106  1.00  0.00    -0.218 A  
HETATM    7  C   UNL     1     -10.796   6.235  67.805  1.00  0.00    -0.424 A  
HETATM    8  C   UNL     1     -10.855   7.425  67.076  1.00  0.00    -0.307 A  
HETATM    9  C   UNL     1     -10.431   8.618  67.649  1.00  0.00    -0.244 A  
HETATM   10  C   UNL     1      -9.817   7.408  69.659  1.00  0.00    -0.175 A  
HETATM   11  C   UNL     1      -9.880   8.608  68.932  1.00  0.00    -0.184 A  
BRANCH   9  12
HETATM   12  O   UNL     1     -10.535   9.883  67.018  1.00  0.00    -0.237 OA 
BRANCH  12  13
HETATM   13  C   UNL     1     -11.253  10.956  67.552  1.00  0.00    -0.293 C  
HETATM   14  O   UNL     1     -12.255  10.898  68.248  1.00  0.00    -0.526 OA 
BRANCH  13  15
HETATM   15  C   UNL     1     -10.592  12.237  67.193  1.00  0.00    -0.250 A  
HETATM   16  C   UNL     1      -9.375  12.602  67.797  1.00  0.00    -0.198 A  
HETATM   17  C   UNL     1      -8.728  13.787  67.431  1.00  0.00    -0.210 A  
HETATM   18  C   UNL     1      -9.278  14.614  66.455  1.00  0.00    -0.294 A  
HETATM   19  C   UNL     1     -10.474  14.259  65.837  1.00  0.00    -0.315 A  
HETATM   20  C   UNL     1     -11.141  13.085  66.222  1.00  0.00    -0.289 A  
BRANCH  20  21
HETATM   21  O   UNL     1     -12.312  12.735  65.522  1.00  0.00    -0.496 OA 
BRANCH  21  22
HETATM   22  C   UNL     1     -12.257  12.826  64.133  1.00  0.00    -0.429 C  
HETATM   23  O   UNL     1     -12.720  13.725  63.444  1.00  0.00    -0.795 OA 
HETATM   24  C   UNL     1     -11.439  11.691  63.593  1.00  0.00    -0.458 C  
ENDBRANCH  21  22
ENDBRANCH  20  21
ENDBRANCH  13  15
ENDBRANCH  12  13
ENDBRANCH   9  12
ENDBRANCH   3   6
TORSDOF 6
ENDMDL
MODEL       77
REMARK 921   NORMALIZED FREE ENERGY PREDICTED BY IDOCK:   -4.79 KCAL/MOL
REMARK 922        TOTAL FREE ENERGY PREDICTED BY IDOCK:   -7.94 KCAL/MOL
REMARK 923 INTER-LIGAND FREE ENERGY PREDICTED BY IDOCK:   -7.04 KCAL/MOL
REMARK 924 INTRA-LIGAND FREE ENERGY PREDICTED BY IDOCK:   -0.90 KCAL/MOL
REMARK 927      BINDING AFFINITY PREDICTED BY RF-SCORE:    0.00 PKD
ROOT
HETATM    1  C   UNL     1     -11.876  14.382  67.289  1.00  0.00    -0.434 C  
HETATM    2  C   UNL     1     -11.908  12.973  67.827  1.00  0.00    -0.347 C  
HETATM    3  N   UNL     1     -11.865  12.929  69.211  1.00  0.00    -0.314 N  
HETATM    4  O   UNL     1     -11.973  12.022  67.056  1.00  0.00    -0.609 OA 
HETATM    5  H   UNL     1     -11.822  13.825  69.696  1.00  0.00     0.000 HD 
ENDROOT
BRANCH   3   6
HETATM    6  C   UNL     1     -11.876  11.769  70.022  1.00  0.00    -0.342 A  
HETATM    7  C   UNL     1     -12.827  11.537  71.018  1.00  0.00    -0.358 A  
HETATM    8  C   UNL     1     -12.811  10.363  71.774  1.00  0.00    -0.561 A  
HETATM    9  C   UNL     1     -11.854   9.385  71.527  1.00  0.00    -0.385 A  
HETATM   10  C   UNL     1     -10.884  10.800  69.812  1.00  0.00    -0.284 A  
HETATM   11  C   UNL     1     -10.867   9.616  70.566  1.00  0.00    -0.371 A  
BRANCH   9  12
HETATM   12  O   UNL     1     -11.813   8.129  72.183  1.00  0.00    -0.315 OA 
BRANCH  12  13
HETATM   13  C   UNL     1     -11.643   6.914  71.514  1.00  0.00    -0.290 C  
HETATM   14  O   UNL     1     -12.026   6.632  70.390  1.00  0.00    -0.396 OA 
BRANCH  13  15
HETATM   15  C   UNL     1     -10.859   5.977  72.359  1.00  0.00    -0.288 A  
HETATM   16  C   UNL     1     -11.510   4.968  73.092  1.00  0.00    -0.362 A  
HETATM   17  C   UNL     1     -10.771   4.058  73.856  1.00  0.00    -0.312 A  
HETATM   18  C   UNL     1      -9.382   4.135  73.890  1.00  0.00    -0.107 A  
HETATM   19  C   UNL     1      -8.722   5.119  73.158  1.00  0.00    -0.116 A  
HETATM   20  C   UNL     1      -9.460   6.052  72.413  1.00  0.00    -0.145 A  
BRANCH  20  21
HETATM   21  O   UNL     1      -8.746   6.986  71.637  1.00  0.00    -0.117 OA 
BRANCH  21  22
HETATM   22  C   UNL     1      -8.239   8.095  72.310  1.00  0.00    -0.154 C  
HETATM   23  O   UNL     1      -8.744   8.654  73.275  1.00  0.00    -0.352 OA 
HETATM   24  C   UNL     1      -6.899   8.453  71.739  1.00  0.00    -0.084 C  
ENDBRANCH  21  22
ENDBRANCH  20  21
ENDBRANCH  13  15
ENDBRANCH  12  13
ENDBRANCH   9  12
ENDBRANCH   3   6
TORSDOF 6
ENDMDL
MODEL       78
REMARK 921   NORMALIZED FREE ENERGY PREDICTED BY IDOCK:   -4.77 KCAL/MOL
REMARK 922        TOTAL FREE ENERGY PREDICTED BY IDOCK:   -7.92 KCAL/MOL
REMARK 923 INTER-LIGAND FREE ENERGY PREDICTED BY IDOCK:   -7.15 KCAL/MOL
REMARK 924 INTRA-LIGAND FREE ENERGY PREDICTED BY IDOCK:   -0.77 KCAL/MOL
REMARK 927      BINDING AFFINITY PREDICTED BY RF-SCORE:    0.00 PKD
ROOT
HETATM    1  C   UNL     1      -8.785  19.298  66.285  1.00  0.00    -0.333 C  
HETATM    2  C   UNL     1      -9.643  18.072  66.475  1.00  0.00    -0.315 C  
HETATM    3  N   UNL     1      -9.491  17.504  67.730  1.00  0.00    -0.265 N  
HETATM    4  O   UNL     1     -10.376  17.688  65.572  1.00  0.00    -0.627 OA 
HETATM    5  H   UNL     1      -8.839  17.964  68.365  1.00  0.00     0.000 HD 
ENDROOT
BRANCH   3   6
HETATM    6  C   UNL     1     -10.145  16.349  68.222  1.00  0.00    -0.248 A  
HETATM    7  C   UNL     1     -11.220  16.397  69.113  1.00  0.00    -0.275 A  
HETATM    8  C   UNL     1     -11.850  15.230  69.549  1.00  0.00    -0.368 A  
HETATM    9  C   UNL     1     -11.431  13.991  69.077  1.00  0.00    -0.296 A  
HETATM   10  C   UNL     1      -9.697  15.094  67.789  1.00  0.00    -0.211 A  
HETATM   11  C   UNL     1     -10.331  13.917  68.219  1.00  0.00    -0.249 A  
BRANCH   9  12
HETATM   12  O   UNL     1     -12.065  12.764  69.395  1.00  0.00    -0.273 OA 
BRANCH  12  13
HETATM   13  C   UNL     1     -11.775  11.556  68.754  1.00  0.00    -0.334 C  
HETATM   14  O   UNL     1     -12.017  11.261  67.594  1.00  0.00    -0.634 OA 
BRANCH  13  15
HETATM   15  C   UNL     1     -11.059  10.648  69.687  1.00  0.00    -0.342 A  
HETATM   16  C   UNL     1     -11.706  10.155  70.835  1.00  0.00    -0.468 A  
HETATM   17  C   UNL     1     -11.050   9.267  71.693  1.00  0.00    -0.438 A  
HETATM   18  C   UNL     1      -9.750   8.852  71.413  1.00  0.00    -0.370 A  
HETATM   19  C   UNL     1      -9.102   9.318  70.272  1.00  0.00    -0.271 A  
HETATM   20  C   UNL     1      -9.746  10.232  69.424  1.00  0.00    -0.222 A  
BRANCH  20  21
HETATM   21  O   UNL     1      -9.076  10.624  68.249  1.00  0.00    -0.142 OA 
BRANCH  21  22
HETATM   22  C   UNL     1      -8.585   9.600  67.443  1.00  0.00    -0.125 C  
HETATM   23  O   UNL     1      -7.407   9.353  67.217  1.00  0.00    -0.086 OA 
HETATM   24  C   UNL     1      -9.726   8.756  66.961  1.00  0.00    -0.258 C  
ENDBRANCH  21  22
ENDBRANCH  20  21
ENDBRANCH  13  15
ENDBRANCH  12  13
ENDBRANCH   9  12
ENDBRANCH   3   6
TORSDOF 6
ENDMDL
MODEL       79
REMARK 921   NORMALIZED FREE ENERGY PREDICTED BY IDOCK:   -4.75 KCAL/MOL
REMARK 922        TOTAL FREE ENERGY PREDICTED BY IDOCK:   -7.89 KCAL/MOL
REMARK 923 INTER-LIGAND FREE ENERGY PREDICTED BY IDOCK:   -6.85 KCAL/MOL
REMARK 924 INTRA-LIGAND FREE ENERGY PREDICTED BY IDOCK:   -1.04 KCAL/MOL
REMARK 927      BINDING AFFINITY PREDICTED BY RF-SCORE:    0.00 PKD
ROOT
HETATM    1  C   UNL     1     -12.146  14.228  64.021  1.00  0.00    -0.350 C  
HETATM    2  C   UNL     1     -12.168  12.845  64.622  1.00  0.00    -0.435 C  
HETATM    3  N   UNL     1     -10.945  12.478  65.162  1.00  0.00    -0.289 N  
HETATM    4  O   UNL     1     -13.198  12.182  64.603  1.00  0.00    -0.659 OA 
HETATM    5  H   UNL     1     -10.193  13.164  65.097  1.00  0.00     0.000 HD 
ENDROOT
BRANCH   3   6
HETATM    6  C   UNL     1     -10.632  11.251  65.793  1.00  0.00    -0.248 A  
HETATM    7  C   UNL     1      -9.883  10.242  65.183  1.00  0.00    -0.389 A  
HETATM    8  C   UNL     1      -9.578   9.059  65.858  1.00  0.00    -0.317 A  
HETATM    9  C   UNL     1      -9.995   8.876  67.172  1.00  0.00    -0.226 A  
HETATM   10  C   UNL     1     -11.091  11.038  67.100  1.00  0.00    -0.333 A  
HETATM   11  C   UNL     1     -10.782   9.853  67.786  1.00  0.00    -0.332 A  
BRANCH   9  12
HETATM   12  O   UNL     1      -9.658   7.749  67.963  1.00  0.00    -0.146 OA 
BRANCH  12  13
HETATM   13  C   UNL     1     -10.541   7.148  68.865  1.00  0.00    -0.201 C  
HETATM   14  O   UNL     1     -11.535   6.492  68.597  1.00  0.00    -0.210 OA 
BRANCH  13  15
HETATM   15  C   UNL     1     -10.074   7.375  70.257  1.00  0.00    -0.197 A  
HETATM   16  C   UNL     1      -8.810   6.911  70.667  1.00  0.00    -0.150 A  
HETATM   17  C   UNL     1      -8.351   7.160  71.964  1.00  0.00    -0.111 A  
HETATM   18  C   UNL     1      -9.136   7.880  72.861  1.00  0.00    -0.281 A  
HETATM   19  C   UNL     1     -10.381   8.359  72.465  1.00  0.00    -0.371 A  
HETATM   20  C   UNL     1     -10.859   8.087  71.174  1.00  0.00    -0.238 A  
BRANCH  20  21
HETATM   21  O   UNL     1     -12.096   8.648  70.798  1.00  0.00    -0.210 OA 
BRANCH  21  22
HETATM   22  C   UNL     1     -13.174   8.400  71.645  1.00  0.00    -0.339 C  
HETATM   23  O   UNL     1     -13.760   9.223  72.336  1.00  0.00    -0.465 OA 
HETATM   24  C   UNL     1     -13.594   6.968  71.508  1.00  0.00    -0.355 C  
ENDBRANCH  21  22
ENDBRANCH  20  21
ENDBRANCH  13  15
ENDBRANCH  12  13
ENDBRANCH   9  12
ENDBRANCH   3   6
TORSDOF 6
ENDMDL
MODEL       80
REMARK 921   NORMALIZED FREE ENERGY PREDICTED BY IDOCK:   -4.70 KCAL/MOL
REMARK 922        TOTAL FREE ENERGY PREDICTED BY IDOCK:   -7.82 KCAL/MOL
REMARK 923 INTER-LIGAND FREE ENERGY PREDICTED BY IDOCK:   -6.71 KCAL/MOL
REMARK 924 INTRA-LIGAND FREE ENERGY PREDICTED BY IDOCK:   -1.11 KCAL/MOL
REMARK 927      BINDING AFFINITY PREDICTED BY RF-SCORE:    0.00 PKD
ROOT
HETATM    1  C   UNL     1     -10.745   3.389  63.565  1.00  0.00    -0.252 C  
HETATM    2  C   UNL     1     -10.053   4.187  64.640  1.00  0.00    -0.175 C  
HETATM    3  N   UNL     1     -10.925   4.632  65.621  1.00  0.00    -0.868 N  
HETATM    4  O   UNL     1      -8.843   4.374  64.585  1.00  0.00    -0.135 OA 
HETATM    5  H   UNL     1     -11.906   4.374  65.511  1.00  0.00     0.000 HD 
ENDROOT
BRANCH   3   6
HETATM    6  C   UNL     1     -10.597   5.406  66.759  1.00  0.00    -0.271 A  
HETATM    7  C   UNL     1     -10.013   4.872  67.909  1.00  0.00    -0.181 A  
HETATM    8  C   UNL     1      -9.684   5.683  68.997  1.00  0.00    -0.187 A  
HETATM    9  C   UNL     1      -9.908   7.054  68.940  1.00  0.00    -0.150 A  
HETATM   10  C   UNL     1     -10.867   6.782  66.729  1.00  0.00    -0.296 A  
HETATM   11  C   UNL     1     -10.532   7.603  67.817  1.00  0.00    -0.282 A  
BRANCH   9  12
HETATM   12  O   UNL     1      -9.527   7.964  69.957  1.00  0.00    -0.157 OA 
BRANCH  12  13
HETATM   13  C   UNL     1      -9.973   7.876  71.279  1.00  0.00    -0.176 C  
HETATM   14  O   UNL     1      -9.291   7.708  72.277  1.00  0.00    -0.139 OA 
BRANCH  13  15
HETATM   15  C   UNL     1     -11.446   8.068  71.329  1.00  0.00    -0.299 A  
HETATM   16  C   UNL     1     -12.290   7.000  71.684  1.00  0.00    -0.407 A  
HETATM   17  C   UNL     1     -13.672   7.188  71.773  1.00  0.00    -0.361 A  
HETATM   18  C   UNL     1     -14.228   8.439  71.521  1.00  0.00    -0.471 A  
HETATM   19  C   UNL     1     -13.405   9.510  71.183  1.00  0.00    -0.314 A  
HETATM   20  C   UNL     1     -12.020   9.319  71.064  1.00  0.00    -0.300 A  
BRANCH  20  21
HETATM   21  O   UNL     1     -11.222  10.446  70.785  1.00  0.00    -0.326 OA 
BRANCH  21  22
HETATM   22  C   UNL     1     -11.221  10.896  69.467  1.00  0.00    -0.277 C  
HETATM   23  O   UNL     1     -12.204  11.099  68.767  1.00  0.00    -0.555 OA 
HETATM   24  C   UNL     1      -9.815  11.207  69.048  1.00  0.00    -0.132 C  
ENDBRANCH  21  22
ENDBRANCH  20  21
ENDBRANCH  13  15
ENDBRANCH  12  13
ENDBRANCH   9  12
ENDBRANCH   3   6
TORSDOF 6
ENDMDL
MODEL       81
REMARK 921   NORMALIZED FREE ENERGY PREDICTED BY IDOCK:   -4.69 KCAL/MOL
REMARK 922        TOTAL FREE ENERGY PREDICTED BY IDOCK:   -7.81 KCAL/MOL
REMARK 923 INTER-LIGAND FREE ENERGY PREDICTED BY IDOCK:   -6.58 KCAL/MOL
REMARK 924 INTRA-LIGAND FREE ENERGY PREDICTED BY IDOCK:   -1.22 KCAL/MOL
REMARK 927      BINDING AFFINITY PREDICTED BY RF-SCORE:    0.00 PKD
ROOT
HETATM    1  C   UNL     1      -9.569   3.447  64.232  1.00  0.00    -0.153 C  
HETATM    2  C   UNL     1      -9.523   4.151  65.565  1.00  0.00    -0.176 C  
HETATM    3  N   UNL     1      -9.381   5.524  65.439  1.00  0.00    -0.355 N  
HETATM    4  O   UNL     1      -9.617   3.508  66.604  1.00  0.00    -0.187 OA 
HETATM    5  H   UNL     1      -9.327   5.893  64.489  1.00  0.00     0.000 HD 
ENDROOT
BRANCH   3   6
HETATM    6  C   UNL     1      -9.301   6.467  66.490  1.00  0.00    -0.159 A  
HETATM    7  C   UNL     1      -8.165   6.635  67.287  1.00  0.00    -0.121 A  
HETATM    8  C   UNL     1      -8.126   7.599  68.296  1.00  0.00    -0.124 A  
HETATM    9  C   UNL     1      -9.218   8.434  68.508  1.00  0.00    -0.135 A  
HETATM   10  C   UNL     1     -10.415   7.279  66.744  1.00  0.00    -0.311 A  
HETATM   11  C   UNL     1     -10.379   8.254  67.753  1.00  0.00    -0.296 A  
BRANCH   9  12
HETATM   12  O   UNL     1      -9.236   9.495  69.448  1.00  0.00    -0.156 OA 
BRANCH  12  13
HETATM   13  C   UNL     1      -9.358   9.302  70.827  1.00  0.00    -0.258 C  
HETATM   14  O   UNL     1      -8.458   9.085  71.623  1.00  0.00    -0.339 OA 
BRANCH  13  15
HETATM   15  C   UNL     1     -10.779   9.447  71.234  1.00  0.00    -0.421 A  
HETATM   16  C   UNL     1     -11.557  10.509  70.735  1.00  0.00    -0.432 A  
HETATM   17  C   UNL     1     -12.906  10.624  71.084  1.00  0.00    -0.518 A  
HETATM   18  C   UNL     1     -13.498   9.682  71.921  1.00  0.00    -0.496 A  
HETATM   19  C   UNL     1     -12.746   8.617  72.411  1.00  0.00    -0.423 A  
HETATM   20  C   UNL     1     -11.384   8.514  72.087  1.00  0.00    -0.372 A  
BRANCH  20  21
HETATM   21  O   UNL     1     -10.682   7.384  72.552  1.00  0.00    -0.233 OA 
BRANCH  21  22
HETATM   22  C   UNL     1     -11.164   6.142  72.148  1.00  0.00    -0.287 C  
HETATM   23  O   UNL     1     -11.817   5.359  72.825  1.00  0.00    -0.268 OA 
HETATM   24  C   UNL     1     -10.855   5.938  70.695  1.00  0.00    -0.363 C  
ENDBRANCH  21  22
ENDBRANCH  20  21
ENDBRANCH  13  15
ENDBRANCH  12  13
ENDBRANCH   9  12
ENDBRANCH   3   6
TORSDOF 6
ENDMDL
MODEL       82
REMARK 921   NORMALIZED FREE ENERGY PREDICTED BY IDOCK:   -4.67 KCAL/MOL
REMARK 922        TOTAL FREE ENERGY PREDICTED BY IDOCK:   -7.78 KCAL/MOL
REMARK 923 INTER-LIGAND FREE ENERGY PREDICTED BY IDOCK:   -6.86 KCAL/MOL
REMARK 924 INTRA-LIGAND FREE ENERGY PREDICTED BY IDOCK:   -0.93 KCAL/MOL
REMARK 927      BINDING AFFINITY PREDICTED BY RF-SCORE:    0.00 PKD
ROOT
HETATM    1  C   UNL     1     -12.270  14.579  64.351  1.00  0.00    -0.480 C  
HETATM    2  C   UNL     1     -12.291  13.165  64.873  1.00  0.00    -0.441 C  
HETATM    3  N   UNL     1     -11.181  12.865  65.648  1.00  0.00    -0.289 N  
HETATM    4  O   UNL     1     -13.228  12.423  64.604  1.00  0.00    -0.822 OA 
HETATM    5  H   UNL     1     -10.498  13.612  65.776  1.00  0.00     0.000 HD 
ENDROOT
BRANCH   3   6
HETATM    6  C   UNL     1     -10.896  11.631  66.278  1.00  0.00    -0.286 A  
HETATM    7  C   UNL     1     -10.149  10.616  65.677  1.00  0.00    -0.335 A  
HETATM    8  C   UNL     1      -9.872   9.425  66.353  1.00  0.00    -0.337 A  
HETATM    9  C   UNL     1     -10.318   9.241  67.657  1.00  0.00    -0.253 A  
HETATM   10  C   UNL     1     -11.384  11.418  67.575  1.00  0.00    -0.362 A  
HETATM   11  C   UNL     1     -11.104  10.225  68.260  1.00  0.00    -0.311 A  
BRANCH   9  12
HETATM   12  O   UNL     1     -10.011   8.105  68.448  1.00  0.00    -0.178 OA 
BRANCH  12  13
HETATM   13  C   UNL     1     -10.816   6.964  68.504  1.00  0.00    -0.180 C  
HETATM   14  O   UNL     1     -11.303   6.359  67.563  1.00  0.00    -0.274 OA 
BRANCH  13  15
HETATM   15  C   UNL     1     -10.978   6.529  69.915  1.00  0.00    -0.393 A  
HETATM   16  C   UNL     1     -11.960   7.117  70.733  1.00  0.00    -0.352 A  
HETATM   17  C   UNL     1     -12.142   6.680  72.049  1.00  0.00    -0.353 A  
HETATM   18  C   UNL     1     -11.359   5.649  72.561  1.00  0.00    -0.349 A  
HETATM   19  C   UNL     1     -10.393   5.046  71.760  1.00  0.00    -0.268 A  
HETATM   20  C   UNL     1     -10.187   5.501  70.448  1.00  0.00    -0.251 A  
BRANCH  20  21
HETATM   21  O   UNL     1      -9.244   4.816  69.655  1.00  0.00    -0.106 OA 
BRANCH  21  22
HETATM   22  C   UNL     1      -7.966   5.365  69.597  1.00  0.00    -0.095 C  
HETATM   23  O   UNL     1      -7.598   6.411  70.117  1.00  0.00    -0.092 OA 
HETATM   24  C   UNL     1      -7.051   4.419  68.878  1.00  0.00    -0.052 C  
ENDBRANCH  21  22
ENDBRANCH  20  21
ENDBRANCH  13  15
ENDBRANCH  12  13
ENDBRANCH   9  12
ENDBRANCH   3   6
TORSDOF 6
ENDMDL
MODEL       83
REMARK 921   NORMALIZED FREE ENERGY PREDICTED BY IDOCK:   -4.66 KCAL/MOL
REMARK 922        TOTAL FREE ENERGY PREDICTED BY IDOCK:   -7.77 KCAL/MOL
REMARK 923 INTER-LIGAND FREE ENERGY PREDICTED BY IDOCK:   -7.02 KCAL/MOL
REMARK 924 INTRA-LIGAND FREE ENERGY PREDICTED BY IDOCK:   -0.76 KCAL/MOL
REMARK 927      BINDING AFFINITY PREDICTED BY RF-SCORE:    0.00 PKD
ROOT
HETATM    1  C   UNL     1     -13.210  14.804  70.776  1.00  0.00    -0.355 C  
HETATM    2  C   UNL     1     -13.219  13.497  71.529  1.00  0.00    -0.322 C  
HETATM    3  N   UNL     1     -12.649  12.461  70.805  1.00  0.00    -0.266 N  
HETATM    4  O   UNL     1     -13.691  13.440  72.658  1.00  0.00    -0.687 OA 
HETATM    5  H   UNL     1     -12.296  12.691  69.877  1.00  0.00     0.000 HD 
ENDROOT
BRANCH   3   6
HETATM    6  C   UNL     1     -12.507  11.116  71.221  1.00  0.00    -0.360 A  
HETATM    7  C   UNL     1     -13.439  10.458  72.028  1.00  0.00    -0.360 A  
HETATM    8  C   UNL     1     -13.266   9.121  72.389  1.00  0.00    -0.512 A  
HETATM    9  C   UNL     1     -12.166   8.407  71.926  1.00  0.00    -0.343 A  
HETATM   10  C   UNL     1     -11.375  10.404  70.799  1.00  0.00    -0.370 A  
HETATM   11  C   UNL     1     -11.199   9.057  71.155  1.00  0.00    -0.375 A  
BRANCH   9  12
HETATM   12  O   UNL     1     -11.954   7.027  72.169  1.00  0.00    -0.289 OA 
BRANCH  12  13
HETATM   13  C   UNL     1     -11.011   6.539  73.078  1.00  0.00    -0.239 C  
HETATM   14  O   UNL     1     -10.498   7.146  74.004  1.00  0.00    -0.353 OA 
BRANCH  13  15
HETATM   15  C   UNL     1     -10.730   5.108  72.796  1.00  0.00    -0.294 A  
HETATM   16  C   UNL     1     -11.394   4.098  73.516  1.00  0.00    -0.297 A  
HETATM   17  C   UNL     1     -11.163   2.750  73.225  1.00  0.00    -0.200 A  
HETATM   18  C   UNL     1     -10.280   2.393  72.209  1.00  0.00    -0.207 A  
HETATM   19  C   UNL     1      -9.628   3.380  71.476  1.00  0.00    -0.233 A  
HETATM   20  C   UNL     1      -9.834   4.734  71.784  1.00  0.00    -0.180 A  
BRANCH  20  21
HETATM   21  O   UNL     1      -9.203   5.697  70.973  1.00  0.00    -0.149 OA 
BRANCH  21  22
HETATM   22  C   UNL     1      -9.772   5.926  69.723  1.00  0.00    -0.160 C  
HETATM   23  O   UNL     1     -10.938   5.730  69.408  1.00  0.00    -0.342 OA 
HETATM   24  C   UNL     1      -8.756   6.563  68.823  1.00  0.00    -0.123 C  
ENDBRANCH  21  22
ENDBRANCH  20  21
ENDBRANCH  13  15
ENDBRANCH  12  13
ENDBRANCH   9  12
ENDBRANCH   3   6
TORSDOF 6
ENDMDL
MODEL       84
REMARK 921   NORMALIZED FREE ENERGY PREDICTED BY IDOCK:   -4.66 KCAL/MOL
REMARK 922        TOTAL FREE ENERGY PREDICTED BY IDOCK:   -7.77 KCAL/MOL
REMARK 923 INTER-LIGAND FREE ENERGY PREDICTED BY IDOCK:   -6.81 KCAL/MOL
REMARK 924 INTRA-LIGAND FREE ENERGY PREDICTED BY IDOCK:   -0.97 KCAL/MOL
REMARK 927      BINDING AFFINITY PREDICTED BY RF-SCORE:    0.00 PKD
ROOT
HETATM    1  C   UNL     1     -13.530  15.974  73.193  1.00  0.00    -0.587 C  
HETATM    2  C   UNL     1     -12.621  15.405  72.133  1.00  0.00    -0.369 C  
HETATM    3  N   UNL     1     -13.155  14.284  71.518  1.00  0.00    -0.326 N  
HETATM    4  O   UNL     1     -11.545  15.940  71.894  1.00  0.00    -0.426 OA 
HETATM    5  H   UNL     1     -14.075  13.981  71.839  1.00  0.00     0.000 HD 
ENDROOT
BRANCH   3   6
HETATM    6  C   UNL     1     -12.557  13.516  70.491  1.00  0.00    -0.241 A  
HETATM    7  C   UNL     1     -12.159  14.051  69.263  1.00  0.00    -0.380 A  
HETATM    8  C   UNL     1     -11.548  13.256  68.292  1.00  0.00    -0.369 A  
HETATM    9  C   UNL     1     -11.300  11.911  68.544  1.00  0.00    -0.276 A  
HETATM   10  C   UNL     1     -12.348  12.148  70.718  1.00  0.00    -0.391 A  
HETATM   11  C   UNL     1     -11.729  11.345  69.746  1.00  0.00    -0.418 A  
BRANCH   9  12
HETATM   12  O   UNL     1     -10.608  11.051  67.654  1.00  0.00    -0.192 OA 
BRANCH  12  13
HETATM   13  C   UNL     1      -9.411  11.395  67.022  1.00  0.00    -0.174 C  
HETATM   14  O   UNL     1      -8.399  11.830  67.548  1.00  0.00    -0.141 OA 
BRANCH  13  15
HETATM   15  C   UNL     1      -9.507  11.110  65.567  1.00  0.00    -0.251 A  
HETATM   16  C   UNL     1     -10.156  12.015  64.707  1.00  0.00    -0.286 A  
HETATM   17  C   UNL     1     -10.211  11.770  63.331  1.00  0.00    -0.482 A  
HETATM   18  C   UNL     1      -9.615  10.631  62.796  1.00  0.00    -0.333 A  
HETATM   19  C   UNL     1      -8.956   9.734  63.632  1.00  0.00    -0.270 A  
HETATM   20  C   UNL     1      -8.922   9.961  65.016  1.00  0.00    -0.201 A  
BRANCH  20  21
HETATM   21  O   UNL     1      -8.187   9.060  65.813  1.00  0.00    -0.111 OA 
BRANCH  21  22
HETATM   22  C   UNL     1      -8.679   7.760  65.895  1.00  0.00    -0.149 C  
HETATM   23  O   UNL     1      -8.219   6.772  65.337  1.00  0.00    -0.128 OA 
HETATM   24  C   UNL     1      -9.816   7.718  66.871  1.00  0.00    -0.305 C  
ENDBRANCH  21  22
ENDBRANCH  20  21
ENDBRANCH  13  15
ENDBRANCH  12  13
ENDBRANCH   9  12
ENDBRANCH   3   6
TORSDOF 6
ENDMDL
MODEL       85
REMARK 921   NORMALIZED FREE ENERGY PREDICTED BY IDOCK:   -4.63 KCAL/MOL
REMARK 922        TOTAL FREE ENERGY PREDICTED BY IDOCK:   -7.74 KCAL/MOL
REMARK 923 INTER-LIGAND FREE ENERGY PREDICTED BY IDOCK:   -7.44 KCAL/MOL
REMARK 924 INTRA-LIGAND FREE ENERGY PREDICTED BY IDOCK:   -0.30 KCAL/MOL
REMARK 927      BINDING AFFINITY PREDICTED BY RF-SCORE:    0.00 PKD
ROOT
HETATM    1  C   UNL     1      -6.439  19.762  68.507  1.00  0.00    -0.310 C  
HETATM    2  C   UNL     1      -7.751  19.019  68.509  1.00  0.00    -0.333 C  
HETATM    3  N   UNL     1      -7.637  17.733  68.003  1.00  0.00    -0.229 N  
HETATM    4  O   UNL     1      -8.764  19.560  68.936  1.00  0.00    -0.355 OA 
HETATM    5  H   UNL     1      -6.708  17.442  67.699  1.00  0.00     0.000 HD 
ENDROOT
BRANCH   3   6
HETATM    6  C   UNL     1      -8.676  16.783  67.865  1.00  0.00    -0.203 A  
HETATM    7  C   UNL     1      -9.092  15.943  68.901  1.00  0.00    -0.233 A  
HETATM    8  C   UNL     1     -10.142  15.040  68.722  1.00  0.00    -0.231 A  
HETATM    9  C   UNL     1     -10.813  14.980  67.506  1.00  0.00    -0.297 A  
HETATM   10  C   UNL     1      -9.326  16.681  66.626  1.00  0.00    -0.272 A  
HETATM   11  C   UNL     1     -10.385  15.778  66.443  1.00  0.00    -0.306 A  
BRANCH   9  12
HETATM   12  O   UNL     1     -11.942  14.158  67.262  1.00  0.00    -0.397 OA 
BRANCH  12  13
HETATM   13  C   UNL     1     -11.904  12.761  67.303  1.00  0.00    -0.350 C  
HETATM   14  O   UNL     1     -12.119  12.047  68.269  1.00  0.00    -0.447 OA 
BRANCH  13  15
HETATM   15  C   UNL     1     -11.600  12.224  65.952  1.00  0.00    -0.450 A  
HETATM   16  C   UNL     1     -12.297  12.698  64.825  1.00  0.00    -0.556 A  
HETATM   17  C   UNL     1     -11.984  12.224  63.547  1.00  0.00    -0.625 A  
HETATM   18  C   UNL     1     -10.971  11.285  63.375  1.00  0.00    -0.257 A  
HETATM   19  C   UNL     1     -10.262  10.817  64.478  1.00  0.00    -0.428 A  
HETATM   20  C   UNL     1     -10.592  11.268  65.765  1.00  0.00    -0.248 A  
BRANCH  20  21
HETATM   21  O   UNL     1      -9.803  10.816  66.842  1.00  0.00    -0.178 OA 
BRANCH  21  22
HETATM   22  C   UNL     1     -10.134   9.573  67.376  1.00  0.00    -0.208 C  
HETATM   23  O   UNL     1     -10.614   9.360  68.481  1.00  0.00    -0.213 OA 
HETATM   24  C   UNL     1      -9.913   8.512  66.339  1.00  0.00    -0.314 C  
ENDBRANCH  21  22
ENDBRANCH  20  21
ENDBRANCH  13  15
ENDBRANCH  12  13
ENDBRANCH   9  12
ENDBRANCH   3   6
TORSDOF 6
ENDMDL
MODEL       86
REMARK 921   NORMALIZED FREE ENERGY PREDICTED BY IDOCK:   -4.60 KCAL/MOL
REMARK 922        TOTAL FREE ENERGY PREDICTED BY IDOCK:   -7.69 KCAL/MOL
REMARK 923 INTER-LIGAND FREE ENERGY PREDICTED BY IDOCK:   -6.76 KCAL/MOL
REMARK 924 INTRA-LIGAND FREE ENERGY PREDICTED BY IDOCK:   -0.93 KCAL/MOL
REMARK 927      BINDING AFFINITY PREDICTED BY RF-SCORE:    0.00 PKD
ROOT
HETATM    1  C   UNL     1      -7.709   5.396  66.974  1.00  0.00    -0.100 C  
HETATM    2  C   UNL     1      -8.771   6.346  66.480  1.00  0.00    -0.133 C  
HETATM    3  N   UNL     1      -8.283   7.625  66.262  1.00  0.00    -0.114 N  
HETATM    4  O   UNL     1      -9.918   5.951  66.307  1.00  0.00    -0.141 OA 
HETATM    5  H   UNL     1      -7.292   7.775  66.451  1.00  0.00     0.000 HD 
ENDROOT
BRANCH   3   6
HETATM    6  C   UNL     1      -9.017   8.745  65.804  1.00  0.00    -0.206 A  
HETATM    7  C   UNL     1      -9.971   9.407  66.580  1.00  0.00    -0.339 A  
HETATM    8  C   UNL     1     -10.650  10.525  66.092  1.00  0.00    -0.182 A  
HETATM    9  C   UNL     1     -10.364  11.018  64.823  1.00  0.00    -0.324 A  
HETATM   10  C   UNL     1      -8.771   9.218  64.507  1.00  0.00    -0.218 A  
HETATM   11  C   UNL     1      -9.446  10.345  64.014  1.00  0.00    -0.351 A  
BRANCH   9  12
HETATM   12  O   UNL     1     -10.939  12.195  64.281  1.00  0.00    -0.296 OA 
BRANCH  12  13
HETATM   13  C   UNL     1     -12.001  12.881  64.876  1.00  0.00    -0.392 C  
HETATM   14  O   UNL     1     -13.175  12.546  64.896  1.00  0.00    -0.787 OA 
BRANCH  13  15
HETATM   15  C   UNL     1     -11.498  14.102  65.555  1.00  0.00    -0.324 A  
HETATM   16  C   UNL     1     -10.985  15.175  64.802  1.00  0.00    -0.394 A  
HETATM   17  C   UNL     1     -10.549  16.342  65.435  1.00  0.00    -0.338 A  
HETATM   18  C   UNL     1     -10.627  16.461  66.820  1.00  0.00    -0.238 A  
HETATM   19  C   UNL     1     -11.146  15.415  67.579  1.00  0.00    -0.315 A  
HETATM   20  C   UNL     1     -11.558  14.230  66.950  1.00  0.00    -0.387 A  
BRANCH  20  21
HETATM   21  O   UNL     1     -12.137  13.226  67.752  1.00  0.00    -0.331 OA 
BRANCH  21  22
HETATM   22  C   UNL     1     -11.367  12.758  68.814  1.00  0.00    -0.288 C  
HETATM   23  O   UNL     1     -10.213  12.353  68.753  1.00  0.00    -0.186 OA 
HETATM   24  C   UNL     1     -12.131  12.923  70.093  1.00  0.00    -0.373 C  
ENDBRANCH  21  22
ENDBRANCH  20  21
ENDBRANCH  13  15
ENDBRANCH  12  13
ENDBRANCH   9  12
ENDBRANCH   3   6
TORSDOF 6
ENDMDL
MODEL       87
REMARK 921   NORMALIZED FREE ENERGY PREDICTED BY IDOCK:   -4.59 KCAL/MOL
REMARK 922        TOTAL FREE ENERGY PREDICTED BY IDOCK:   -7.67 KCAL/MOL
REMARK 923 INTER-LIGAND FREE ENERGY PREDICTED BY IDOCK:   -7.16 KCAL/MOL
REMARK 924 INTRA-LIGAND FREE ENERGY PREDICTED BY IDOCK:   -0.51 KCAL/MOL
REMARK 927      BINDING AFFINITY PREDICTED BY RF-SCORE:    0.00 PKD
ROOT
HETATM    1  C   UNL     1      -6.896   7.258  63.418  1.00  0.00    -0.054 C  
HETATM    2  C   UNL     1      -7.445   8.008  64.605  1.00  0.00    -0.097 C  
HETATM    3  N   UNL     1      -8.736   8.467  64.397  1.00  0.00    -0.405 N  
HETATM    4  O   UNL     1      -6.762   8.148  65.613  1.00  0.00    -0.054 OA 
HETATM    5  H   UNL     1      -9.158   8.250  63.494  1.00  0.00     0.000 HD 
ENDROOT
BRANCH   3   6
HETATM    6  C   UNL     1      -9.529   9.206  65.307  1.00  0.00    -0.099 A  
HETATM    7  C   UNL     1      -9.964   8.700  66.534  1.00  0.00    -0.353 A  
HETATM    8  C   UNL     1     -10.723   9.479  67.409  1.00  0.00    -0.297 A  
HETATM    9  C   UNL     1     -11.038  10.793  67.082  1.00  0.00    -0.227 A  
HETATM   10  C   UNL     1      -9.894  10.515  64.962  1.00  0.00    -0.369 A  
HETATM   11  C   UNL     1     -10.652  11.304  65.841  1.00  0.00    -0.309 A  
BRANCH   9  12
HETATM   12  O   UNL     1     -11.728  11.683  67.943  1.00  0.00    -0.459 OA 
BRANCH  12  13
HETATM   13  C   UNL     1     -11.085  12.553  68.828  1.00  0.00    -0.270 C  
HETATM   14  O   UNL     1     -10.038  13.151  68.643  1.00  0.00    -0.219 OA 
BRANCH  13  15
HETATM   15  C   UNL     1     -11.895  12.705  70.064  1.00  0.00    -0.358 A  
HETATM   16  C   UNL     1     -12.260  13.985  70.522  1.00  0.00    -0.435 A  
HETATM   17  C   UNL     1     -13.057  14.130  71.661  1.00  0.00    -0.425 A  
HETATM   18  C   UNL     1     -13.508  13.007  72.351  1.00  0.00    -0.615 A  
HETATM   19  C   UNL     1     -13.169  11.734  71.902  1.00  0.00    -0.468 A  
HETATM   20  C   UNL     1     -12.345  11.584  70.776  1.00  0.00    -0.375 A  
BRANCH  20  21
HETATM   21  O   UNL     1     -12.083  10.276  70.321  1.00  0.00    -0.272 OA 
BRANCH  21  22
HETATM   22  C   UNL     1     -11.207   9.514  71.091  1.00  0.00    -0.376 C  
HETATM   23  O   UNL     1      -9.994   9.655  71.166  1.00  0.00    -0.221 OA 
HETATM   24  C   UNL     1     -11.991   8.540  71.919  1.00  0.00    -0.409 C  
ENDBRANCH  21  22
ENDBRANCH  20  21
ENDBRANCH  13  15
ENDBRANCH  12  13
ENDBRANCH   9  12
ENDBRANCH   3   6
TORSDOF 6
ENDMDL
MODEL       88
REMARK 921   NORMALIZED FREE ENERGY PREDICTED BY IDOCK:   -4.58 KCAL/MOL
REMARK 922        TOTAL FREE ENERGY PREDICTED BY IDOCK:   -7.66 KCAL/MOL
REMARK 923 INTER-LIGAND FREE ENERGY PREDICTED BY IDOCK:   -6.67 KCAL/MOL
REMARK 924 INTRA-LIGAND FREE ENERGY PREDICTED BY IDOCK:   -0.99 KCAL/MOL
REMARK 927      BINDING AFFINITY PREDICTED BY RF-SCORE:    0.00 PKD
ROOT
HETATM    1  C   UNL     1     -10.836  13.750  64.802  1.00  0.00    -0.410 C  
HETATM    2  C   UNL     1     -11.059  12.519  65.643  1.00  0.00    -0.303 C  
HETATM    3  N   UNL     1      -9.895  12.065  66.245  1.00  0.00    -0.226 N  
HETATM    4  O   UNL     1     -12.181  12.035  65.741  1.00  0.00    -0.520 OA 
HETATM    5  H   UNL     1      -9.047  12.600  66.059  1.00  0.00     0.000 HD 
ENDROOT
BRANCH   3   6
HETATM    6  C   UNL     1      -9.762  10.938  67.089  1.00  0.00    -0.174 A  
HETATM    7  C   UNL     1      -9.511  11.030  68.460  1.00  0.00    -0.188 A  
HETATM    8  C   UNL     1      -9.415   9.887  69.256  1.00  0.00    -0.218 A  
HETATM    9  C   UNL     1      -9.597   8.627  68.696  1.00  0.00    -0.155 A  
HETATM   10  C   UNL     1      -9.895   9.662  66.523  1.00  0.00    -0.298 A  
HETATM   11  C   UNL     1      -9.805   8.510  67.320  1.00  0.00    -0.259 A  
BRANCH   9  12
HETATM   12  O   UNL     1      -9.603   7.420  69.439  1.00  0.00    -0.155 OA 
BRANCH  12  13
HETATM   13  C   UNL     1     -10.764   6.842  69.961  1.00  0.00    -0.247 C  
HETATM   14  O   UNL     1     -11.784   6.561  69.353  1.00  0.00    -0.295 OA 
BRANCH  13  15
HETATM   15  C   UNL     1     -10.579   6.553  71.407  1.00  0.00    -0.266 A  
HETATM   16  C   UNL     1     -10.216   5.263  71.833  1.00  0.00    -0.264 A  
HETATM   17  C   UNL     1     -10.001   4.999  73.189  1.00  0.00    -0.185 A  
HETATM   18  C   UNL     1     -10.133   6.014  74.132  1.00  0.00    -0.287 A  
HETATM   19  C   UNL     1     -10.476   7.301  73.724  1.00  0.00    -0.335 A  
HETATM   20  C   UNL     1     -10.722   7.564  72.368  1.00  0.00    -0.263 A  
BRANCH  20  21
HETATM   21  O   UNL     1     -11.001   8.894  71.996  1.00  0.00    -0.352 OA 
BRANCH  21  22
HETATM   22  C   UNL     1     -12.346   9.247  71.913  1.00  0.00    -0.382 C  
HETATM   23  O   UNL     1     -13.270   8.745  72.541  1.00  0.00    -0.400 OA 
HETATM   24  C   UNL     1     -12.495  10.428  71.003  1.00  0.00    -0.488 C  
ENDBRANCH  21  22
ENDBRANCH  20  21
ENDBRANCH  13  15
ENDBRANCH  12  13
ENDBRANCH   9  12
ENDBRANCH   3   6
TORSDOF 6
ENDMDL
MODEL       89
REMARK 921   NORMALIZED FREE ENERGY PREDICTED BY IDOCK:   -4.57 KCAL/MOL
REMARK 922        TOTAL FREE ENERGY PREDICTED BY IDOCK:   -7.65 KCAL/MOL
REMARK 923 INTER-LIGAND FREE ENERGY PREDICTED BY IDOCK:   -6.81 KCAL/MOL
REMARK 924 INTRA-LIGAND FREE ENERGY PREDICTED BY IDOCK:   -0.84 KCAL/MOL
REMARK 927      BINDING AFFINITY PREDICTED BY RF-SCORE:    0.00 PKD
ROOT
HETATM    1  C   UNL     1      -7.794   4.332  67.108  1.00  0.00    -0.096 C  
HETATM    2  C   UNL     1      -8.527   5.631  67.330  1.00  0.00    -0.106 C  
HETATM    3  N   UNL     1      -8.506   6.036  68.655  1.00  0.00    -0.113 N  
HETATM    4  O   UNL     1      -9.053   6.210  66.387  1.00  0.00    -0.142 OA 
HETATM    5  H   UNL     1      -8.010   5.431  69.310  1.00  0.00     0.000 HD 
ENDROOT
BRANCH   3   6
HETATM    6  C   UNL     1      -9.101   7.201  69.195  1.00  0.00    -0.137 A  
HETATM    7  C   UNL     1      -8.499   8.461  69.153  1.00  0.00    -0.123 A  
HETATM    8  C   UNL     1      -9.139   9.586  69.676  1.00  0.00    -0.207 A  
HETATM    9  C   UNL     1     -10.411   9.474  70.227  1.00  0.00    -0.269 A  
HETATM   10  C   UNL     1     -10.362   7.087  69.797  1.00  0.00    -0.225 A  
HETATM   11  C   UNL     1     -11.013   8.217  70.319  1.00  0.00    -0.240 A  
BRANCH   9  12
HETATM   12  O   UNL     1     -11.171  10.572  70.701  1.00  0.00    -0.316 OA 
BRANCH  12  13
HETATM   13  C   UNL     1     -12.000  11.346  69.885  1.00  0.00    -0.359 C  
HETATM   14  O   UNL     1     -12.352  11.096  68.743  1.00  0.00    -0.539 OA 
BRANCH  13  15
HETATM   15  C   UNL     1     -12.462  12.547  70.627  1.00  0.00    -0.323 A  
HETATM   16  C   UNL     1     -13.303  12.411  71.747  1.00  0.00    -0.368 A  
HETATM   17  C   UNL     1     -13.706  13.536  72.473  1.00  0.00    -0.664 A  
HETATM   18  C   UNL     1     -13.269  14.805  72.101  1.00  0.00    -0.452 A  
HETATM   19  C   UNL     1     -12.424  14.955  71.005  1.00  0.00    -0.396 A  
HETATM   20  C   UNL     1     -12.040  13.832  70.256  1.00  0.00    -0.355 A  
BRANCH  20  21
HETATM   21  O   UNL     1     -11.132  14.026  69.197  1.00  0.00    -0.253 OA 
BRANCH  21  22
HETATM   22  C   UNL     1     -11.542  14.880  68.175  1.00  0.00    -0.334 C  
HETATM   23  O   UNL     1     -11.382  16.092  68.132  1.00  0.00    -0.340 OA 
HETATM   24  C   UNL     1     -12.129  14.071  67.057  1.00  0.00    -0.455 C  
ENDBRANCH  21  22
ENDBRANCH  20  21
ENDBRANCH  13  15
ENDBRANCH  12  13
ENDBRANCH   9  12
ENDBRANCH   3   6
TORSDOF 6
ENDMDL
MODEL       90
REMARK 921   NORMALIZED FREE ENERGY PREDICTED BY IDOCK:   -4.56 KCAL/MOL
REMARK 922        TOTAL FREE ENERGY PREDICTED BY IDOCK:   -7.63 KCAL/MOL
REMARK 923 INTER-LIGAND FREE ENERGY PREDICTED BY IDOCK:   -7.14 KCAL/MOL
REMARK 924 INTRA-LIGAND FREE ENERGY PREDICTED BY IDOCK:   -0.49 KCAL/MOL
REMARK 927      BINDING AFFINITY PREDICTED BY RF-SCORE:    0.00 PKD
ROOT
HETATM    1  C   UNL     1      -9.310   2.530  68.767  1.00  0.00    -0.231 C  
HETATM    2  C   UNL     1      -9.384   4.020  68.989  1.00  0.00    -0.169 C  
HETATM    3  N   UNL     1     -10.061   4.353  70.152  1.00  0.00    -0.176 N  
HETATM    4  O   UNL     1      -8.869   4.789  68.185  1.00  0.00    -0.102 OA 
HETATM    5  H   UNL     1     -10.419   3.579  70.710  1.00  0.00     0.000 HD 
ENDROOT
BRANCH   3   6
HETATM    6  C   UNL     1     -10.307   5.657  70.644  1.00  0.00    -0.252 A  
HETATM    7  C   UNL     1      -9.417   6.346  71.472  1.00  0.00    -0.162 A  
HETATM    8  C   UNL     1      -9.694   7.643  71.910  1.00  0.00    -0.203 A  
HETATM    9  C   UNL     1     -10.859   8.284  71.504  1.00  0.00    -0.249 A  
HETATM   10  C   UNL     1     -11.503   6.292  70.280  1.00  0.00    -0.428 A  
HETATM   11  C   UNL     1     -11.783   7.597  70.713  1.00  0.00    -0.260 A  
BRANCH   9  12
HETATM   12  O   UNL     1     -11.181   9.627  71.827  1.00  0.00    -0.323 OA 
BRANCH  12  13
HETATM   13  C   UNL     1     -12.368  10.251  71.436  1.00  0.00    -0.401 C  
HETATM   14  O   UNL     1     -13.489  10.041  71.871  1.00  0.00    -0.391 OA 
BRANCH  13  15
HETATM   15  C   UNL     1     -12.081  11.286  70.409  1.00  0.00    -0.474 A  
HETATM   16  C   UNL     1     -11.540  10.919  69.163  1.00  0.00    -0.389 A  
HETATM   17  C   UNL     1     -11.308  11.885  68.179  1.00  0.00    -0.350 A  
HETATM   18  C   UNL     1     -11.619  13.220  68.419  1.00  0.00    -0.372 A  
HETATM   19  C   UNL     1     -12.169  13.597  69.641  1.00  0.00    -0.326 A  
HETATM   20  C   UNL     1     -12.377  12.636  70.642  1.00  0.00    -0.290 A  
BRANCH  20  21
HETATM   21  O   UNL     1     -12.997  13.054  71.837  1.00  0.00    -0.353 OA 
BRANCH  21  22
HETATM   22  C   UNL     1     -12.745  14.362  72.243  1.00  0.00    -0.317 C  
HETATM   23  O   UNL     1     -11.649  14.853  72.478  1.00  0.00    -0.296 OA 
HETATM   24  C   UNL     1     -14.029  15.136  72.250  1.00  0.00    -0.631 C  
ENDBRANCH  21  22
ENDBRANCH  20  21
ENDBRANCH  13  15
ENDBRANCH  12  13
ENDBRANCH   9  12
ENDBRANCH   3   6
TORSDOF 6
ENDMDL
MODEL       91
REMARK 921   NORMALIZED FREE ENERGY PREDICTED BY IDOCK:   -4.55 KCAL/MOL
REMARK 922        TOTAL FREE ENERGY PREDICTED BY IDOCK:   -7.63 KCAL/MOL
REMARK 923 INTER-LIGAND FREE ENERGY PREDICTED BY IDOCK:   -6.75 KCAL/MOL
REMARK 924 INTRA-LIGAND FREE ENERGY PREDICTED BY IDOCK:   -0.87 KCAL/MOL
REMARK 927      BINDING AFFINITY PREDICTED BY RF-SCORE:    0.00 PKD
ROOT
HETATM    1  C   UNL     1      -9.986   4.192  71.094  1.00  0.00    -0.211 C  
HETATM    2  C   UNL     1      -9.775   5.671  70.897  1.00  0.00    -0.173 C  
HETATM    3  N   UNL     1     -10.512   6.180  69.839  1.00  0.00    -0.211 N  
HETATM    4  O   UNL     1      -9.021   6.290  71.640  1.00  0.00    -0.144 OA 
HETATM    5  H   UNL     1     -11.098   5.518  69.330  1.00  0.00     0.000 HD 
ENDROOT
BRANCH   3   6
HETATM    6  C   UNL     1     -10.535   7.521  69.390  1.00  0.00    -0.222 A  
HETATM    7  C   UNL     1     -10.901   8.597  70.203  1.00  0.00    -0.242 A  
HETATM    8  C   UNL     1     -10.882   9.907  69.721  1.00  0.00    -0.300 A  
HETATM    9  C   UNL     1     -10.469  10.167  68.419  1.00  0.00    -0.208 A  
HETATM   10  C   UNL     1     -10.168   7.787  68.063  1.00  0.00    -0.249 A  
HETATM   11  C   UNL     1     -10.142   9.103  67.575  1.00  0.00    -0.284 A  
BRANCH   9  12
HETATM   12  O   UNL     1     -10.335  11.468  67.872  1.00  0.00    -0.177 OA 
BRANCH  12  13
HETATM   13  C   UNL     1     -11.418  12.237  67.437  1.00  0.00    -0.352 C  
HETATM   14  O   UNL     1     -12.273  11.915  66.628  1.00  0.00    -0.493 OA 
BRANCH  13  15
HETATM   15  C   UNL     1     -11.429  13.542  68.148  1.00  0.00    -0.338 A  
HETATM   16  C   UNL     1     -12.123  13.683  69.364  1.00  0.00    -0.364 A  
HETATM   17  C   UNL     1     -12.101  14.897  70.056  1.00  0.00    -0.387 A  
HETATM   18  C   UNL     1     -11.383  15.979  69.554  1.00  0.00    -0.344 A  
HETATM   19  C   UNL     1     -10.678  15.851  68.360  1.00  0.00    -0.281 A  
HETATM   20  C   UNL     1     -10.721  14.643  67.647  1.00  0.00    -0.271 A  
BRANCH  20  21
HETATM   21  O   UNL     1      -9.940  14.541  66.478  1.00  0.00    -0.262 OA 
BRANCH  21  22
HETATM   22  C   UNL     1     -10.418  15.204  65.351  1.00  0.00    -0.393 C  
HETATM   23  O   UNL     1     -10.302  16.397  65.104  1.00  0.00    -0.610 OA 
HETATM   24  C   UNL     1     -11.020  14.207  64.406  1.00  0.00    -0.240 C  
ENDBRANCH  21  22
ENDBRANCH  20  21
ENDBRANCH  13  15
ENDBRANCH  12  13
ENDBRANCH   9  12
ENDBRANCH   3   6
TORSDOF 6
ENDMDL
MODEL       92
REMARK 921   NORMALIZED FREE ENERGY PREDICTED BY IDOCK:   -4.55 KCAL/MOL
REMARK 922        TOTAL FREE ENERGY PREDICTED BY IDOCK:   -7.62 KCAL/MOL
REMARK 923 INTER-LIGAND FREE ENERGY PREDICTED BY IDOCK:   -6.40 KCAL/MOL
REMARK 924 INTRA-LIGAND FREE ENERGY PREDICTED BY IDOCK:   -1.22 KCAL/MOL
REMARK 927      BINDING AFFINITY PREDICTED BY RF-SCORE:    0.00 PKD
ROOT
HETATM    1  C   UNL     1      -8.441   5.816  65.249  1.00  0.00    -0.148 C  
HETATM    2  C   UNL     1      -8.447   7.020  66.157  1.00  0.00    -0.135 C  
HETATM    3  N   UNL     1      -9.456   7.918  65.845  1.00  0.00    -0.423 N  
HETATM    4  O   UNL     1      -7.621   7.117  67.056  1.00  0.00    -0.095 OA 
HETATM    5  H   UNL     1     -10.063   7.671  65.063  1.00  0.00     0.000 HD 
ENDROOT
BRANCH   3   6
HETATM    6  C   UNL     1      -9.730   9.144  66.497  1.00  0.00    -0.241 A  
HETATM    7  C   UNL     1     -10.704   9.284  67.489  1.00  0.00    -0.272 A  
HETATM    8  C   UNL     1     -10.918  10.510  68.123  1.00  0.00    -0.330 A  
HETATM    9  C   UNL     1     -10.140  11.614  67.792  1.00  0.00    -0.187 A  
HETATM   10  C   UNL     1      -8.984  10.274  66.134  1.00  0.00    -0.174 A  
HETATM   11  C   UNL     1      -9.192  11.507  66.772  1.00  0.00    -0.187 A  
BRANCH   9  12
HETATM   12  O   UNL     1     -10.228  12.871  68.442  1.00  0.00    -0.235 OA 
BRANCH  12  13
HETATM   13  C   UNL     1     -11.329  13.724  68.327  1.00  0.00    -0.285 C  
HETATM   14  O   UNL     1     -12.033  14.144  69.231  1.00  0.00    -0.309 OA 
BRANCH  13  15
HETATM   15  C   UNL     1     -11.521  14.113  66.906  1.00  0.00    -0.373 A  
HETATM   16  C   UNL     1     -12.436  13.416  66.096  1.00  0.00    -0.389 A  
HETATM   17  C   UNL     1     -12.650  13.806  64.770  1.00  0.00    -0.330 A  
HETATM   18  C   UNL     1     -11.966  14.897  64.241  1.00  0.00    -0.355 A  
HETATM   19  C   UNL     1     -11.069  15.607  65.034  1.00  0.00    -0.399 A  
HETATM   20  C   UNL     1     -10.829  15.201  66.356  1.00  0.00    -0.326 A  
BRANCH  20  21
HETATM   21  O   UNL     1      -9.963  15.989  67.140  1.00  0.00    -0.241 OA 
BRANCH  21  22
HETATM   22  C   UNL     1      -8.675  16.176  66.645  1.00  0.00    -0.265 C  
HETATM   23  O   UNL     1      -8.269  17.146  66.020  1.00  0.00    -0.480 OA 
HETATM   24  C   UNL     1      -7.803  15.039  67.087  1.00  0.00    -0.224 C  
ENDBRANCH  21  22
ENDBRANCH  20  21
ENDBRANCH  13  15
ENDBRANCH  12  13
ENDBRANCH   9  12
ENDBRANCH   3   6
TORSDOF 6
ENDMDL
MODEL       93
REMARK 921   NORMALIZED FREE ENERGY PREDICTED BY IDOCK:   -4.54 KCAL/MOL
REMARK 922        TOTAL FREE ENERGY PREDICTED BY IDOCK:   -7.62 KCAL/MOL
REMARK 923 INTER-LIGAND FREE ENERGY PREDICTED BY IDOCK:   -6.67 KCAL/MOL
REMARK 924 INTRA-LIGAND FREE ENERGY PREDICTED BY IDOCK:   -0.95 KCAL/MOL
REMARK 927      BINDING AFFINITY PREDICTED BY RF-SCORE:    0.00 PKD
ROOT
HETATM    1  C   UNL     1     -11.387  15.664  64.405  1.00  0.00    -0.272 C  
HETATM    2  C   UNL     1     -11.767  14.294  64.908  1.00  0.00    -0.397 C  
HETATM    3  N   UNL     1     -10.693  13.609  65.455  1.00  0.00    -0.288 N  
HETATM    4  O   UNL     1     -12.925  13.903  64.815  1.00  0.00    -0.686 OA 
HETATM    5  H   UNL     1      -9.795  14.094  65.459  1.00  0.00     0.000 HD 
ENDROOT
BRANCH   3   6
HETATM    6  C   UNL     1     -10.712  12.307  66.009  1.00  0.00    -0.261 A  
HETATM    7  C   UNL     1     -11.442  11.969  67.152  1.00  0.00    -0.401 A  
HETATM    8  C   UNL     1     -11.450  10.663  67.644  1.00  0.00    -0.169 A  
HETATM    9  C   UNL     1     -10.746   9.662  66.983  1.00  0.00    -0.155 A  
HETATM   10  C   UNL     1      -9.966  11.303  65.377  1.00  0.00    -0.297 A  
HETATM   11  C   UNL     1      -9.975   9.987  65.865  1.00  0.00    -0.339 A  
BRANCH   9  12
HETATM   12  O   UNL     1     -10.767   8.295  67.359  1.00  0.00    -0.270 OA 
BRANCH  12  13
HETATM   13  C   UNL     1      -9.881   7.736  68.284  1.00  0.00    -0.167 C  
HETATM   14  O   UNL     1      -8.742   7.352  68.074  1.00  0.00    -0.125 OA 
BRANCH  13  15
HETATM   15  C   UNL     1     -10.508   7.707  69.631  1.00  0.00    -0.235 A  
HETATM   16  C   UNL     1     -11.286   6.605  70.029  1.00  0.00    -0.440 A  
HETATM   17  C   UNL     1     -11.843   6.556  71.311  1.00  0.00    -0.385 A  
HETATM   18  C   UNL     1     -11.624   7.594  72.211  1.00  0.00    -0.370 A  
HETATM   19  C   UNL     1     -10.843   8.685  71.838  1.00  0.00    -0.419 A  
HETATM   20  C   UNL     1     -10.307   8.752  70.543  1.00  0.00    -0.203 A  
BRANCH  20  21
HETATM   21  O   UNL     1      -9.470   9.843  70.233  1.00  0.00    -0.232 OA 
BRANCH  21  22
HETATM   22  C   UNL     1      -8.126   9.711  70.572  1.00  0.00    -0.109 C  
HETATM   23  O   UNL     1      -7.675   9.118  71.543  1.00  0.00    -0.325 OA 
HETATM   24  C   UNL     1      -7.279  10.322  69.496  1.00  0.00    -0.122 C  
ENDBRANCH  21  22
ENDBRANCH  20  21
ENDBRANCH  13  15
ENDBRANCH  12  13
ENDBRANCH   9  12
ENDBRANCH   3   6
TORSDOF 6
ENDMDL
MODEL       94
REMARK 921   NORMALIZED FREE ENERGY PREDICTED BY IDOCK:   -4.52 KCAL/MOL
REMARK 922        TOTAL FREE ENERGY PREDICTED BY IDOCK:   -7.59 KCAL/MOL
REMARK 923 INTER-LIGAND FREE ENERGY PREDICTED BY IDOCK:   -6.31 KCAL/MOL
REMARK 924 INTRA-LIGAND FREE ENERGY PREDICTED BY IDOCK:   -1.28 KCAL/MOL
REMARK 927      BINDING AFFINITY PREDICTED BY RF-SCORE:    0.00 PKD
ROOT
HETATM    1  C   UNL     1      -9.767  18.127  66.485  1.00  0.00    -0.344 C  
HETATM    2  C   UNL     1      -9.663  16.669  66.851  1.00  0.00    -0.254 C  
HETATM    3  N   UNL     1     -10.802  15.952  66.519  1.00  0.00    -0.253 N  
HETATM    4  O   UNL     1      -8.644  16.237  67.378  1.00  0.00    -0.173 OA 
HETATM    5  H   UNL     1     -11.557  16.474  66.074  1.00  0.00     0.000 HD 
ENDROOT
BRANCH   3   6
HETATM    6  C   UNL     1     -11.026  14.571  66.731  1.00  0.00    -0.316 A  
HETATM    7  C   UNL     1     -10.749  13.592  65.775  1.00  0.00    -0.278 A  
HETATM    8  C   UNL     1     -10.963  12.238  66.043  1.00  0.00    -0.327 A  
HETATM    9  C   UNL     1     -11.434  11.838  67.289  1.00  0.00    -0.303 A  
HETATM   10  C   UNL     1     -11.548  14.164  67.967  1.00  0.00    -0.368 A  
HETATM   11  C   UNL     1     -11.759  12.804  68.244  1.00  0.00    -0.388 A  
BRANCH   9  12
HETATM   12  O   UNL     1     -11.598  10.485  67.679  1.00  0.00    -0.447 OA 
BRANCH  12  13
HETATM   13  C   UNL     1     -10.645   9.492  67.438  1.00  0.00    -0.271 C  
HETATM   14  O   UNL     1     -10.636   8.686  66.522  1.00  0.00    -0.199 OA 
BRANCH  13  15
HETATM   15  C   UNL     1      -9.566   9.569  68.457  1.00  0.00    -0.150 A  
HETATM   16  C   UNL     1      -8.364  10.242  68.169  1.00  0.00    -0.118 A  
HETATM   17  C   UNL     1      -7.364  10.353  69.140  1.00  0.00    -0.102 A  
HETATM   18  C   UNL     1      -7.551   9.807  70.407  1.00  0.00    -0.165 A  
HETATM   19  C   UNL     1      -8.741   9.152  70.712  1.00  0.00    -0.285 A  
HETATM   20  C   UNL     1      -9.736   9.013  69.732  1.00  0.00    -0.175 A  
BRANCH  20  21
HETATM   21  O   UNL     1     -10.948   8.400  70.108  1.00  0.00    -0.242 OA 
BRANCH  21  22
HETATM   22  C   UNL     1     -11.538   8.860  71.283  1.00  0.00    -0.304 C  
HETATM   23  O   UNL     1     -11.564   8.279  72.360  1.00  0.00    -0.359 OA 
HETATM   24  C   UNL     1     -12.061  10.248  71.067  1.00  0.00    -0.487 C  
ENDBRANCH  21  22
ENDBRANCH  20  21
ENDBRANCH  13  15
ENDBRANCH  12  13
ENDBRANCH   9  12
ENDBRANCH   3   6
TORSDOF 6
ENDMDL
MODEL       95
REMARK 921   NORMALIZED FREE ENERGY PREDICTED BY IDOCK:   -4.52 KCAL/MOL
REMARK 922        TOTAL FREE ENERGY PREDICTED BY IDOCK:   -7.58 KCAL/MOL
REMARK 923 INTER-LIGAND FREE ENERGY PREDICTED BY IDOCK:   -6.59 KCAL/MOL
REMARK 924 INTRA-LIGAND FREE ENERGY PREDICTED BY IDOCK:   -0.99 KCAL/MOL
REMARK 927      BINDING AFFINITY PREDICTED BY RF-SCORE:    0.00 PKD
ROOT
HETATM    1  C   UNL     1      -9.194   3.192  63.380  1.00  0.00    -0.095 C  
HETATM    2  C   UNL     1     -10.061   3.824  64.440  1.00  0.00    -0.218 C  
HETATM    3  N   UNL     1      -9.343   4.197  65.565  1.00  0.00    -0.151 N  
HETATM    4  O   UNL     1     -11.264   3.964  64.248  1.00  0.00    -0.335 OA 
HETATM    5  H   UNL     1      -8.340   4.012  65.550  1.00  0.00     0.000 HD 
ENDROOT
BRANCH   3   6
HETATM    6  C   UNL     1      -9.857   4.809  66.733  1.00  0.00    -0.208 A  
HETATM    7  C   UNL     1     -10.640   5.965  66.714  1.00  0.00    -0.368 A  
HETATM    8  C   UNL     1     -11.146   6.515  67.894  1.00  0.00    -0.352 A  
HETATM    9  C   UNL     1     -10.898   5.899  69.115  1.00  0.00    -0.336 A  
HETATM   10  C   UNL     1      -9.570   4.221  67.974  1.00  0.00    -0.204 A  
HETATM   11  C   UNL     1     -10.080   4.767  69.162  1.00  0.00    -0.196 A  
BRANCH   9  12
HETATM   12  O   UNL     1     -11.441   6.335  70.350  1.00  0.00    -0.364 OA 
BRANCH  12  13
HETATM   13  C   UNL     1     -10.802   7.247  71.195  1.00  0.00    -0.242 C  
HETATM   14  O   UNL     1      -9.805   7.050  71.872  1.00  0.00    -0.165 OA 
BRANCH  13  15
HETATM   15  C   UNL     1     -11.489   8.563  71.131  1.00  0.00    -0.322 A  
HETATM   16  C   UNL     1     -12.554   8.852  72.003  1.00  0.00    -0.460 A  
HETATM   17  C   UNL     1     -13.174  10.105  71.974  1.00  0.00    -0.534 A  
HETATM   18  C   UNL     1     -12.737  11.084  71.086  1.00  0.00    -0.521 A  
HETATM   19  C   UNL     1     -11.674  10.819  70.227  1.00  0.00    -0.442 A  
HETATM   20  C   UNL     1     -11.067   9.554  70.233  1.00  0.00    -0.271 A  
BRANCH  20  21
HETATM   21  O   UNL     1      -9.954   9.354  69.392  1.00  0.00    -0.170 OA 
BRANCH  21  22
HETATM   22  C   UNL     1      -8.758   9.944  69.794  1.00  0.00    -0.212 C  
HETATM   23  O   UNL     1      -8.063   9.606  70.744  1.00  0.00    -0.279 OA 
HETATM   24  C   UNL     1      -8.376  11.012  68.814  1.00  0.00    -0.144 C  
ENDBRANCH  21  22
ENDBRANCH  20  21
ENDBRANCH  13  15
ENDBRANCH  12  13
ENDBRANCH   9  12
ENDBRANCH   3   6
TORSDOF 6
ENDMDL
MODEL       96
REMARK 921   NORMALIZED FREE ENERGY PREDICTED BY IDOCK:   -4.51 KCAL/MOL
REMARK 922        TOTAL FREE ENERGY PREDICTED BY IDOCK:   -7.57 KCAL/MOL
REMARK 923 INTER-LIGAND FREE ENERGY PREDICTED BY IDOCK:   -6.50 KCAL/MOL
REMARK 924 INTRA-LIGAND FREE ENERGY PREDICTED BY IDOCK:   -1.07 KCAL/MOL
REMARK 927      BINDING AFFINITY PREDICTED BY RF-SCORE:    0.00 PKD
ROOT
HETATM    1  C   UNL     1      -7.965   5.176  64.688  1.00  0.00    -0.102 C  
HETATM    2  C   UNL     1      -8.186   6.234  65.739  1.00  0.00    -0.136 C  
HETATM    3  N   UNL     1      -8.864   7.339  65.251  1.00  0.00    -0.367 N  
HETATM    4  O   UNL     1      -7.784   6.058  66.884  1.00  0.00    -0.098 OA 
HETATM    5  H   UNL     1      -9.133   7.313  64.267  1.00  0.00     0.000 HD 
ENDROOT
BRANCH   3   6
HETATM    6  C   UNL     1      -9.223   8.501  65.974  1.00  0.00    -0.202 A  
HETATM    7  C   UNL     1     -10.250   8.530  66.921  1.00  0.00    -0.375 A  
HETATM    8  C   UNL     1     -10.548   9.696  67.628  1.00  0.00    -0.334 A  
HETATM    9  C   UNL     1      -9.803  10.851  67.419  1.00  0.00    -0.173 A  
HETATM   10  C   UNL     1      -8.509   9.683  65.733  1.00  0.00    -0.142 A  
HETATM   11  C   UNL     1      -8.801  10.857  66.446  1.00  0.00    -0.178 A  
BRANCH   9  12
HETATM   12  O   UNL     1      -9.976  12.052  68.152  1.00  0.00    -0.191 OA 
BRANCH  12  13
HETATM   13  C   UNL     1     -11.164  12.788  68.157  1.00  0.00    -0.272 C  
HETATM   14  O   UNL     1     -11.932  12.942  69.093  1.00  0.00    -0.298 OA 
BRANCH  13  15
HETATM   15  C   UNL     1     -11.366  13.431  66.832  1.00  0.00    -0.351 A  
HETATM   16  C   UNL     1     -12.075  12.762  65.818  1.00  0.00    -0.505 A  
HETATM   17  C   UNL     1     -12.303  13.381  64.585  1.00  0.00    -0.433 A  
HETATM   18  C   UNL     1     -11.837  14.672  64.352  1.00  0.00    -0.405 A  
HETATM   19  C   UNL     1     -11.147  15.354  65.350  1.00  0.00    -0.331 A  
HETATM   20  C   UNL     1     -10.891  14.726  66.579  1.00  0.00    -0.319 A  
BRANCH  20  21
HETATM   21  O   UNL     1     -10.247  15.479  67.581  1.00  0.00    -0.248 OA 
BRANCH  21  22
HETATM   22  C   UNL     1     -11.028  16.417  68.252  1.00  0.00    -0.355 C  
HETATM   23  O   UNL     1     -11.943  16.180  69.029  1.00  0.00    -0.291 OA 
HETATM   24  C   UNL     1     -10.508  17.794  67.963  1.00  0.00    -0.399 C  
ENDBRANCH  21  22
ENDBRANCH  20  21
ENDBRANCH  13  15
ENDBRANCH  12  13
ENDBRANCH   9  12
ENDBRANCH   3   6
TORSDOF 6
ENDMDL
MODEL       97
REMARK 921   NORMALIZED FREE ENERGY PREDICTED BY IDOCK:   -4.48 KCAL/MOL
REMARK 922        TOTAL FREE ENERGY PREDICTED BY IDOCK:   -7.53 KCAL/MOL
REMARK 923 INTER-LIGAND FREE ENERGY PREDICTED BY IDOCK:   -6.87 KCAL/MOL
REMARK 924 INTRA-LIGAND FREE ENERGY PREDICTED BY IDOCK:   -0.66 KCAL/MOL
REMARK 927      BINDING AFFINITY PREDICTED BY RF-SCORE:    0.00 PKD
ROOT
HETATM    1  C   UNL     1     -10.607  17.671  67.108  1.00  0.00    -0.277 C  
HETATM    2  C   UNL     1     -10.466  16.423  67.942  1.00  0.00    -0.307 C  
HETATM    3  N   UNL     1     -11.517  15.538  67.761  1.00  0.00    -0.292 N  
HETATM    4  O   UNL     1      -9.493  16.278  68.673  1.00  0.00    -0.210 OA 
HETATM    5  H   UNL     1     -12.243  15.819  67.102  1.00  0.00     0.000 HD 
ENDROOT
BRANCH   3   6
HETATM    6  C   UNL     1     -11.688  14.284  68.395  1.00  0.00    -0.338 A  
HETATM    7  C   UNL     1     -12.091  14.145  69.725  1.00  0.00    -0.409 A  
HETATM    8  C   UNL     1     -12.272  12.884  70.297  1.00  0.00    -0.362 A  
HETATM    9  C   UNL     1     -12.077  11.737  69.537  1.00  0.00    -0.250 A  
HETATM   10  C   UNL     1     -11.445  13.122  67.649  1.00  0.00    -0.366 A  
HETATM   11  C   UNL     1     -11.630  11.852  68.218  1.00  0.00    -0.390 A  
BRANCH   9  12
HETATM   12  O   UNL     1     -12.320  10.421  70.007  1.00  0.00    -0.249 OA 
BRANCH  12  13
HETATM   13  C   UNL     1     -12.519  10.108  71.354  1.00  0.00    -0.423 C  
HETATM   14  O   UNL     1     -13.046  10.808  72.203  1.00  0.00    -0.460 OA 
BRANCH  13  15
HETATM   15  C   UNL     1     -12.030   8.732  71.631  1.00  0.00    -0.399 A  
HETATM   16  C   UNL     1     -12.941   7.670  71.773  1.00  0.00    -0.360 A  
HETATM   17  C   UNL     1     -12.482   6.367  71.992  1.00  0.00    -0.212 A  
HETATM   18  C   UNL     1     -11.116   6.106  72.061  1.00  0.00    -0.322 A  
HETATM   19  C   UNL     1     -10.201   7.145  71.906  1.00  0.00    -0.208 A  
HETATM   20  C   UNL     1     -10.658   8.458  71.715  1.00  0.00    -0.282 A  
BRANCH  20  21
HETATM   21  O   UNL     1      -9.695   9.464  71.498  1.00  0.00    -0.226 OA 
BRANCH  21  22
HETATM   22  C   UNL     1      -8.979   9.392  70.306  1.00  0.00    -0.240 C  
HETATM   23  O   UNL     1      -9.448   9.275  69.181  1.00  0.00    -0.152 OA 
HETATM   24  C   UNL     1      -7.520   9.589  70.590  1.00  0.00    -0.136 C  
ENDBRANCH  21  22
ENDBRANCH  20  21
ENDBRANCH  13  15
ENDBRANCH  12  13
ENDBRANCH   9  12
ENDBRANCH   3   6
TORSDOF 6
ENDMDL
MODEL       98
REMARK 921   NORMALIZED FREE ENERGY PREDICTED BY IDOCK:   -4.47 KCAL/MOL
REMARK 922        TOTAL FREE ENERGY PREDICTED BY IDOCK:   -7.51 KCAL/MOL
REMARK 923 INTER-LIGAND FREE ENERGY PREDICTED BY IDOCK:   -6.63 KCAL/MOL
REMARK 924 INTRA-LIGAND FREE ENERGY PREDICTED BY IDOCK:   -0.89 KCAL/MOL
REMARK 927      BINDING AFFINITY PREDICTED BY RF-SCORE:    0.00 PKD
ROOT
HETATM    1  C   UNL     1     -10.289  17.593  66.190  1.00  0.00    -0.334 C  
HETATM    2  C   UNL     1     -10.002  16.281  66.875  1.00  0.00    -0.260 C  
HETATM    3  N   UNL     1     -11.151  15.552  67.136  1.00  0.00    -0.296 N  
HETATM    4  O   UNL     1      -8.847  15.962  67.134  1.00  0.00    -0.190 OA 
HETATM    5  H   UNL     1     -12.034  15.970  66.842  1.00  0.00     0.000 HD 
ENDROOT
BRANCH   3   6
HETATM    6  C   UNL     1     -11.227  14.289  67.769  1.00  0.00    -0.291 A  
HETATM    7  C   UNL     1     -11.724  14.105  69.062  1.00  0.00    -0.361 A  
HETATM    8  C   UNL     1     -11.803  12.834  69.632  1.00  0.00    -0.384 A  
HETATM    9  C   UNL     1     -11.411  11.715  68.905  1.00  0.00    -0.287 A  
HETATM   10  C   UNL     1     -10.787  13.162  67.061  1.00  0.00    -0.278 A  
HETATM   11  C   UNL     1     -10.871  11.880  67.628  1.00  0.00    -0.271 A  
BRANCH   9  12
HETATM   12  O   UNL     1     -11.538  10.382  69.368  1.00  0.00    -0.245 OA 
BRANCH  12  13
HETATM   13  C   UNL     1     -10.446   9.560  69.663  1.00  0.00    -0.223 C  
HETATM   14  O   UNL     1      -9.524   9.806  70.424  1.00  0.00    -0.247 OA 
BRANCH  13  15
HETATM   15  C   UNL     1     -10.574   8.269  68.939  1.00  0.00    -0.160 A  
HETATM   16  C   UNL     1     -10.547   8.237  67.533  1.00  0.00    -0.291 A  
HETATM   17  C   UNL     1     -10.626   7.020  66.850  1.00  0.00    -0.372 A  
HETATM   18  C   UNL     1     -10.721   5.824  67.556  1.00  0.00    -0.320 A  
HETATM   19  C   UNL     1     -10.734   5.837  68.948  1.00  0.00    -0.334 A  
HETATM   20  C   UNL     1     -10.684   7.058  69.637  1.00  0.00    -0.241 A  
BRANCH  20  21
HETATM   21  O   UNL     1     -10.633   7.018  71.045  1.00  0.00    -0.216 OA 
BRANCH  21  22
HETATM   22  C   UNL     1     -11.779   6.567  71.696  1.00  0.00    -0.324 C  
HETATM   23  O   UNL     1     -12.933   6.889  71.444  1.00  0.00    -0.355 OA 
HETATM   24  C   UNL     1     -11.401   5.524  72.705  1.00  0.00    -0.346 C  
ENDBRANCH  21  22
ENDBRANCH  20  21
ENDBRANCH  13  15
ENDBRANCH  12  13
ENDBRANCH   9  12
ENDBRANCH   3   6
TORSDOF 6
ENDMDL
MODEL       99
REMARK 921   NORMALIZED FREE ENERGY PREDICTED BY IDOCK:   -4.47 KCAL/MOL
REMARK 922        TOTAL FREE ENERGY PREDICTED BY IDOCK:   -7.51 KCAL/MOL
REMARK 923 INTER-LIGAND FREE ENERGY PREDICTED BY IDOCK:   -6.91 KCAL/MOL
REMARK 924 INTRA-LIGAND FREE ENERGY PREDICTED BY IDOCK:   -0.60 KCAL/MOL
REMARK 927      BINDING AFFINITY PREDICTED BY RF-SCORE:    0.00 PKD
ROOT
HETATM    1  C   UNL     1      -8.777   5.165  65.299  1.00  0.00    -0.150 C  
HETATM    2  C   UNL     1      -8.954   6.286  66.292  1.00  0.00    -0.155 C  
HETATM    3  N   UNL     1      -9.363   7.468  65.695  1.00  0.00    -0.375 N  
HETATM    4  O   UNL     1      -8.746   6.092  67.484  1.00  0.00    -0.110 OA 
HETATM    5  H   UNL     1      -9.497   7.447  64.684  1.00  0.00     0.000 HD 
ENDROOT
BRANCH   3   6
HETATM    6  C   UNL     1      -9.614   8.702  66.342  1.00  0.00    -0.247 A  
HETATM    7  C   UNL     1      -8.880   9.864  66.092  1.00  0.00    -0.163 A  
HETATM    8  C   UNL     1      -9.184  11.064  66.737  1.00  0.00    -0.174 A  
HETATM    9  C   UNL     1     -10.249  11.128  67.628  1.00  0.00    -0.181 A  
HETATM   10  C   UNL     1     -10.655   8.763  67.279  1.00  0.00    -0.303 A  
HETATM   11  C   UNL     1     -10.968   9.969  67.926  1.00  0.00    -0.311 A  
BRANCH   9  12
HETATM   12  O   UNL     1     -10.684  12.320  68.261  1.00  0.00    -0.205 OA 
BRANCH  12  13
HETATM   13  C   UNL     1     -11.653  13.171  67.722  1.00  0.00    -0.337 C  
HETATM   14  O   UNL     1     -12.626  12.852  67.057  1.00  0.00    -0.136 OA 
BRANCH  13  15
HETATM   15  C   UNL     1     -11.368  14.575  68.115  1.00  0.00    -0.319 A  
HETATM   16  C   UNL     1     -11.576  14.998  69.441  1.00  0.00    -0.337 A  
HETATM   17  C   UNL     1     -11.268  16.307  69.824  1.00  0.00    -0.314 A  
HETATM   18  C   UNL     1     -10.743  17.205  68.898  1.00  0.00    -0.257 A  
HETATM   19  C   UNL     1     -10.517  16.797  67.586  1.00  0.00    -0.328 A  
HETATM   20  C   UNL     1     -10.851  15.493  67.190  1.00  0.00    -0.316 A  
BRANCH  20  21
HETATM   21  O   UNL     1     -10.543  15.107  65.870  1.00  0.00    -0.305 OA 
BRANCH  21  22
HETATM   22  C   UNL     1     -11.374  15.601  64.868  1.00  0.00    -0.315 C  
HETATM   23  O   UNL     1     -11.339  16.723  64.381  1.00  0.00    -1.089 OA 
HETATM   24  C   UNL     1     -12.275  14.504  64.383  1.00  0.00    -0.480 C  
ENDBRANCH  21  22
ENDBRANCH  20  21
ENDBRANCH  13  15
ENDBRANCH  12  13
ENDBRANCH   9  12
ENDBRANCH   3   6
TORSDOF 6
ENDMDL
MODEL      100
REMARK 921   NORMALIZED FREE ENERGY PREDICTED BY IDOCK:   -4.47 KCAL/MOL
REMARK 922        TOTAL FREE ENERGY PREDICTED BY IDOCK:   -7.51 KCAL/MOL
REMARK 923 INTER-LIGAND FREE ENERGY PREDICTED BY IDOCK:   -6.69 KCAL/MOL
REMARK 924 INTRA-LIGAND FREE ENERGY PREDICTED BY IDOCK:   -0.82 KCAL/MOL
REMARK 927      BINDING AFFINITY PREDICTED BY RF-SCORE:    0.00 PKD
ROOT
HETATM    1  C   UNL     1     -11.602  15.936  64.444  1.00  0.00    -0.234 C  
HETATM    2  C   UNL     1     -11.974  14.613  65.065  1.00  0.00    -0.364 C  
HETATM    3  N   UNL     1     -11.031  14.168  65.978  1.00  0.00    -0.301 N  
HETATM    4  O   UNL     1     -13.019  14.057  64.749  1.00  0.00    -0.686 OA 
HETATM    5  H   UNL     1     -10.219  14.768  66.126  1.00  0.00     0.000 HD 
ENDROOT
BRANCH   3   6
HETATM    6  C   UNL     1     -11.078  12.969  66.728  1.00  0.00    -0.286 A  
HETATM    7  C   UNL     1     -10.585  11.749  66.257  1.00  0.00    -0.292 A  
HETATM    8  C   UNL     1     -10.630  10.598  67.046  1.00  0.00    -0.317 A  
HETATM    9  C   UNL     1     -11.147  10.654  68.336  1.00  0.00    -0.272 A  
HETATM   10  C   UNL     1     -11.643  13.006  68.011  1.00  0.00    -0.383 A  
HETATM   11  C   UNL     1     -11.685  11.853  68.810  1.00  0.00    -0.379 A  
BRANCH   9  12
HETATM   12  O   UNL     1     -11.153   9.560  69.237  1.00  0.00    -0.190 OA 
BRANCH  12  13
HETATM   13  C   UNL     1      -9.999   9.042  69.830  1.00  0.00    -0.196 C  
HETATM   14  O   UNL     1      -9.100   9.670  70.366  1.00  0.00    -0.246 OA 
BRANCH  13  15
HETATM   15  C   UNL     1     -10.020   7.558  69.766  1.00  0.00    -0.186 A  
HETATM   16  C   UNL     1     -10.238   6.902  68.541  1.00  0.00    -0.187 A  
HETATM   17  C   UNL     1     -10.218   5.506  68.470  1.00  0.00    -0.250 A  
HETATM   18  C   UNL     1      -9.971   4.748  69.612  1.00  0.00    -0.297 A  
HETATM   19  C   UNL     1      -9.738   5.383  70.830  1.00  0.00    -0.239 A  
HETATM   20  C   UNL     1      -9.786   6.783  70.911  1.00  0.00    -0.178 A  
BRANCH  20  21
HETATM   21  O   UNL     1      -9.479   7.381  72.149  1.00  0.00    -0.138 OA 
BRANCH  21  22
HETATM   22  C   UNL     1     -10.476   7.344  73.121  1.00  0.00    -0.356 C  
HETATM   23  O   UNL     1     -11.588   7.850  73.042  1.00  0.00    -0.351 OA 
HETATM   24  C   UNL     1     -10.024   6.487  74.265  1.00  0.00    -0.362 C  
ENDBRANCH  21  22
ENDBRANCH  20  21
ENDBRANCH  13  15
ENDBRANCH  12  13
ENDBRANCH   9  12
ENDBRANCH   3   6
TORSDOF 6
ENDMDL
MODEL      101
REMARK 921   NORMALIZED FREE ENERGY PREDICTED BY IDOCK:   -4.46 KCAL/MOL
REMARK 922        TOTAL FREE ENERGY PREDICTED BY IDOCK:   -7.50 KCAL/MOL
REMARK 923 INTER-LIGAND FREE ENERGY PREDICTED BY IDOCK:   -6.61 KCAL/MOL
REMARK 924 INTRA-LIGAND FREE ENERGY PREDICTED BY IDOCK:   -0.89 KCAL/MOL
REMARK 927      BINDING AFFINITY PREDICTED BY RF-SCORE:    0.00 PKD
ROOT
HETATM    1  C   UNL     1     -11.451  15.381  64.568  1.00  0.00    -0.314 C  
HETATM    2  C   UNL     1     -11.303  14.435  65.732  1.00  0.00    -0.330 C  
HETATM    3  N   UNL     1     -10.339  13.464  65.513  1.00  0.00    -0.289 N  
HETATM    4  O   UNL     1     -11.993  14.581  66.735  1.00  0.00    -0.397 OA 
HETATM    5  H   UNL     1      -9.851  13.499  64.618  1.00  0.00     0.000 HD 
ENDROOT
BRANCH   3   6
HETATM    6  C   UNL     1      -9.962  12.429  66.401  1.00  0.00    -0.242 A  
HETATM    7  C   UNL     1      -8.914  12.547  67.317  1.00  0.00    -0.192 A  
HETATM    8  C   UNL     1      -8.598  11.505  68.192  1.00  0.00    -0.156 A  
HETATM    9  C   UNL     1      -9.345  10.333  68.182  1.00  0.00    -0.139 A  
HETATM   10  C   UNL     1     -10.679  11.225  66.363  1.00  0.00    -0.320 A  
HETATM   11  C   UNL     1     -10.368  10.176  67.244  1.00  0.00    -0.291 A  
BRANCH   9  12
HETATM   12  O   UNL     1      -9.153   9.260  69.089  1.00  0.00    -0.139 OA 
BRANCH  12  13
HETATM   13  C   UNL     1      -9.045   9.430  70.472  1.00  0.00    -0.256 C  
HETATM   14  O   UNL     1      -8.033   9.675  71.108  1.00  0.00    -0.275 OA 
BRANCH  13  15
HETATM   15  C   UNL     1     -10.386   9.315  71.101  1.00  0.00    -0.392 A  
HETATM   16  C   UNL     1     -11.405  10.229  70.775  1.00  0.00    -0.421 A  
HETATM   17  C   UNL     1     -12.680  10.099  71.333  1.00  0.00    -0.530 A  
HETATM   18  C   UNL     1     -12.959   9.055  72.212  1.00  0.00    -0.490 A  
HETATM   19  C   UNL     1     -11.966   8.134  72.533  1.00  0.00    -0.410 A  
HETATM   20  C   UNL     1     -10.677   8.277  71.997  1.00  0.00    -0.297 A  
BRANCH  20  21
HETATM   21  O   UNL     1      -9.725   7.283  72.299  1.00  0.00    -0.149 OA 
BRANCH  21  22
HETATM   22  C   UNL     1      -9.786   6.115  71.544  1.00  0.00    -0.162 C  
HETATM   23  O   UNL     1      -9.358   5.960  70.408  1.00  0.00    -0.155 OA 
HETATM   24  C   UNL     1     -10.370   5.013  72.377  1.00  0.00    -0.261 C  
ENDBRANCH  21  22
ENDBRANCH  20  21
ENDBRANCH  13  15
ENDBRANCH  12  13
ENDBRANCH   9  12
ENDBRANCH   3   6
TORSDOF 6
ENDMDL
MODEL      102
REMARK 921   NORMALIZED FREE ENERGY PREDICTED BY IDOCK:   -4.45 KCAL/MOL
REMARK 922        TOTAL FREE ENERGY PREDICTED BY IDOCK:   -7.49 KCAL/MOL
REMARK 923 INTER-LIGAND FREE ENERGY PREDICTED BY IDOCK:   -6.75 KCAL/MOL
REMARK 924 INTRA-LIGAND FREE ENERGY PREDICTED BY IDOCK:   -0.74 KCAL/MOL
REMARK 927      BINDING AFFINITY PREDICTED BY RF-SCORE:    0.00 PKD
ROOT
HETATM    1  C   UNL     1     -13.210  15.958  73.343  1.00  0.00    -0.668 C  
HETATM    2  C   UNL     1     -13.363  14.787  72.404  1.00  0.00    -0.408 C  
HETATM    3  N   UNL     1     -12.373  14.746  71.436  1.00  0.00    -0.317 N  
HETATM    4  O   UNL     1     -14.288  13.997  72.553  1.00  0.00    -0.626 OA 
HETATM    5  H   UNL     1     -11.671  15.486  71.467  1.00  0.00     0.000 HD 
ENDROOT
BRANCH   3   6
HETATM    6  C   UNL     1     -12.233  13.783  70.408  1.00  0.00    -0.363 A  
HETATM    7  C   UNL     1     -12.039  14.116  69.065  1.00  0.00    -0.348 A  
HETATM    8  C   UNL     1     -11.879  13.129  68.092  1.00  0.00    -0.386 A  
HETATM    9  C   UNL     1     -11.885  11.785  68.450  1.00  0.00    -0.282 A  
HETATM   10  C   UNL     1     -12.287  12.426  70.754  1.00  0.00    -0.377 A  
HETATM   11  C   UNL     1     -12.122  11.429  69.779  1.00  0.00    -0.388 A  
BRANCH   9  12
HETATM   12  O   UNL     1     -11.644  10.721  67.546  1.00  0.00    -0.510 OA 
BRANCH  12  13
HETATM   13  C   UNL     1     -10.661   9.747  67.744  1.00  0.00    -0.272 C  
HETATM   14  O   UNL     1     -10.658   8.864  68.587  1.00  0.00    -0.209 OA 
BRANCH  13  15
HETATM   15  C   UNL     1      -9.591   9.893  66.724  1.00  0.00    -0.231 A  
HETATM   16  C   UNL     1      -9.826   9.516  65.389  1.00  0.00    -0.248 A  
HETATM   17  C   UNL     1      -8.835   9.692  64.418  1.00  0.00    -0.263 A  
HETATM   18  C   UNL     1      -7.607  10.252  64.761  1.00  0.00    -0.109 A  
HETATM   19  C   UNL     1      -7.365  10.645  66.075  1.00  0.00    -0.132 A  
HETATM   20  C   UNL     1      -8.346  10.444  67.058  1.00  0.00    -0.127 A  
BRANCH  20  21
HETATM   21  O   UNL     1      -8.080  10.917  68.359  1.00  0.00    -0.116 OA 
BRANCH  21  22
HETATM   22  C   UNL     1      -7.780  12.271  68.478  1.00  0.00    -0.118 C  
HETATM   23  O   UNL     1      -8.450  13.205  68.058  1.00  0.00    -0.161 OA 
HETATM   24  C   UNL     1      -6.541  12.435  69.307  1.00  0.00    -0.093 C  
ENDBRANCH  21  22
ENDBRANCH  20  21
ENDBRANCH  13  15
ENDBRANCH  12  13
ENDBRANCH   9  12
ENDBRANCH   3   6
TORSDOF 6
ENDMDL
MODEL      103
REMARK 921   NORMALIZED FREE ENERGY PREDICTED BY IDOCK:   -4.44 KCAL/MOL
REMARK 922        TOTAL FREE ENERGY PREDICTED BY IDOCK:   -7.48 KCAL/MOL
REMARK 923 INTER-LIGAND FREE ENERGY PREDICTED BY IDOCK:   -6.49 KCAL/MOL
REMARK 924 INTRA-LIGAND FREE ENERGY PREDICTED BY IDOCK:   -0.99 KCAL/MOL
REMARK 927      BINDING AFFINITY PREDICTED BY RF-SCORE:    0.00 PKD
ROOT
HETATM    1  C   UNL     1     -11.154   6.839  67.595  1.00  0.00    -0.309 C  
HETATM    2  C   UNL     1     -10.498   8.048  66.978  1.00  0.00    -0.340 C  
HETATM    3  N   UNL     1     -11.000   9.240  67.476  1.00  0.00    -0.448 N  
HETATM    4  O   UNL     1      -9.617   7.909  66.137  1.00  0.00    -0.159 OA 
HETATM    5  H   UNL     1     -11.731   9.168  68.184  1.00  0.00     0.000 HD 
ENDROOT
BRANCH   3   6
HETATM    6  C   UNL     1     -10.605  10.547  67.104  1.00  0.00    -0.264 A  
HETATM    7  C   UNL     1     -11.407  11.407  66.350  1.00  0.00    -0.168 A  
HETATM    8  C   UNL     1     -10.982  12.699  66.032  1.00  0.00    -0.313 A  
HETATM    9  C   UNL     1      -9.753  13.162  66.487  1.00  0.00    -0.268 A  
HETATM   10  C   UNL     1      -9.346  11.005  67.517  1.00  0.00    -0.167 A  
HETATM   11  C   UNL     1      -8.916  12.304  67.204  1.00  0.00    -0.192 A  
BRANCH   9  12
HETATM   12  O   UNL     1      -9.279  14.484  66.288  1.00  0.00    -0.268 OA 
BRANCH  12  13
HETATM   13  C   UNL     1      -9.113  15.408  67.322  1.00  0.00    -0.206 C  
HETATM   14  O   UNL     1      -9.722  15.450  68.379  1.00  0.00    -0.205 OA 
BRANCH  13  15
HETATM   15  C   UNL     1      -8.018  16.354  66.983  1.00  0.00    -0.240 A  
HETATM   16  C   UNL     1      -6.675  15.993  67.198  1.00  0.00    -0.205 A  
HETATM   17  C   UNL     1      -5.641  16.864  66.842  1.00  0.00    -0.190 A  
HETATM   18  C   UNL     1      -5.930  18.096  66.260  1.00  0.00    -0.219 A  
HETATM   19  C   UNL     1      -7.253  18.461  66.027  1.00  0.00    -0.290 A  
HETATM   20  C   UNL     1      -8.295  17.603  66.409  1.00  0.00    -0.253 A  
BRANCH  20  21
HETATM   21  O   UNL     1      -9.613  17.987  66.093  1.00  0.00    -0.454 OA 
BRANCH  21  22
HETATM   22  C   UNL     1     -10.039  19.216  66.591  1.00  0.00    -0.395 C  
HETATM   23  O   UNL     1     -10.316  20.211  65.935  1.00  0.00    -0.449 OA 
HETATM   24  C   UNL     1     -10.216  19.116  68.077  1.00  0.00    -0.489 C  
ENDBRANCH  21  22
ENDBRANCH  20  21
ENDBRANCH  13  15
ENDBRANCH  12  13
ENDBRANCH   9  12
ENDBRANCH   3   6
TORSDOF 6
ENDMDL
MODEL      104
REMARK 921   NORMALIZED FREE ENERGY PREDICTED BY IDOCK:   -4.41 KCAL/MOL
REMARK 922        TOTAL FREE ENERGY PREDICTED BY IDOCK:   -7.43 KCAL/MOL
REMARK 923 INTER-LIGAND FREE ENERGY PREDICTED BY IDOCK:   -7.02 KCAL/MOL
REMARK 924 INTRA-LIGAND FREE ENERGY PREDICTED BY IDOCK:   -0.41 KCAL/MOL
REMARK 927      BINDING AFFINITY PREDICTED BY RF-SCORE:    0.00 PKD
ROOT
HETATM    1  C   UNL     1     -13.068  15.957  73.555  1.00  0.00    -0.676 C  
HETATM    2  C   UNL     1     -12.374  15.237  72.426  1.00  0.00    -0.373 C  
HETATM    3  N   UNL     1     -13.044  14.090  72.031  1.00  0.00    -0.375 N  
HETATM    4  O   UNL     1     -11.335  15.687  71.956  1.00  0.00    -0.398 OA 
HETATM    5  H   UNL     1     -13.906  13.870  72.530  1.00  0.00     0.000 HD 
ENDROOT
BRANCH   3   6
HETATM    6  C   UNL     1     -12.657  13.193  71.008  1.00  0.00    -0.312 A  
HETATM    7  C   UNL     1     -12.651  11.805  71.165  1.00  0.00    -0.412 A  
HETATM    8  C   UNL     1     -12.287  10.960  70.116  1.00  0.00    -0.399 A  
HETATM    9  C   UNL     1     -11.945  11.490  68.877  1.00  0.00    -0.299 A  
HETATM   10  C   UNL     1     -12.263  13.722  69.771  1.00  0.00    -0.368 A  
HETATM   11  C   UNL     1     -11.901  12.876  68.711  1.00  0.00    -0.353 A  
BRANCH   9  12
HETATM   12  O   UNL     1     -11.647  10.708  67.733  1.00  0.00    -0.501 OA 
BRANCH  12  13
HETATM   13  C   UNL     1     -10.861  11.164  66.670  1.00  0.00    -0.253 C  
HETATM   14  O   UNL     1     -11.178  11.974  65.814  1.00  0.00    -0.318 OA 
BRANCH  13  15
HETATM   15  C   UNL     1      -9.511  10.549  66.740  1.00  0.00    -0.190 A  
HETATM   16  C   UNL     1      -8.370  11.355  66.911  1.00  0.00    -0.159 A  
HETATM   17  C   UNL     1      -7.102  10.775  67.019  1.00  0.00    -0.104 A  
HETATM   18  C   UNL     1      -6.956   9.392  66.968  1.00  0.00    -0.085 A  
HETATM   19  C   UNL     1      -8.076   8.579  66.814  1.00  0.00    -0.098 A  
HETATM   20  C   UNL     1      -9.348   9.158  66.677  1.00  0.00    -0.177 A  
BRANCH  20  21
HETATM   21  O   UNL     1     -10.457   8.294  66.589  1.00  0.00    -0.305 OA 
BRANCH  21  22
HETATM   22  C   UNL     1     -10.535   7.284  67.545  1.00  0.00    -0.266 C  
HETATM   23  O   UNL     1     -10.545   7.431  68.760  1.00  0.00    -0.206 OA 
HETATM   24  C   UNL     1     -10.716   5.963  66.859  1.00  0.00    -0.395 C  
ENDBRANCH  21  22
ENDBRANCH  20  21
ENDBRANCH  13  15
ENDBRANCH  12  13
ENDBRANCH   9  12
ENDBRANCH   3   6
TORSDOF 6
ENDMDL
MODEL      105
REMARK 921   NORMALIZED FREE ENERGY PREDICTED BY IDOCK:   -4.41 KCAL/MOL
REMARK 922        TOTAL FREE ENERGY PREDICTED BY IDOCK:   -7.43 KCAL/MOL
REMARK 923 INTER-LIGAND FREE ENERGY PREDICTED BY IDOCK:   -7.08 KCAL/MOL
REMARK 924 INTRA-LIGAND FREE ENERGY PREDICTED BY IDOCK:   -0.35 KCAL/MOL
REMARK 927      BINDING AFFINITY PREDICTED BY RF-SCORE:    0.00 PKD
ROOT
HETATM    1  C   UNL     1     -13.966  15.468  72.009  1.00  0.00    -0.599 C  
HETATM    2  C   UNL     1     -12.950  14.394  71.712  1.00  0.00    -0.345 C  
HETATM    3  N   UNL     1     -13.526  13.143  71.552  1.00  0.00    -0.224 N  
HETATM    4  O   UNL     1     -11.760  14.678  71.629  1.00  0.00    -0.326 OA 
HETATM    5  H   UNL     1     -14.540  13.092  71.647  1.00  0.00     0.000 HD 
ENDROOT
BRANCH   3   6
HETATM    6  C   UNL     1     -12.853  11.931  71.272  1.00  0.00    -0.290 A  
HETATM    7  C   UNL     1     -11.911  11.793  70.249  1.00  0.00    -0.429 A  
HETATM    8  C   UNL     1     -11.254  10.581  70.029  1.00  0.00    -0.386 A  
HETATM    9  C   UNL     1     -11.510   9.488  70.850  1.00  0.00    -0.334 A  
HETATM   10  C   UNL     1     -13.141  10.810  72.063  1.00  0.00    -0.476 A  
HETATM   11  C   UNL     1     -12.480   9.590  71.849  1.00  0.00    -0.465 A  
BRANCH   9  12
HETATM   12  O   UNL     1     -10.829   8.248  70.756  1.00  0.00    -0.219 OA 
BRANCH  12  13
HETATM   13  C   UNL     1     -11.480   7.019  70.625  1.00  0.00    -0.324 C  
HETATM   14  O   UNL     1     -12.469   6.639  71.232  1.00  0.00    -0.340 OA 
BRANCH  13  15
HETATM   15  C   UNL     1     -10.819   6.207  69.570  1.00  0.00    -0.428 A  
HETATM   16  C   UNL     1     -11.154   6.391  68.217  1.00  0.00    -0.359 A  
HETATM   17  C   UNL     1     -10.504   5.659  67.219  1.00  0.00    -0.322 A  
HETATM   18  C   UNL     1      -9.509   4.745  67.555  1.00  0.00    -0.171 A  
HETATM   19  C   UNL     1      -9.155   4.562  68.889  1.00  0.00    -0.171 A  
HETATM   20  C   UNL     1      -9.824   5.274  69.896  1.00  0.00    -0.211 A  
BRANCH  20  21
HETATM   21  O   UNL     1      -9.386   5.104  71.224  1.00  0.00    -0.142 OA 
BRANCH  21  22
HETATM   22  C   UNL     1      -9.854   3.975  71.893  1.00  0.00    -0.177 C  
HETATM   23  O   UNL     1      -9.935   2.841  71.438  1.00  0.00    -0.144 OA 
HETATM   24  C   UNL     1     -10.152   4.329  73.319  1.00  0.00    -0.199 C  
ENDBRANCH  21  22
ENDBRANCH  20  21
ENDBRANCH  13  15
ENDBRANCH  12  13
ENDBRANCH   9  12
ENDBRANCH   3   6
TORSDOF 6
ENDMDL
MODEL      106
REMARK 921   NORMALIZED FREE ENERGY PREDICTED BY IDOCK:   -4.39 KCAL/MOL
REMARK 922        TOTAL FREE ENERGY PREDICTED BY IDOCK:   -7.40 KCAL/MOL
REMARK 923 INTER-LIGAND FREE ENERGY PREDICTED BY IDOCK:   -7.04 KCAL/MOL
REMARK 924 INTRA-LIGAND FREE ENERGY PREDICTED BY IDOCK:   -0.37 KCAL/MOL
REMARK 927      BINDING AFFINITY PREDICTED BY RF-SCORE:    0.00 PKD
ROOT
HETATM    1  C   UNL     1     -13.656  13.357  72.324  1.00  0.00    -0.703 C  
HETATM    2  C   UNL     1     -12.976  12.179  71.673  1.00  0.00    -0.321 C  
HETATM    3  N   UNL     1     -13.323  10.971  72.258  1.00  0.00    -0.562 N  
HETATM    4  O   UNL     1     -12.216  12.353  70.727  1.00  0.00    -0.369 OA 
HETATM    5  H   UNL     1     -13.982  11.013  73.036  1.00  0.00     0.000 HD 
ENDROOT
BRANCH   3   6
HETATM    6  C   UNL     1     -12.860   9.687  71.888  1.00  0.00    -0.425 A  
HETATM    7  C   UNL     1     -13.669   8.548  71.888  1.00  0.00    -0.455 A  
HETATM    8  C   UNL     1     -13.171   7.307  71.488  1.00  0.00    -0.434 A  
HETATM    9  C   UNL     1     -11.856   7.188  71.054  1.00  0.00    -0.333 A  
HETATM   10  C   UNL     1     -11.521   9.549  71.496  1.00  0.00    -0.466 A  
HETATM   11  C   UNL     1     -11.016   8.304  71.088  1.00  0.00    -0.286 A  
BRANCH   9  12
HETATM   12  O   UNL     1     -11.291   5.990  70.549  1.00  0.00    -0.323 OA 
BRANCH  12  13
HETATM   13  C   UNL     1      -9.933   5.675  70.649  1.00  0.00    -0.200 C  
HETATM   14  O   UNL     1      -9.151   6.049  71.509  1.00  0.00    -0.143 OA 
BRANCH  13  15
HETATM   15  C   UNL     1      -9.547   4.746  69.556  1.00  0.00    -0.250 A  
HETATM   16  C   UNL     1      -9.640   3.354  69.739  1.00  0.00    -0.180 A  
HETATM   17  C   UNL     1      -9.318   2.478  68.698  1.00  0.00    -0.242 A  
HETATM   18  C   UNL     1      -8.911   2.975  67.463  1.00  0.00    -0.163 A  
HETATM   19  C   UNL     1      -8.829   4.350  67.260  1.00  0.00    -0.114 A  
HETATM   20  C   UNL     1      -9.123   5.233  68.311  1.00  0.00    -0.110 A  
BRANCH  20  21
HETATM   21  O   UNL     1      -9.090   6.615  68.039  1.00  0.00    -0.118 OA 
BRANCH  21  22
HETATM   22  C   UNL     1     -10.025   7.091  67.123  1.00  0.00    -0.189 C  
HETATM   23  O   UNL     1     -11.203   6.766  67.051  1.00  0.00    -0.393 OA 
HETATM   24  C   UNL     1      -9.398   8.164  66.284  1.00  0.00    -0.259 C  
ENDBRANCH  21  22
ENDBRANCH  20  21
ENDBRANCH  13  15
ENDBRANCH  12  13
ENDBRANCH   9  12
ENDBRANCH   3   6
TORSDOF 6
ENDMDL
MODEL      107
REMARK 921   NORMALIZED FREE ENERGY PREDICTED BY IDOCK:   -4.37 KCAL/MOL
REMARK 922        TOTAL FREE ENERGY PREDICTED BY IDOCK:   -7.38 KCAL/MOL
REMARK 923 INTER-LIGAND FREE ENERGY PREDICTED BY IDOCK:   -6.49 KCAL/MOL
REMARK 924 INTRA-LIGAND FREE ENERGY PREDICTED BY IDOCK:   -0.90 KCAL/MOL
REMARK 927      BINDING AFFINITY PREDICTED BY RF-SCORE:    0.00 PKD
ROOT
HETATM    1  C   UNL     1      -9.531   4.657  65.593  1.00  0.00    -0.178 C  
HETATM    2  C   UNL     1      -9.156   6.021  66.115  1.00  0.00    -0.147 C  
HETATM    3  N   UNL     1     -10.258   6.840  66.307  1.00  0.00    -0.437 N  
HETATM    4  O   UNL     1      -7.982   6.297  66.330  1.00  0.00    -0.105 OA 
HETATM    5  H   UNL     1     -11.169   6.440  66.083  1.00  0.00     0.000 HD 
ENDROOT
BRANCH   3   6
HETATM    6  C   UNL     1     -10.250   8.174  66.780  1.00  0.00    -0.302 A  
HETATM    7  C   UNL     1      -9.899   9.268  65.986  1.00  0.00    -0.363 A  
HETATM    8  C   UNL     1      -9.933  10.569  66.492  1.00  0.00    -0.266 A  
HETATM    9  C   UNL     1     -10.346  10.800  67.799  1.00  0.00    -0.193 A  
HETATM   10  C   UNL     1     -10.618   8.411  68.112  1.00  0.00    -0.175 A  
HETATM   11  C   UNL     1     -10.658   9.717  68.624  1.00  0.00    -0.249 A  
BRANCH   9  12
HETATM   12  O   UNL     1     -10.495  12.090  68.369  1.00  0.00    -0.206 OA 
BRANCH  12  13
HETATM   13  C   UNL     1     -11.606  12.908  68.147  1.00  0.00    -0.336 C  
HETATM   14  O   UNL     1     -12.394  12.845  67.216  1.00  0.00    -0.312 OA 
BRANCH  13  15
HETATM   15  C   UNL     1     -11.746  13.883  69.259  1.00  0.00    -0.381 A  
HETATM   16  C   UNL     1     -12.337  13.494  70.475  1.00  0.00    -0.412 A  
HETATM   17  C   UNL     1     -12.433  14.397  71.538  1.00  0.00    -0.430 A  
HETATM   18  C   UNL     1     -11.933  15.690  71.408  1.00  0.00    -0.476 A  
HETATM   19  C   UNL     1     -11.332  16.086  70.217  1.00  0.00    -0.391 A  
HETATM   20  C   UNL     1     -11.259  15.192  69.137  1.00  0.00    -0.279 A  
BRANCH  20  21
HETATM   21  O   UNL     1     -10.583  15.617  67.976  1.00  0.00    -0.256 OA 
BRANCH  21  22
HETATM   22  C   UNL     1      -9.193  15.548  68.006  1.00  0.00    -0.187 C  
HETATM   23  O   UNL     1      -8.515  14.820  68.720  1.00  0.00    -0.161 OA 
HETATM   24  C   UNL     1      -8.627  16.439  66.941  1.00  0.00    -0.245 C  
ENDBRANCH  21  22
ENDBRANCH  20  21
ENDBRANCH  13  15
ENDBRANCH  12  13
ENDBRANCH   9  12
ENDBRANCH   3   6
TORSDOF 6
ENDMDL
MODEL      108
REMARK 921   NORMALIZED FREE ENERGY PREDICTED BY IDOCK:   -4.36 KCAL/MOL
REMARK 922        TOTAL FREE ENERGY PREDICTED BY IDOCK:   -7.37 KCAL/MOL
REMARK 923 INTER-LIGAND FREE ENERGY PREDICTED BY IDOCK:   -6.51 KCAL/MOL
REMARK 924 INTRA-LIGAND FREE ENERGY PREDICTED BY IDOCK:   -0.86 KCAL/MOL
REMARK 927      BINDING AFFINITY PREDICTED BY RF-SCORE:    0.00 PKD
ROOT
HETATM    1  C   UNL     1     -13.782  16.041  73.052  1.00  0.00    -0.470 C  
HETATM    2  C   UNL     1     -12.865  14.968  72.522  1.00  0.00    -0.357 C  
HETATM    3  N   UNL     1     -13.556  13.891  71.989  1.00  0.00    -0.434 N  
HETATM    4  O   UNL     1     -11.650  15.111  72.586  1.00  0.00    -0.412 OA 
HETATM    5  H   UNL     1     -14.574  13.945  72.012  1.00  0.00     0.000 HD 
ENDROOT
BRANCH   3   6
HETATM    6  C   UNL     1     -12.995  12.724  71.418  1.00  0.00    -0.266 A  
HETATM    7  C   UNL     1     -12.164  12.742  70.295  1.00  0.00    -0.351 A  
HETATM    8  C   UNL     1     -11.613  11.565  69.785  1.00  0.00    -0.401 A  
HETATM    9  C   UNL     1     -11.864  10.348  70.408  1.00  0.00    -0.328 A  
HETATM   10  C   UNL     1     -13.283  11.487  72.011  1.00  0.00    -0.443 A  
HETATM   11  C   UNL     1     -12.727  10.302  71.504  1.00  0.00    -0.557 A  
BRANCH   9  12
HETATM   12  O   UNL     1     -11.279   9.118  70.013  1.00  0.00    -0.231 OA 
BRANCH  12  13
HETATM   13  C   UNL     1      -9.901   8.925  69.885  1.00  0.00    -0.182 C  
HETATM   14  O   UNL     1      -9.025   9.365  70.611  1.00  0.00    -0.238 OA 
BRANCH  13  15
HETATM   15  C   UNL     1      -9.621   8.036  68.728  1.00  0.00    -0.149 A  
HETATM   16  C   UNL     1      -9.019   6.779  68.926  1.00  0.00    -0.131 A  
HETATM   17  C   UNL     1      -8.792   5.923  67.845  1.00  0.00    -0.105 A  
HETATM   18  C   UNL     1      -9.170   6.301  66.559  1.00  0.00    -0.169 A  
HETATM   19  C   UNL     1      -9.781   7.534  66.348  1.00  0.00    -0.180 A  
HETATM   20  C   UNL     1      -9.985   8.409  67.426  1.00  0.00    -0.212 A  
BRANCH  20  21
HETATM   21  O   UNL     1     -10.666   9.616  67.174  1.00  0.00    -0.250 OA 
BRANCH  21  22
HETATM   22  C   UNL     1      -9.914  10.650  66.622  1.00  0.00    -0.212 C  
HETATM   23  O   UNL     1      -8.836  11.064  67.029  1.00  0.00    -0.139 OA 
HETATM   24  C   UNL     1     -10.574  11.128  65.363  1.00  0.00    -0.291 C  
ENDBRANCH  21  22
ENDBRANCH  20  21
ENDBRANCH  13  15
ENDBRANCH  12  13
ENDBRANCH   9  12
ENDBRANCH   3   6
TORSDOF 6
ENDMDL
MODEL      109
REMARK 921   NORMALIZED FREE ENERGY PREDICTED BY IDOCK:   -4.36 KCAL/MOL
REMARK 922        TOTAL FREE ENERGY PREDICTED BY IDOCK:   -7.37 KCAL/MOL
REMARK 923 INTER-LIGAND FREE ENERGY PREDICTED BY IDOCK:   -6.23 KCAL/MOL
REMARK 924 INTRA-LIGAND FREE ENERGY PREDICTED BY IDOCK:   -1.14 KCAL/MOL
REMARK 927      BINDING AFFINITY PREDICTED BY RF-SCORE:    0.00 PKD
ROOT
HETATM    1  C   UNL     1     -10.594  19.929  65.846  1.00  0.00    -0.523 C  
HETATM    2  C   UNL     1     -10.256  18.477  66.076  1.00  0.00    -0.345 C  
HETATM    3  N   UNL     1      -9.369  18.296  67.126  1.00  0.00    -0.259 N  
HETATM    4  O   UNL     1     -10.758  17.609  65.372  1.00  0.00    -0.618 OA 
HETATM    5  H   UNL     1      -9.058  19.137  67.612  1.00  0.00     0.000 HD 
ENDROOT
BRANCH   3   6
HETATM    6  C   UNL     1      -8.851  17.065  67.594  1.00  0.00    -0.220 A  
HETATM    7  C   UNL     1      -9.104  16.561  68.872  1.00  0.00    -0.245 A  
HETATM    8  C   UNL     1      -8.592  15.328  69.278  1.00  0.00    -0.236 A  
HETATM    9  C   UNL     1      -7.836  14.561  68.398  1.00  0.00    -0.135 A  
HETATM   10  C   UNL     1      -8.048  16.309  66.730  1.00  0.00    -0.299 A  
HETATM   11  C   UNL     1      -7.534  15.065  67.131  1.00  0.00    -0.145 A  
BRANCH   9  12
HETATM   12  O   UNL     1      -7.350  13.262  68.692  1.00  0.00    -0.104 OA 
BRANCH  12  13
HETATM   13  C   UNL     1      -7.528  12.162  67.848  1.00  0.00    -0.117 C  
HETATM   14  O   UNL     1      -6.810  11.821  66.922  1.00  0.00    -0.142 OA 
BRANCH  13  15
HETATM   15  C   UNL     1      -8.729  11.394  68.265  1.00  0.00    -0.160 A  
HETATM   16  C   UNL     1      -8.693  10.588  69.417  1.00  0.00    -0.093 A  
HETATM   17  C   UNL     1      -9.835   9.897  69.835  1.00  0.00    -0.285 A  
HETATM   18  C   UNL     1     -11.024  10.008  69.120  1.00  0.00    -0.256 A  
HETATM   19  C   UNL     1     -11.080  10.815  67.986  1.00  0.00    -0.359 A  
HETATM   20  C   UNL     1      -9.930  11.487  67.547  1.00  0.00    -0.190 A  
BRANCH  20  21
HETATM   21  O   UNL     1     -10.053  12.343  66.434  1.00  0.00    -0.227 OA 
BRANCH  21  22
HETATM   22  C   UNL     1     -11.304  12.917  66.227  1.00  0.00    -0.323 C  
HETATM   23  O   UNL     1     -12.263  12.394  65.673  1.00  0.00    -0.599 OA 
HETATM   24  C   UNL     1     -11.350  14.262  66.888  1.00  0.00    -0.354 C  
ENDBRANCH  21  22
ENDBRANCH  20  21
ENDBRANCH  13  15
ENDBRANCH  12  13
ENDBRANCH   9  12
ENDBRANCH   3   6
TORSDOF 6
ENDMDL
MODEL      110
REMARK 921   NORMALIZED FREE ENERGY PREDICTED BY IDOCK:   -4.36 KCAL/MOL
REMARK 922        TOTAL FREE ENERGY PREDICTED BY IDOCK:   -7.36 KCAL/MOL
REMARK 923 INTER-LIGAND FREE ENERGY PREDICTED BY IDOCK:   -6.57 KCAL/MOL
REMARK 924 INTRA-LIGAND FREE ENERGY PREDICTED BY IDOCK:   -0.79 KCAL/MOL
REMARK 927      BINDING AFFINITY PREDICTED BY RF-SCORE:    0.00 PKD
ROOT
HETATM    1  C   UNL     1      -9.665  10.709  63.901  1.00  0.00    -0.378 C  
HETATM    2  C   UNL     1     -10.158  10.309  65.268  1.00  0.00    -0.289 C  
HETATM    3  N   UNL     1      -9.803   9.012  65.605  1.00  0.00    -0.465 N  
HETATM    4  O   UNL     1     -10.791  11.105  65.952  1.00  0.00    -0.240 OA 
HETATM    5  H   UNL     1      -9.264   8.491  64.913  1.00  0.00     0.000 HD 
ENDROOT
BRANCH   3   6
HETATM    6  C   UNL     1     -10.113   8.334  66.808  1.00  0.00    -0.303 A  
HETATM    7  C   UNL     1     -10.083   8.946  68.064  1.00  0.00    -0.239 A  
HETATM    8  C   UNL     1     -10.423   8.240  69.219  1.00  0.00    -0.218 A  
HETATM    9  C   UNL     1     -10.827   6.912  69.135  1.00  0.00    -0.228 A  
HETATM   10  C   UNL     1     -10.473   6.981  66.737  1.00  0.00    -0.297 A  
HETATM   11  C   UNL     1     -10.821   6.269  67.896  1.00  0.00    -0.417 A  
BRANCH   9  12
HETATM   12  O   UNL     1     -11.272   6.146  70.241  1.00  0.00    -0.343 OA 
BRANCH  12  13
HETATM   13  C   UNL     1     -11.812   6.707  71.402  1.00  0.00    -0.337 C  
HETATM   14  O   UNL     1     -12.959   7.091  71.570  1.00  0.00    -0.382 OA 
BRANCH  13  15
HETATM   15  C   UNL     1     -10.784   6.738  72.474  1.00  0.00    -0.261 A  
HETATM   16  C   UNL     1      -9.979   7.877  72.654  1.00  0.00    -0.330 A  
HETATM   17  C   UNL     1      -9.039   7.925  73.688  1.00  0.00    -0.337 A  
HETATM   18  C   UNL     1      -8.898   6.848  74.559  1.00  0.00    -0.221 A  
HETATM   19  C   UNL     1      -9.697   5.719  74.403  1.00  0.00    -0.210 A  
HETATM   20  C   UNL     1     -10.621   5.655  73.349  1.00  0.00    -0.258 A  
BRANCH  20  21
HETATM   21  O   UNL     1     -11.453   4.520  73.272  1.00  0.00    -0.297 OA 
BRANCH  21  22
HETATM   22  C   UNL     1     -10.819   3.281  73.310  1.00  0.00    -0.180 C  
HETATM   23  O   UNL     1     -10.892   2.453  74.210  1.00  0.00    -0.160 OA 
HETATM   24  C   UNL     1     -10.100   3.050  72.015  1.00  0.00    -0.180 C  
ENDBRANCH  21  22
ENDBRANCH  20  21
ENDBRANCH  13  15
ENDBRANCH  12  13
ENDBRANCH   9  12
ENDBRANCH   3   6
TORSDOF 6
ENDMDL
MODEL      111
REMARK 921   NORMALIZED FREE ENERGY PREDICTED BY IDOCK:   -4.35 KCAL/MOL
REMARK 922        TOTAL FREE ENERGY PREDICTED BY IDOCK:   -7.35 KCAL/MOL
REMARK 923 INTER-LIGAND FREE ENERGY PREDICTED BY IDOCK:   -6.57 KCAL/MOL
REMARK 924 INTRA-LIGAND FREE ENERGY PREDICTED BY IDOCK:   -0.79 KCAL/MOL
REMARK 927      BINDING AFFINITY PREDICTED BY RF-SCORE:    0.00 PKD
ROOT
HETATM    1  C   UNL     1     -12.689  15.927  73.788  1.00  0.00    -0.729 C  
HETATM    2  C   UNL     1     -12.264  15.565  72.387  1.00  0.00    -0.414 C  
HETATM    3  N   UNL     1     -12.555  14.249  72.064  1.00  0.00    -0.323 N  
HETATM    4  O   UNL     1     -11.731  16.403  71.670  1.00  0.00    -0.465 OA 
HETATM    5  H   UNL     1     -13.012  13.692  72.786  1.00  0.00     0.000 HD 
ENDROOT
BRANCH   3   6
HETATM    6  C   UNL     1     -12.283  13.597  70.838  1.00  0.00    -0.328 A  
HETATM    7  C   UNL     1     -12.086  12.219  70.728  1.00  0.00    -0.259 A  
HETATM    8  C   UNL     1     -11.847  11.620  69.489  1.00  0.00    -0.414 A  
HETATM    9  C   UNL     1     -11.828  12.390  68.332  1.00  0.00    -0.309 A  
HETATM   10  C   UNL     1     -12.212  14.374  69.673  1.00  0.00    -0.353 A  
HETATM   11  C   UNL     1     -11.978  13.775  68.425  1.00  0.00    -0.395 A  
BRANCH   9  12
HETATM   12  O   UNL     1     -11.680  11.858  67.026  1.00  0.00    -0.538 OA 
BRANCH  12  13
HETATM   13  C   UNL     1     -10.444  11.702  66.392  1.00  0.00    -0.244 C  
HETATM   14  O   UNL     1      -9.884  12.506  65.664  1.00  0.00    -0.262 OA 
BRANCH  13  15
HETATM   15  C   UNL     1      -9.845  10.396  66.766  1.00  0.00    -0.242 A  
HETATM   16  C   UNL     1     -10.225   9.220  66.093  1.00  0.00    -0.229 A  
HETATM   17  C   UNL     1      -9.632   7.996  66.415  1.00  0.00    -0.267 A  
HETATM   18  C   UNL     1      -8.649   7.928  67.398  1.00  0.00    -0.125 A  
HETATM   19  C   UNL     1      -8.250   9.085  68.063  1.00  0.00    -0.110 A  
HETATM   20  C   UNL     1      -8.863  10.312  67.764  1.00  0.00    -0.125 A  
BRANCH  20  21
HETATM   21  O   UNL     1      -8.381  11.464  68.415  1.00  0.00    -0.141 OA 
BRANCH  21  22
HETATM   22  C   UNL     1      -7.103  11.889  68.060  1.00  0.00    -0.084 C  
HETATM   23  O   UNL     1      -6.701  12.120  66.927  1.00  0.00    -0.110 OA 
HETATM   24  C   UNL     1      -6.297  12.132  69.301  1.00  0.00    -0.103 C  
ENDBRANCH  21  22
ENDBRANCH  20  21
ENDBRANCH  13  15
ENDBRANCH  12  13
ENDBRANCH   9  12
ENDBRANCH   3   6
TORSDOF 6
ENDMDL
MODEL      112
REMARK 921   NORMALIZED FREE ENERGY PREDICTED BY IDOCK:   -4.35 KCAL/MOL
REMARK 922        TOTAL FREE ENERGY PREDICTED BY IDOCK:   -7.35 KCAL/MOL
REMARK 923 INTER-LIGAND FREE ENERGY PREDICTED BY IDOCK:   -6.53 KCAL/MOL
REMARK 924 INTRA-LIGAND FREE ENERGY PREDICTED BY IDOCK:   -0.81 KCAL/MOL
REMARK 927      BINDING AFFINITY PREDICTED BY RF-SCORE:    0.00 PKD
ROOT
HETATM    1  C   UNL     1      -9.205   5.909  66.493  1.00  0.00    -0.154 C  
HETATM    2  C   UNL     1      -9.907   7.239  66.599  1.00  0.00    -0.187 C  
HETATM    3  N   UNL     1      -9.146   8.286  66.105  1.00  0.00    -0.183 N  
HETATM    4  O   UNL     1     -11.034   7.303  67.077  1.00  0.00    -0.358 OA 
HETATM    5  H   UNL     1      -8.226   8.047  65.734  1.00  0.00     0.000 HD 
ENDROOT
BRANCH   3   6
HETATM    6  C   UNL     1      -9.511   9.652  66.062  1.00  0.00    -0.225 A  
HETATM    7  C   UNL     1      -9.508  10.484  67.185  1.00  0.00    -0.182 A  
HETATM    8  C   UNL     1      -9.851  11.833  67.085  1.00  0.00    -0.207 A  
HETATM    9  C   UNL     1     -10.178  12.383  65.851  1.00  0.00    -0.251 A  
HETATM   10  C   UNL     1      -9.890  10.202  64.830  1.00  0.00    -0.382 A  
HETATM   11  C   UNL     1     -10.230  11.560  64.724  1.00  0.00    -0.331 A  
BRANCH   9  12
HETATM   12  O   UNL     1     -10.453  13.758  65.641  1.00  0.00    -0.287 OA 
BRANCH  12  13
HETATM   13  C   UNL     1     -11.498  14.440  66.270  1.00  0.00    -0.359 C  
HETATM   14  O   UNL     1     -12.671  14.105  66.321  1.00  0.00    -0.401 OA 
BRANCH  13  15
HETATM   15  C   UNL     1     -10.976  15.658  66.942  1.00  0.00    -0.243 A  
HETATM   16  C   UNL     1     -10.743  16.832  66.203  1.00  0.00    -0.116 A  
HETATM   17  C   UNL     1     -10.291  17.992  66.840  1.00  0.00    -0.377 A  
HETATM   18  C   UNL     1     -10.076  18.000  68.215  1.00  0.00    -0.390 A  
HETATM   19  C   UNL     1     -10.316  16.850  68.963  1.00  0.00    -0.333 A  
HETATM   20  C   UNL     1     -10.742  15.675  68.324  1.00  0.00    -0.283 A  
BRANCH  20  21
HETATM   21  O   UNL     1     -11.035  14.557  69.130  1.00  0.00    -0.252 OA 
BRANCH  21  22
HETATM   22  C   UNL     1     -12.139  14.670  69.971  1.00  0.00    -0.329 C  
HETATM   23  O   UNL     1     -12.874  15.642  70.081  1.00  0.00    -0.280 OA 
HETATM   24  C   UNL     1     -12.370  13.361  70.666  1.00  0.00    -0.423 C  
ENDBRANCH  21  22
ENDBRANCH  20  21
ENDBRANCH  13  15
ENDBRANCH  12  13
ENDBRANCH   9  12
ENDBRANCH   3   6
TORSDOF 6
ENDMDL
MODEL      113
REMARK 921   NORMALIZED FREE ENERGY PREDICTED BY IDOCK:   -4.31 KCAL/MOL
REMARK 922        TOTAL FREE ENERGY PREDICTED BY IDOCK:   -7.30 KCAL/MOL
REMARK 923 INTER-LIGAND FREE ENERGY PREDICTED BY IDOCK:   -6.31 KCAL/MOL
REMARK 924 INTRA-LIGAND FREE ENERGY PREDICTED BY IDOCK:   -0.99 KCAL/MOL
REMARK 927      BINDING AFFINITY PREDICTED BY RF-SCORE:    0.00 PKD
ROOT
HETATM    1  C   UNL     1     -13.268  15.480  71.369  1.00  0.00    -0.587 C  
HETATM    2  C   UNL     1     -12.691  14.515  70.365  1.00  0.00    -0.322 C  
HETATM    3  N   UNL     1     -12.305  15.136  69.188  1.00  0.00    -0.592 N  
HETATM    4  O   UNL     1     -12.599  13.324  70.639  1.00  0.00    -0.300 OA 
HETATM    5  H   UNL     1     -12.447  16.144  69.135  1.00  0.00     0.000 HD 
ENDROOT
BRANCH   3   6
HETATM    6  C   UNL     1     -11.734  14.516  68.051  1.00  0.00    -0.342 A  
HETATM    7  C   UNL     1     -12.469  13.746  67.146  1.00  0.00    -0.086 A  
HETATM    8  C   UNL     1     -11.864  13.177  66.023  1.00  0.00    -0.457 A  
HETATM    9  C   UNL     1     -10.514  13.392  65.772  1.00  0.00    -0.290 A  
HETATM   10  C   UNL     1     -10.363  14.687  67.817  1.00  0.00    -0.237 A  
HETATM   11  C   UNL     1      -9.751  14.122  66.687  1.00  0.00    -0.297 A  
BRANCH   9  12
HETATM   12  O   UNL     1      -9.837  12.928  64.615  1.00  0.00    -0.158 OA 
BRANCH  12  13
HETATM   13  C   UNL     1     -10.292  11.866  63.829  1.00  0.00    -0.415 C  
HETATM   14  O   UNL     1     -11.366  11.782  63.254  1.00  0.00    -0.359 OA 
BRANCH  13  15
HETATM   15  C   UNL     1      -9.241  10.821  63.735  1.00  0.00    -0.266 A  
HETATM   16  C   UNL     1      -8.241  10.905  62.749  1.00  0.00    -0.103 A  
HETATM   17  C   UNL     1      -7.226   9.946  62.684  1.00  0.00    -0.122 A  
HETATM   18  C   UNL     1      -7.188   8.900  63.602  1.00  0.00    -0.093 A  
HETATM   19  C   UNL     1      -8.162   8.811  64.594  1.00  0.00    -0.166 A  
HETATM   20  C   UNL     1      -9.198   9.755  64.645  1.00  0.00    -0.255 A  
BRANCH  20  21
HETATM   21  O   UNL     1     -10.122   9.662  65.706  1.00  0.00    -0.290 OA 
BRANCH  21  22
HETATM   22  C   UNL     1      -9.649   9.995  66.972  1.00  0.00    -0.172 C  
HETATM   23  O   UNL     1      -8.879  10.907  67.245  1.00  0.00    -0.134 OA 
HETATM   24  C   UNL     1     -10.315   9.126  67.997  1.00  0.00    -0.272 C  
ENDBRANCH  21  22
ENDBRANCH  20  21
ENDBRANCH  13  15
ENDBRANCH  12  13
ENDBRANCH   9  12
ENDBRANCH   3   6
TORSDOF 6
ENDMDL
MODEL      114
REMARK 921   NORMALIZED FREE ENERGY PREDICTED BY IDOCK:   -4.30 KCAL/MOL
REMARK 922        TOTAL FREE ENERGY PREDICTED BY IDOCK:   -7.29 KCAL/MOL
REMARK 923 INTER-LIGAND FREE ENERGY PREDICTED BY IDOCK:   -7.17 KCAL/MOL
REMARK 924 INTRA-LIGAND FREE ENERGY PREDICTED BY IDOCK:   -0.12 KCAL/MOL
REMARK 927      BINDING AFFINITY PREDICTED BY RF-SCORE:    0.00 PKD
ROOT
HETATM    1  C   UNL     1     -12.526  15.146  74.382  1.00  0.00    -0.557 C  
HETATM    2  C   UNL     1     -12.827  14.716  72.969  1.00  0.00    -0.474 C  
HETATM    3  N   UNL     1     -11.849  15.112  72.070  1.00  0.00    -0.395 N  
HETATM    4  O   UNL     1     -13.845  14.080  72.722  1.00  0.00    -0.674 OA 
HETATM    5  H   UNL     1     -11.059  15.631  72.454  1.00  0.00     0.000 HD 
ENDROOT
BRANCH   3   6
HETATM    6  C   UNL     1     -11.833  14.873  70.676  1.00  0.00    -0.301 A  
HETATM    7  C   UNL     1     -12.037  13.612  70.110  1.00  0.00    -0.431 A  
HETATM    8  C   UNL     1     -12.038  13.432  68.726  1.00  0.00    -0.281 A  
HETATM    9  C   UNL     1     -11.861  14.521  67.879  1.00  0.00    -0.336 A  
HETATM   10  C   UNL     1     -11.606  15.957  69.816  1.00  0.00    -0.340 A  
HETATM   11  C   UNL     1     -11.611  15.782  68.423  1.00  0.00    -0.343 A  
BRANCH   9  12
HETATM   12  O   UNL     1     -11.933  14.447  66.465  1.00  0.00    -0.404 OA 
BRANCH  12  13
HETATM   13  C   UNL     1     -10.918  13.914  65.667  1.00  0.00    -0.290 C  
HETATM   14  O   UNL     1     -11.047  13.317  64.610  1.00  0.00    -0.324 OA 
BRANCH  13  15
HETATM   15  C   UNL     1      -9.592  14.219  66.265  1.00  0.00    -0.310 A  
HETATM   16  C   UNL     1      -9.217  15.551  66.522  1.00  0.00    -0.324 A  
HETATM   17  C   UNL     1      -7.988  15.838  67.123  1.00  0.00    -0.250 A  
HETATM   18  C   UNL     1      -7.125  14.807  67.485  1.00  0.00    -0.209 A  
HETATM   19  C   UNL     1      -7.488  13.483  67.252  1.00  0.00    -0.056 A  
HETATM   20  C   UNL     1      -8.708  13.191  66.622  1.00  0.00    -0.004 A  
BRANCH  20  21
HETATM   21  O   UNL     1      -9.061  11.836  66.467  1.00  0.00    -0.194 OA 
BRANCH  21  22
HETATM   22  C   UNL     1      -9.581  11.197  67.590  1.00  0.00    -0.170 C  
HETATM   23  O   UNL     1      -9.159  11.279  68.735  1.00  0.00    -0.174 OA 
HETATM   24  C   UNL     1     -10.829  10.458  67.207  1.00  0.00    -0.324 C  
ENDBRANCH  21  22
ENDBRANCH  20  21
ENDBRANCH  13  15
ENDBRANCH  12  13
ENDBRANCH   9  12
ENDBRANCH   3   6
TORSDOF 6
ENDMDL
MODEL      115
REMARK 921   NORMALIZED FREE ENERGY PREDICTED BY IDOCK:   -4.30 KCAL/MOL
REMARK 922        TOTAL FREE ENERGY PREDICTED BY IDOCK:   -7.28 KCAL/MOL
REMARK 923 INTER-LIGAND FREE ENERGY PREDICTED BY IDOCK:   -6.26 KCAL/MOL
REMARK 924 INTRA-LIGAND FREE ENERGY PREDICTED BY IDOCK:   -1.02 KCAL/MOL
REMARK 927      BINDING AFFINITY PREDICTED BY RF-SCORE:    0.00 PKD
ROOT
HETATM    1  C   UNL     1      -7.911   7.648  62.799  1.00  0.00    -0.130 C  
HETATM    2  C   UNL     1      -8.518   8.550  63.842  1.00  0.00    -0.023 C  
HETATM    3  N   UNL     1      -8.483   7.998  65.113  1.00  0.00    -0.280 N  
HETATM    4  O   UNL     1      -8.968   9.645  63.523  1.00  0.00    -0.234 OA 
HETATM    5  H   UNL     1      -8.060   7.073  65.197  1.00  0.00     0.000 HD 
ENDROOT
BRANCH   3   6
HETATM    6  C   UNL     1      -8.972   8.582  66.305  1.00  0.00    -0.168 A  
HETATM    7  C   UNL     1     -10.316   8.904  66.508  1.00  0.00    -0.267 A  
HETATM    8  C   UNL     1     -10.753   9.455  67.714  1.00  0.00    -0.290 A  
HETATM    9  C   UNL     1      -9.854   9.669  68.752  1.00  0.00    -0.165 A  
HETATM   10  C   UNL     1      -8.062   8.847  67.339  1.00  0.00    -0.108 A  
HETATM   11  C   UNL     1      -8.498   9.396  68.555  1.00  0.00    -0.119 A  
BRANCH   9  12
HETATM   12  O   UNL     1     -10.221  10.141  70.037  1.00  0.00    -0.254 OA 
BRANCH  12  13
HETATM   13  C   UNL     1     -10.267   9.330  71.174  1.00  0.00    -0.317 C  
HETATM   14  O   UNL     1      -9.346   9.071  71.932  1.00  0.00    -0.341 OA 
BRANCH  13  15
HETATM   15  C   UNL     1     -11.650   8.832  71.384  1.00  0.00    -0.366 A  
HETATM   16  C   UNL     1     -12.721   9.737  71.507  1.00  0.00    -0.504 A  
HETATM   17  C   UNL     1     -14.029   9.271  71.664  1.00  0.00    -0.299 A  
HETATM   18  C   UNL     1     -14.289   7.903  71.689  1.00  0.00    -0.595 A  
HETATM   19  C   UNL     1     -13.243   6.994  71.553  1.00  0.00    -0.382 A  
HETATM   20  C   UNL     1     -11.925   7.457  71.425  1.00  0.00    -0.310 A  
BRANCH  20  21
HETATM   21  O   UNL     1     -10.908   6.502  71.224  1.00  0.00    -0.233 OA 
BRANCH  21  22
HETATM   22  C   UNL     1     -10.751   6.026  69.925  1.00  0.00    -0.325 C  
HETATM   23  O   UNL     1     -11.437   6.318  68.955  1.00  0.00    -0.331 OA 
HETATM   24  C   UNL     1      -9.526   5.164  69.856  1.00  0.00    -0.221 C  
ENDBRANCH  21  22
ENDBRANCH  20  21
ENDBRANCH  13  15
ENDBRANCH  12  13
ENDBRANCH   9  12
ENDBRANCH   3   6
TORSDOF 6
ENDMDL
MODEL      116
REMARK 921   NORMALIZED FREE ENERGY PREDICTED BY IDOCK:   -4.29 KCAL/MOL
REMARK 922        TOTAL FREE ENERGY PREDICTED BY IDOCK:   -7.27 KCAL/MOL
REMARK 923 INTER-LIGAND FREE ENERGY PREDICTED BY IDOCK:   -6.60 KCAL/MOL
REMARK 924 INTRA-LIGAND FREE ENERGY PREDICTED BY IDOCK:   -0.66 KCAL/MOL
REMARK 927      BINDING AFFINITY PREDICTED BY RF-SCORE:    0.00 PKD
ROOT
HETATM    1  C   UNL     1      -9.796   6.532  66.813  1.00  0.00    -0.213 C  
HETATM    2  C   UNL     1     -10.190   7.987  66.773  1.00  0.00    -0.297 C  
HETATM    3  N   UNL     1      -9.572   8.679  65.743  1.00  0.00    -0.457 N  
HETATM    4  O   UNL     1     -10.983   8.433  67.593  1.00  0.00    -0.084 OA 
HETATM    5  H   UNL     1      -8.943   8.144  65.145  1.00  0.00     0.000 HD 
ENDROOT
BRANCH   3   6
HETATM    6  C   UNL     1      -9.723  10.052  65.435  1.00  0.00    -0.302 A  
HETATM    7  C   UNL     1     -10.343  10.515  64.272  1.00  0.00    -0.208 A  
HETATM    8  C   UNL     1     -10.491  11.881  64.027  1.00  0.00    -0.417 A  
HETATM    9  C   UNL     1     -10.044  12.812  64.958  1.00  0.00    -0.218 A  
HETATM   10  C   UNL     1      -9.230  10.997  66.346  1.00  0.00    -0.192 A  
HETATM   11  C   UNL     1      -9.381  12.372  66.106  1.00  0.00    -0.155 A  
BRANCH   9  12
HETATM   12  O   UNL     1     -10.229  14.212  64.834  1.00  0.00    -0.412 OA 
BRANCH  12  13
HETATM   13  C   UNL     1     -11.397  14.873  65.224  1.00  0.00    -0.358 C  
HETATM   14  O   UNL     1     -12.269  15.320  64.496  1.00  0.00    -0.341 OA 
BRANCH  13  15
HETATM   15  C   UNL     1     -11.476  14.928  66.707  1.00  0.00    -0.304 A  
HETATM   16  C   UNL     1     -12.168  13.932  67.419  1.00  0.00    -0.291 A  
HETATM   17  C   UNL     1     -12.209  13.958  68.816  1.00  0.00    -0.232 A  
HETATM   18  C   UNL     1     -11.554  14.967  69.519  1.00  0.00    -0.333 A  
HETATM   19  C   UNL     1     -10.852  15.951  68.829  1.00  0.00    -0.284 A  
HETATM   20  C   UNL     1     -10.833  15.945  67.426  1.00  0.00    -0.291 A  
BRANCH  20  21
HETATM   21  O   UNL     1     -10.055  16.923  66.775  1.00  0.00    -0.275 OA 
BRANCH  21  22
HETATM   22  C   UNL     1     -10.411  18.251  66.998  1.00  0.00    -0.389 C  
HETATM   23  O   UNL     1     -10.281  18.873  68.045  1.00  0.00    -0.354 OA 
HETATM   24  C   UNL     1     -10.890  18.860  65.715  1.00  0.00    -0.198 C  
ENDBRANCH  21  22
ENDBRANCH  20  21
ENDBRANCH  13  15
ENDBRANCH  12  13
ENDBRANCH   9  12
ENDBRANCH   3   6
TORSDOF 6
ENDMDL
MODEL      117
REMARK 921   NORMALIZED FREE ENERGY PREDICTED BY IDOCK:   -4.29 KCAL/MOL
REMARK 922        TOTAL FREE ENERGY PREDICTED BY IDOCK:   -7.27 KCAL/MOL
REMARK 923 INTER-LIGAND FREE ENERGY PREDICTED BY IDOCK:   -6.13 KCAL/MOL
REMARK 924 INTRA-LIGAND FREE ENERGY PREDICTED BY IDOCK:   -1.13 KCAL/MOL
REMARK 927      BINDING AFFINITY PREDICTED BY RF-SCORE:    0.00 PKD
ROOT
HETATM    1  C   UNL     1     -12.206  13.433  63.417  1.00  0.00    -0.419 C  
HETATM    2  C   UNL     1     -11.336  13.115  64.607  1.00  0.00    -0.333 C  
HETATM    3  N   UNL     1     -11.946  12.247  65.498  1.00  0.00    -0.386 N  
HETATM    4  O   UNL     1     -10.217  13.607  64.700  1.00  0.00    -0.404 OA 
HETATM    5  H   UNL     1     -12.884  11.927  65.256  1.00  0.00     0.000 HD 
ENDROOT
BRANCH   3   6
HETATM    6  C   UNL     1     -11.403  11.757  66.710  1.00  0.00    -0.320 A  
HETATM    7  C   UNL     1     -11.686  12.314  67.959  1.00  0.00    -0.417 A  
HETATM    8  C   UNL     1     -11.146  11.777  69.129  1.00  0.00    -0.294 A  
HETATM    9  C   UNL     1     -10.331  10.652  69.071  1.00  0.00    -0.218 A  
HETATM   10  C   UNL     1     -10.541  10.653  66.655  1.00  0.00    -0.276 A  
HETATM   11  C   UNL     1     -10.000  10.106  67.829  1.00  0.00    -0.198 A  
BRANCH   9  12
HETATM   12  O   UNL     1      -9.811   9.988  70.211  1.00  0.00    -0.227 OA 
BRANCH  12  13
HETATM   13  C   UNL     1     -10.555   9.101  70.994  1.00  0.00    -0.292 C  
HETATM   14  O   UNL     1     -11.394   9.384  71.833  1.00  0.00    -0.370 OA 
BRANCH  13  15
HETATM   15  C   UNL     1     -10.218   7.700  70.629  1.00  0.00    -0.199 A  
HETATM   16  C   UNL     1     -11.058   6.967  69.772  1.00  0.00    -0.316 A  
HETATM   17  C   UNL     1     -10.721   5.663  69.394  1.00  0.00    -0.365 A  
HETATM   18  C   UNL     1      -9.544   5.080  69.855  1.00  0.00    -0.246 A  
HETATM   19  C   UNL     1      -8.694   5.798  70.691  1.00  0.00    -0.137 A  
HETATM   20  C   UNL     1      -9.042   7.096  71.097  1.00  0.00    -0.152 A  
BRANCH  20  21
HETATM   21  O   UNL     1      -8.119   7.807  71.890  1.00  0.00    -0.095 OA 
BRANCH  21  22
HETATM   22  C   UNL     1      -7.861   7.290  73.157  1.00  0.00    -0.097 C  
HETATM   23  O   UNL     1      -6.836   6.729  73.519  1.00  0.00    -0.075 OA 
HETATM   24  C   UNL     1      -9.004   7.619  74.070  1.00  0.00    -0.299 C  
ENDBRANCH  21  22
ENDBRANCH  20  21
ENDBRANCH  13  15
ENDBRANCH  12  13
ENDBRANCH   9  12
ENDBRANCH   3   6
TORSDOF 6
ENDMDL
MODEL      118
REMARK 921   NORMALIZED FREE ENERGY PREDICTED BY IDOCK:   -4.28 KCAL/MOL
REMARK 922        TOTAL FREE ENERGY PREDICTED BY IDOCK:   -7.26 KCAL/MOL
REMARK 923 INTER-LIGAND FREE ENERGY PREDICTED BY IDOCK:   -6.69 KCAL/MOL
REMARK 924 INTRA-LIGAND FREE ENERGY PREDICTED BY IDOCK:   -0.57 KCAL/MOL
REMARK 927      BINDING AFFINITY PREDICTED BY RF-SCORE:    0.00 PKD
ROOT
HETATM    1  C   UNL     1     -13.370  11.855  63.857  1.00  0.00     0.300 C  
HETATM    2  C   UNL     1     -12.356  12.951  64.068  1.00  0.00    -0.380 C  
HETATM    3  N   UNL     1     -11.572  12.744  65.192  1.00  0.00    -0.323 N  
HETATM    4  O   UNL     1     -12.288  13.887  63.280  1.00  0.00    -0.749 OA 
HETATM    5  H   UNL     1     -11.761  11.900  65.732  1.00  0.00     0.000 HD 
ENDROOT
BRANCH   3   6
HETATM    6  C   UNL     1     -10.537  13.583  65.670  1.00  0.00    -0.284 A  
HETATM    7  C   UNL     1     -10.223  14.817  65.096  1.00  0.00    -0.410 A  
HETATM    8  C   UNL     1      -9.209  15.621  65.621  1.00  0.00    -0.113 A  
HETATM    9  C   UNL     1      -8.508  15.214  66.750  1.00  0.00    -0.237 A  
HETATM   10  C   UNL     1      -9.792  13.157  66.778  1.00  0.00    -0.251 A  
HETATM   11  C   UNL     1      -8.776  13.964  67.313  1.00  0.00    -0.225 A  
BRANCH   9  12
HETATM   12  O   UNL     1      -7.525  16.001  67.402  1.00  0.00    -0.144 OA 
BRANCH  12  13
HETATM   13  C   UNL     1      -7.823  16.947  68.387  1.00  0.00    -0.229 C  
HETATM   14  O   UNL     1      -7.456  16.939  69.551  1.00  0.00    -0.096 OA 
BRANCH  13  15
HETATM   15  C   UNL     1      -8.643  18.041  67.806  1.00  0.00    -0.244 A  
HETATM   16  C   UNL     1      -8.193  18.740  66.670  1.00  0.00    -0.298 A  
HETATM   17  C   UNL     1      -8.981  19.742  66.096  1.00  0.00    -0.387 A  
HETATM   18  C   UNL     1     -10.226  20.053  66.637  1.00  0.00    -0.597 A  
HETATM   19  C   UNL     1     -10.692  19.360  67.751  1.00  0.00    -0.480 A  
HETATM   20  C   UNL     1      -9.893  18.373  68.348  1.00  0.00    -0.371 A  
BRANCH  20  21
HETATM   21  O   UNL     1     -10.434  17.655  69.432  1.00  0.00    -0.242 OA 
BRANCH  21  22
HETATM   22  C   UNL     1     -11.147  16.500  69.118  1.00  0.00    -0.270 C  
HETATM   23  O   UNL     1     -11.530  16.161  68.007  1.00  0.00    -0.289 OA 
HETATM   24  C   UNL     1     -11.292  15.656  70.349  1.00  0.00    -0.373 C  
ENDBRANCH  21  22
ENDBRANCH  20  21
ENDBRANCH  13  15
ENDBRANCH  12  13
ENDBRANCH   9  12
ENDBRANCH   3   6
TORSDOF 6
ENDMDL
MODEL      119
REMARK 921   NORMALIZED FREE ENERGY PREDICTED BY IDOCK:   -4.28 KCAL/MOL
REMARK 922        TOTAL FREE ENERGY PREDICTED BY IDOCK:   -7.26 KCAL/MOL
REMARK 923 INTER-LIGAND FREE ENERGY PREDICTED BY IDOCK:   -6.16 KCAL/MOL
REMARK 924 INTRA-LIGAND FREE ENERGY PREDICTED BY IDOCK:   -1.10 KCAL/MOL
REMARK 927      BINDING AFFINITY PREDICTED BY RF-SCORE:    0.00 PKD
ROOT
HETATM    1  C   UNL     1     -10.389  19.070  68.033  1.00  0.00    -0.472 C  
HETATM    2  C   UNL     1     -10.169  17.599  68.282  1.00  0.00    -0.374 C  
HETATM    3  N   UNL     1     -11.282  16.833  67.975  1.00  0.00    -0.223 N  
HETATM    4  O   UNL     1      -9.089  17.202  68.705  1.00  0.00    -0.270 OA 
HETATM    5  H   UNL     1     -12.098  17.333  67.623  1.00  0.00     0.000 HD 
ENDROOT
BRANCH   3   6
HETATM    6  C   UNL     1     -11.404  15.429  68.099  1.00  0.00    -0.348 A  
HETATM    7  C   UNL     1     -11.454  14.768  69.329  1.00  0.00    -0.322 A  
HETATM    8  C   UNL     1     -11.603  13.381  69.399  1.00  0.00    -0.365 A  
HETATM    9  C   UNL     1     -11.731  12.632  68.235  1.00  0.00    -0.342 A  
HETATM   10  C   UNL     1     -11.483  14.661  66.929  1.00  0.00    -0.372 A  
HETATM   11  C   UNL     1     -11.638  13.267  66.994  1.00  0.00    -0.404 A  
BRANCH   9  12
HETATM   12  O   UNL     1     -11.972  11.235  68.211  1.00  0.00    -0.582 OA 
BRANCH  12  13
HETATM   13  C   UNL     1     -11.186  10.305  68.898  1.00  0.00    -0.207 C  
HETATM   14  O   UNL     1     -11.240  10.028  70.085  1.00  0.00    -0.263 OA 
BRANCH  13  15
HETATM   15  C   UNL     1     -10.263   9.627  67.951  1.00  0.00    -0.242 A  
HETATM   16  C   UNL     1     -10.655   8.443  67.301  1.00  0.00    -0.328 A  
HETATM   17  C   UNL     1      -9.805   7.826  66.378  1.00  0.00    -0.198 A  
HETATM   18  C   UNL     1      -8.563   8.383  66.086  1.00  0.00    -0.157 A  
HETATM   19  C   UNL     1      -8.166   9.563  66.709  1.00  0.00    -0.113 A  
HETATM   20  C   UNL     1      -9.004  10.170  67.657  1.00  0.00    -0.131 A  
BRANCH  20  21
HETATM   21  O   UNL     1      -8.588  11.397  68.212  1.00  0.00    -0.143 OA 
BRANCH  21  22
HETATM   22  C   UNL     1      -7.294  11.440  68.724  1.00  0.00    -0.114 C  
HETATM   23  O   UNL     1      -6.377  12.147  68.326  1.00  0.00    -0.050 OA 
HETATM   24  C   UNL     1      -7.205  10.553  69.930  1.00  0.00    -0.136 C  
ENDBRANCH  21  22
ENDBRANCH  20  21
ENDBRANCH  13  15
ENDBRANCH  12  13
ENDBRANCH   9  12
ENDBRANCH   3   6
TORSDOF 6
ENDMDL
MODEL      120
REMARK 921   NORMALIZED FREE ENERGY PREDICTED BY IDOCK:   -4.28 KCAL/MOL
REMARK 922        TOTAL FREE ENERGY PREDICTED BY IDOCK:   -7.25 KCAL/MOL
REMARK 923 INTER-LIGAND FREE ENERGY PREDICTED BY IDOCK:   -6.40 KCAL/MOL
REMARK 924 INTRA-LIGAND FREE ENERGY PREDICTED BY IDOCK:   -0.86 KCAL/MOL
REMARK 927      BINDING AFFINITY PREDICTED BY RF-SCORE:    0.00 PKD
ROOT
HETATM    1  C   UNL     1     -13.901  15.955  72.959  1.00  0.00    -0.477 C  
HETATM    2  C   UNL     1     -13.126  14.673  72.785  1.00  0.00    -0.486 C  
HETATM    3  N   UNL     1     -13.360  14.070  71.560  1.00  0.00    -0.353 N  
HETATM    4  O   UNL     1     -12.383  14.278  73.676  1.00  0.00    -0.250 OA 
HETATM    5  H   UNL     1     -14.006  14.547  70.931  1.00  0.00     0.000 HD 
ENDROOT
BRANCH   3   6
HETATM    6  C   UNL     1     -12.794  12.861  71.089  1.00  0.00    -0.238 A  
HETATM    7  C   UNL     1     -12.005  12.778  69.940  1.00  0.00    -0.368 A  
HETATM    8  C   UNL     1     -11.448  11.565  69.532  1.00  0.00    -0.378 A  
HETATM    9  C   UNL     1     -11.649  10.414  70.286  1.00  0.00    -0.327 A  
HETATM   10  C   UNL     1     -13.033  11.686  71.817  1.00  0.00    -0.483 A  
HETATM   11  C   UNL     1     -12.470  10.465  71.414  1.00  0.00    -0.521 A  
BRANCH   9  12
HETATM   12  O   UNL     1     -11.052   9.161  69.997  1.00  0.00    -0.235 OA 
BRANCH  12  13
HETATM   13  C   UNL     1      -9.868   8.715  70.590  1.00  0.00    -0.183 C  
HETATM   14  O   UNL     1      -9.029   9.393  71.162  1.00  0.00    -0.267 OA 
BRANCH  13  15
HETATM   15  C   UNL     1      -9.770   7.237  70.476  1.00  0.00    -0.176 A  
HETATM   16  C   UNL     1     -10.537   6.407  71.314  1.00  0.00    -0.275 A  
HETATM   17  C   UNL     1     -10.479   5.016  71.180  1.00  0.00    -0.205 A  
HETATM   18  C   UNL     1      -9.668   4.438  70.208  1.00  0.00    -0.281 A  
HETATM   19  C   UNL     1      -8.915   5.245  69.361  1.00  0.00    -0.124 A  
HETATM   20  C   UNL     1      -8.948   6.640  69.510  1.00  0.00    -0.138 A  
BRANCH  20  21
HETATM   21  O   UNL     1      -8.220   7.418  68.587  1.00  0.00    -0.123 OA 
BRANCH  21  22
HETATM   22  C   UNL     1      -8.449   7.158  67.238  1.00  0.00    -0.122 C  
HETATM   23  O   UNL     1      -7.776   6.440  66.511  1.00  0.00    -0.096 OA 
HETATM   24  C   UNL     1      -9.730   7.814  66.816  1.00  0.00    -0.296 C  
ENDBRANCH  21  22
ENDBRANCH  20  21
ENDBRANCH  13  15
ENDBRANCH  12  13
ENDBRANCH   9  12
ENDBRANCH   3   6
TORSDOF 6
ENDMDL
MODEL      121
REMARK 921   NORMALIZED FREE ENERGY PREDICTED BY IDOCK:   -4.27 KCAL/MOL
REMARK 922        TOTAL FREE ENERGY PREDICTED BY IDOCK:   -7.24 KCAL/MOL
REMARK 923 INTER-LIGAND FREE ENERGY PREDICTED BY IDOCK:   -6.64 KCAL/MOL
REMARK 924 INTRA-LIGAND FREE ENERGY PREDICTED BY IDOCK:   -0.61 KCAL/MOL
REMARK 927      BINDING AFFINITY PREDICTED BY RF-SCORE:    0.00 PKD
ROOT
HETATM    1  C   UNL     1     -14.195  15.583  72.569  1.00  0.00    -0.502 C  
HETATM    2  C   UNL     1     -13.534  14.681  71.559  1.00  0.00    -0.388 C  
HETATM    3  N   UNL     1     -13.426  13.372  72.001  1.00  0.00    -0.465 N  
HETATM    4  O   UNL     1     -13.166  15.131  70.480  1.00  0.00    -0.324 OA 
HETATM    5  H   UNL     1     -13.798  13.171  72.930  1.00  0.00     0.000 HD 
ENDROOT
BRANCH   3   6
HETATM    6  C   UNL     1     -12.855  12.284  71.299  1.00  0.00    -0.239 A  
HETATM    7  C   UNL     1     -11.997  12.440  70.207  1.00  0.00    -0.371 A  
HETATM    8  C   UNL     1     -11.437  11.335  69.564  1.00  0.00    -0.376 A  
HETATM    9  C   UNL     1     -11.706  10.050  70.021  1.00  0.00    -0.175 A  
HETATM   10  C   UNL     1     -13.160  10.983  71.722  1.00  0.00    -0.554 A  
HETATM   11  C   UNL     1     -12.595   9.869  71.082  1.00  0.00    -0.464 A  
BRANCH   9  12
HETATM   12  O   UNL     1     -11.115   8.877  69.487  1.00  0.00    -0.146 OA 
BRANCH  12  13
HETATM   13  C   UNL     1      -9.874   8.382  69.897  1.00  0.00    -0.186 C  
HETATM   14  O   UNL     1      -9.023   8.972  70.544  1.00  0.00    -0.173 OA 
BRANCH  13  15
HETATM   15  C   UNL     1      -9.728   6.966  69.471  1.00  0.00    -0.159 A  
HETATM   16  C   UNL     1      -9.401   6.655  68.139  1.00  0.00    -0.114 A  
HETATM   17  C   UNL     1      -9.222   5.325  67.745  1.00  0.00    -0.120 A  
HETATM   18  C   UNL     1      -9.356   4.294  68.671  1.00  0.00    -0.213 A  
HETATM   19  C   UNL     1      -9.665   4.587  69.997  1.00  0.00    -0.283 A  
HETATM   20  C   UNL     1      -9.874   5.917  70.391  1.00  0.00    -0.182 A  
BRANCH  20  21
HETATM   21  O   UNL     1     -10.119   6.169  71.755  1.00  0.00    -0.182 OA 
BRANCH  21  22
HETATM   22  C   UNL     1     -11.403   5.893  72.217  1.00  0.00    -0.298 C  
HETATM   23  O   UNL     1     -12.449   6.354  71.778  1.00  0.00    -0.316 OA 
HETATM   24  C   UNL     1     -11.333   4.844  73.286  1.00  0.00    -0.408 C  
ENDBRANCH  21  22
ENDBRANCH  20  21
ENDBRANCH  13  15
ENDBRANCH  12  13
ENDBRANCH   9  12
ENDBRANCH   3   6
TORSDOF 6
ENDMDL
MODEL      122
REMARK 921   NORMALIZED FREE ENERGY PREDICTED BY IDOCK:   -4.24 KCAL/MOL
REMARK 922        TOTAL FREE ENERGY PREDICTED BY IDOCK:   -7.20 KCAL/MOL
REMARK 923 INTER-LIGAND FREE ENERGY PREDICTED BY IDOCK:   -6.00 KCAL/MOL
REMARK 924 INTRA-LIGAND FREE ENERGY PREDICTED BY IDOCK:   -1.21 KCAL/MOL
REMARK 927      BINDING AFFINITY PREDICTED BY RF-SCORE:    0.00 PKD
ROOT
HETATM    1  C   UNL     1      -8.494   4.298  65.008  1.00  0.00    -0.117 C  
HETATM    2  C   UNL     1      -8.413   5.470  65.953  1.00  0.00    -0.130 C  
HETATM    3  N   UNL     1      -9.142   6.564  65.512  1.00  0.00    -0.372 N  
HETATM    4  O   UNL     1      -7.757   5.384  66.984  1.00  0.00    -0.098 OA 
HETATM    5  H   UNL     1      -9.639   6.455  64.628  1.00  0.00     0.000 HD 
ENDROOT
BRANCH   3   6
HETATM    6  C   UNL     1      -9.269   7.815  66.161  1.00  0.00    -0.128 A  
HETATM    7  C   UNL     1     -10.412   8.204  66.863  1.00  0.00    -0.379 A  
HETATM    8  C   UNL     1     -10.477   9.439  67.510  1.00  0.00    -0.343 A  
HETATM    9  C   UNL     1      -9.385  10.299  67.488  1.00  0.00    -0.148 A  
HETATM   10  C   UNL     1      -8.190   8.708  66.101  1.00  0.00    -0.121 A  
HETATM   11  C   UNL     1      -8.249   9.950  66.754  1.00  0.00    -0.124 A  
BRANCH   9  12
HETATM   12  O   UNL     1      -9.330  11.532  68.186  1.00  0.00    -0.171 OA 
BRANCH  12  13
HETATM   13  C   UNL     1     -10.410  12.413  68.283  1.00  0.00    -0.227 C  
HETATM   14  O   UNL     1     -11.331  12.365  69.083  1.00  0.00    -0.249 OA 
BRANCH  13  15
HETATM   15  C   UNL     1     -10.272  13.495  67.275  1.00  0.00    -0.242 A  
HETATM   16  C   UNL     1      -9.445  14.604  67.531  1.00  0.00    -0.198 A  
HETATM   17  C   UNL     1      -9.280  15.604  66.567  1.00  0.00    -0.325 A  
HETATM   18  C   UNL     1      -9.924  15.506  65.337  1.00  0.00    -0.339 A  
HETATM   19  C   UNL     1     -10.734  14.407  65.062  1.00  0.00    -0.440 A  
HETATM   20  C   UNL     1     -10.926  13.416  66.037  1.00  0.00    -0.271 A  
BRANCH  20  21
HETATM   21  O   UNL     1     -11.700  12.291  65.688  1.00  0.00    -0.382 OA 
BRANCH  21  22
HETATM   22  C   UNL     1     -11.381  11.666  64.485  1.00  0.00    -0.240 C  
HETATM   23  O   UNL     1     -10.410  10.953  64.271  1.00  0.00    -0.344 OA 
HETATM   24  C   UNL     1     -12.478  11.909  63.493  1.00  0.00    -0.609 C  
ENDBRANCH  21  22
ENDBRANCH  20  21
ENDBRANCH  13  15
ENDBRANCH  12  13
ENDBRANCH   9  12
ENDBRANCH   3   6
TORSDOF 6
ENDMDL
MODEL      123
REMARK 921   NORMALIZED FREE ENERGY PREDICTED BY IDOCK:   -4.24 KCAL/MOL
REMARK 922        TOTAL FREE ENERGY PREDICTED BY IDOCK:   -7.20 KCAL/MOL
REMARK 923 INTER-LIGAND FREE ENERGY PREDICTED BY IDOCK:   -5.98 KCAL/MOL
REMARK 924 INTRA-LIGAND FREE ENERGY PREDICTED BY IDOCK:   -1.22 KCAL/MOL
REMARK 927      BINDING AFFINITY PREDICTED BY RF-SCORE:    0.00 PKD
ROOT
HETATM    1  C   UNL     1     -11.781   6.217  71.517  1.00  0.00    -0.329 C  
HETATM    2  C   UNL     1     -10.996   6.780  70.359  1.00  0.00    -0.283 C  
HETATM    3  N   UNL     1     -11.017   8.165  70.323  1.00  0.00    -0.249 N  
HETATM    4  O   UNL     1     -10.423   6.027  69.580  1.00  0.00    -0.208 OA 
HETATM    5  H   UNL     1     -11.541   8.634  71.062  1.00  0.00     0.000 HD 
ENDROOT
BRANCH   3   6
HETATM    6  C   UNL     1     -10.387   8.997  69.368  1.00  0.00    -0.213 A  
HETATM    7  C   UNL     1     -10.590   8.877  67.991  1.00  0.00    -0.226 A  
HETATM    8  C   UNL     1      -9.965   9.741  67.090  1.00  0.00    -0.252 A  
HETATM    9  C   UNL     1      -9.143  10.762  67.554  1.00  0.00    -0.139 A  
HETATM   10  C   UNL     1      -9.518   9.998  69.825  1.00  0.00    -0.239 A  
HETATM   11  C   UNL     1      -8.891  10.873  68.923  1.00  0.00    -0.143 A  
BRANCH   9  12
HETATM   12  O   UNL     1      -8.539  11.736  66.721  1.00  0.00    -0.178 OA 
BRANCH  12  13
HETATM   13  C   UNL     1      -8.825  13.102  66.798  1.00  0.00    -0.132 C  
HETATM   14  O   UNL     1      -8.105  13.982  67.244  1.00  0.00    -0.183 OA 
BRANCH  13  15
HETATM   15  C   UNL     1     -10.157  13.374  66.199  1.00  0.00    -0.304 A  
HETATM   16  C   UNL     1     -10.332  13.331  64.804  1.00  0.00    -0.381 A  
HETATM   17  C   UNL     1     -11.593  13.545  64.240  1.00  0.00    -0.433 A  
HETATM   18  C   UNL     1     -12.694  13.793  65.056  1.00  0.00    -0.379 A  
HETATM   19  C   UNL     1     -12.541  13.824  66.439  1.00  0.00    -0.309 A  
HETATM   20  C   UNL     1     -11.272  13.638  67.008  1.00  0.00    -0.312 A  
BRANCH  20  21
HETATM   21  O   UNL     1     -11.178  13.612  68.414  1.00  0.00    -0.249 OA 
BRANCH  21  22
HETATM   22  C   UNL     1     -11.657  14.732  69.089  1.00  0.00    -0.303 C  
HETATM   23  O   UNL     1     -12.607  14.766  69.860  1.00  0.00    -0.273 OA 
HETATM   24  C   UNL     1     -10.758  15.900  68.816  1.00  0.00    -0.265 C  
ENDBRANCH  21  22
ENDBRANCH  20  21
ENDBRANCH  13  15
ENDBRANCH  12  13
ENDBRANCH   9  12
ENDBRANCH   3   6
TORSDOF 6
ENDMDL
MODEL      124
REMARK 921   NORMALIZED FREE ENERGY PREDICTED BY IDOCK:   -4.23 KCAL/MOL
REMARK 922        TOTAL FREE ENERGY PREDICTED BY IDOCK:   -7.19 KCAL/MOL
REMARK 923 INTER-LIGAND FREE ENERGY PREDICTED BY IDOCK:   -6.67 KCAL/MOL
REMARK 924 INTRA-LIGAND FREE ENERGY PREDICTED BY IDOCK:   -0.51 KCAL/MOL
REMARK 927      BINDING AFFINITY PREDICTED BY RF-SCORE:    0.00 PKD
ROOT
HETATM    1  C   UNL     1     -13.112  11.607  63.213  1.00  0.00     0.246 C  
HETATM    2  C   UNL     1     -12.337  12.804  63.702  1.00  0.00    -0.463 C  
HETATM    3  N   UNL     1     -11.346  12.464  64.610  1.00  0.00    -0.304 N  
HETATM    4  O   UNL     1     -12.610  13.925  63.288  1.00  0.00    -0.824 OA 
HETATM    5  H   UNL     1     -11.253  11.474  64.835  1.00  0.00     0.000 HD 
ENDROOT
BRANCH   3   6
HETATM    6  C   UNL     1     -10.450  13.348  65.256  1.00  0.00    -0.324 A  
HETATM    7  C   UNL     1     -10.295  14.687  64.891  1.00  0.00    -0.382 A  
HETATM    8  C   UNL     1      -9.416  15.527  65.579  1.00  0.00    -0.168 A  
HETATM    9  C   UNL     1      -8.696  15.045  66.666  1.00  0.00    -0.254 A  
HETATM   10  C   UNL     1      -9.683  12.857  66.322  1.00  0.00    -0.268 A  
HETATM   11  C   UNL     1      -8.802  13.699  67.020  1.00  0.00    -0.233 A  
BRANCH   9  12
HETATM   12  O   UNL     1      -7.849  15.845  67.475  1.00  0.00    -0.133 OA 
BRANCH  12  13
HETATM   13  C   UNL     1      -8.317  16.671  68.500  1.00  0.00    -0.228 C  
HETATM   14  O   UNL     1      -8.307  16.436  69.698  1.00  0.00     0.066 OA 
BRANCH  13  15
HETATM   15  C   UNL     1      -8.810  17.952  67.932  1.00  0.00    -0.260 A  
HETATM   16  C   UNL     1     -10.191  18.201  67.833  1.00  0.00    -0.391 A  
HETATM   17  C   UNL     1     -10.658  19.422  67.338  1.00  0.00    -0.603 A  
HETATM   18  C   UNL     1      -9.759  20.411  66.946  1.00  0.00    -0.567 A  
HETATM   19  C   UNL     1      -8.389  20.186  67.052  1.00  0.00    -0.382 A  
HETATM   20  C   UNL     1      -7.916  18.951  67.521  1.00  0.00    -0.244 A  
BRANCH  20  21
HETATM   21  O   UNL     1      -6.524  18.794  67.672  1.00  0.00    -0.202 OA 
BRANCH  21  22
HETATM   22  C   UNL     1      -5.902  19.626  68.600  1.00  0.00    -0.225 C  
HETATM   23  O   UNL     1      -5.467  20.751  68.393  1.00  0.00    -0.257 OA 
HETATM   24  C   UNL     1      -5.935  18.976  69.951  1.00  0.00    -0.271 C  
ENDBRANCH  21  22
ENDBRANCH  20  21
ENDBRANCH  13  15
ENDBRANCH  12  13
ENDBRANCH   9  12
ENDBRANCH   3   6
TORSDOF 6
ENDMDL
MODEL      125
REMARK 921   NORMALIZED FREE ENERGY PREDICTED BY IDOCK:   -4.22 KCAL/MOL
REMARK 922        TOTAL FREE ENERGY PREDICTED BY IDOCK:   -7.18 KCAL/MOL
REMARK 923 INTER-LIGAND FREE ENERGY PREDICTED BY IDOCK:   -6.21 KCAL/MOL
REMARK 924 INTRA-LIGAND FREE ENERGY PREDICTED BY IDOCK:   -0.97 KCAL/MOL
REMARK 927      BINDING AFFINITY PREDICTED BY RF-SCORE:    0.00 PKD
ROOT
HETATM    1  C   UNL     1      -9.560   4.671  69.344  1.00  0.00    -0.257 C  
HETATM    2  C   UNL     1     -10.139   5.978  68.866  1.00  0.00    -0.176 C  
HETATM    3  N   UNL     1      -9.444   7.077  69.344  1.00  0.00    -0.146 N  
HETATM    4  O   UNL     1     -11.118   5.983  68.127  1.00  0.00    -0.306 OA 
HETATM    5  H   UNL     1      -8.643   6.885  69.945  1.00  0.00     0.000 HD 
ENDROOT
BRANCH   3   6
HETATM    6  C   UNL     1      -9.732   8.439  69.086  1.00  0.00    -0.171 A  
HETATM    7  C   UNL     1     -10.753   9.143  69.728  1.00  0.00    -0.239 A  
HETATM    8  C   UNL     1     -10.980  10.494  69.458  1.00  0.00    -0.312 A  
HETATM    9  C   UNL     1     -10.167  11.173  68.558  1.00  0.00    -0.198 A  
HETATM   10  C   UNL     1      -8.948   9.118  68.143  1.00  0.00    -0.129 A  
HETATM   11  C   UNL     1      -9.168  10.478  67.873  1.00  0.00    -0.143 A  
BRANCH   9  12
HETATM   12  O   UNL     1     -10.267  12.561  68.288  1.00  0.00    -0.224 OA 
BRANCH  12  13
HETATM   13  C   UNL     1     -11.480  13.220  68.073  1.00  0.00    -0.309 C  
HETATM   14  O   UNL     1     -12.209  13.122  67.099  1.00  0.00    -0.326 OA 
BRANCH  13  15
HETATM   15  C   UNL     1     -11.815  14.061  69.251  1.00  0.00    -0.389 A  
HETATM   16  C   UNL     1     -12.395  13.482  70.395  1.00  0.00    -0.397 A  
HETATM   17  C   UNL     1     -12.673  14.263  71.521  1.00  0.00    -0.425 A  
HETATM   18  C   UNL     1     -12.368  15.622  71.526  1.00  0.00    -0.490 A  
HETATM   19  C   UNL     1     -11.780  16.206  70.408  1.00  0.00    -0.237 A  
HETATM   20  C   UNL     1     -11.526  15.433  69.265  1.00  0.00    -0.333 A  
BRANCH  20  21
HETATM   21  O   UNL     1     -10.870  16.053  68.183  1.00  0.00    -0.297 OA 
BRANCH  21  22
HETATM   22  C   UNL     1      -9.642  16.648  68.460  1.00  0.00    -0.241 C  
HETATM   23  O   UNL     1      -9.434  17.841  68.637  1.00  0.00    -0.285 OA 
HETATM   24  C   UNL     1      -8.598  15.583  68.620  1.00  0.00    -0.179 C  
ENDBRANCH  21  22
ENDBRANCH  20  21
ENDBRANCH  13  15
ENDBRANCH  12  13
ENDBRANCH   9  12
ENDBRANCH   3   6
TORSDOF 6
ENDMDL
MODEL      126
REMARK 921   NORMALIZED FREE ENERGY PREDICTED BY IDOCK:   -4.22 KCAL/MOL
REMARK 922        TOTAL FREE ENERGY PREDICTED BY IDOCK:   -7.18 KCAL/MOL
REMARK 923 INTER-LIGAND FREE ENERGY PREDICTED BY IDOCK:   -6.91 KCAL/MOL
REMARK 924 INTRA-LIGAND FREE ENERGY PREDICTED BY IDOCK:   -0.27 KCAL/MOL
REMARK 927      BINDING AFFINITY PREDICTED BY RF-SCORE:    0.00 PKD
ROOT
HETATM    1  C   UNL     1     -13.686  13.416  72.436  1.00  0.00    -0.698 C  
HETATM    2  C   UNL     1     -13.112  12.174  71.802  1.00  0.00    -0.352 C  
HETATM    3  N   UNL     1     -13.533  11.011  72.427  1.00  0.00    -0.458 N  
HETATM    4  O   UNL     1     -12.365  12.266  70.834  1.00  0.00    -0.376 OA 
HETATM    5  H   UNL     1     -14.167  11.122  73.219  1.00  0.00     0.000 HD 
ENDROOT
BRANCH   3   6
HETATM    6  C   UNL     1     -13.176   9.686  72.082  1.00  0.00    -0.444 A  
HETATM    7  C   UNL     1     -14.111   8.681  71.821  1.00  0.00    -0.499 A  
HETATM    8  C   UNL     1     -13.708   7.395  71.458  1.00  0.00    -0.467 A  
HETATM    9  C   UNL     1     -12.356   7.098  71.322  1.00  0.00    -0.379 A  
HETATM   10  C   UNL     1     -11.814   9.365  71.992  1.00  0.00    -0.310 A  
HETATM   11  C   UNL     1     -11.404   8.075  71.621  1.00  0.00    -0.306 A  
BRANCH   9  12
HETATM   12  O   UNL     1     -11.858   5.849  70.875  1.00  0.00     0.001 OA 
BRANCH  12  13
HETATM   13  C   UNL     1     -10.517   5.622  70.557  1.00  0.00    -0.277 C  
HETATM   14  O   UNL     1      -9.590   5.468  71.337  1.00  0.00    -0.150 OA 
BRANCH  13  15
HETATM   15  C   UNL     1     -10.354   5.539  69.082  1.00  0.00    -0.318 A  
HETATM   16  C   UNL     1     -11.022   6.448  68.241  1.00  0.00    -0.396 A  
HETATM   17  C   UNL     1     -10.837   6.399  66.856  1.00  0.00    -0.428 A  
HETATM   18  C   UNL     1      -9.981   5.456  66.294  1.00  0.00    -0.199 A  
HETATM   19  C   UNL     1      -9.300   4.560  67.114  1.00  0.00    -0.163 A  
HETATM   20  C   UNL     1      -9.504   4.586  68.502  1.00  0.00    -0.152 A  
BRANCH  20  21
HETATM   21  O   UNL     1      -8.744   3.704  69.296  1.00  0.00    -0.072 OA 
BRANCH  21  22
HETATM   22  C   UNL     1      -9.207   2.393  69.385  1.00  0.00    -0.123 C  
HETATM   23  O   UNL     1      -9.312   1.594  68.464  1.00  0.00    -0.148 OA 
HETATM   24  C   UNL     1      -9.466   2.055  70.823  1.00  0.00    -0.193 C  
ENDBRANCH  21  22
ENDBRANCH  20  21
ENDBRANCH  13  15
ENDBRANCH  12  13
ENDBRANCH   9  12
ENDBRANCH   3   6
TORSDOF 6
ENDMDL
MODEL      127
REMARK 921   NORMALIZED FREE ENERGY PREDICTED BY IDOCK:   -4.22 KCAL/MOL
REMARK 922        TOTAL FREE ENERGY PREDICTED BY IDOCK:   -7.18 KCAL/MOL
REMARK 923 INTER-LIGAND FREE ENERGY PREDICTED BY IDOCK:   -6.31 KCAL/MOL
REMARK 924 INTRA-LIGAND FREE ENERGY PREDICTED BY IDOCK:   -0.87 KCAL/MOL
REMARK 927      BINDING AFFINITY PREDICTED BY RF-SCORE:    0.00 PKD
ROOT
HETATM    1  C   UNL     1     -10.222  18.373  66.601  1.00  0.00    -0.416 C  
HETATM    2  C   UNL     1     -10.342  16.919  66.220  1.00  0.00    -0.308 C  
HETATM    3  N   UNL     1     -10.430  16.084  67.323  1.00  0.00    -0.304 N  
HETATM    4  O   UNL     1     -10.361  16.592  65.039  1.00  0.00    -0.622 OA 
HETATM    5  H   UNL     1     -10.408  16.533  68.239  1.00  0.00     0.000 HD 
ENDROOT
BRANCH   3   6
HETATM    6  C   UNL     1     -10.547  14.674  67.310  1.00  0.00    -0.284 A  
HETATM    7  C   UNL     1     -11.739  14.000  67.588  1.00  0.00    -0.412 A  
HETATM    8  C   UNL     1     -11.809  12.607  67.536  1.00  0.00    -0.396 A  
HETATM    9  C   UNL     1     -10.691  11.862  67.178  1.00  0.00    -0.240 A  
HETATM   10  C   UNL     1      -9.411  13.914  66.999  1.00  0.00    -0.256 A  
HETATM   11  C   UNL     1      -9.479  12.513  66.940  1.00  0.00    -0.219 A  
BRANCH   9  12
HETATM   12  O   UNL     1     -10.693  10.454  67.015  1.00  0.00    -0.261 OA 
BRANCH  12  13
HETATM   13  C   UNL     1      -9.734   9.610  67.582  1.00  0.00    -0.149 C  
HETATM   14  O   UNL     1      -8.589   9.433  67.197  1.00  0.00    -0.126 OA 
BRANCH  13  15
HETATM   15  C   UNL     1     -10.287   8.958  68.797  1.00  0.00    -0.232 A  
HETATM   16  C   UNL     1     -10.359   9.664  70.012  1.00  0.00    -0.298 A  
HETATM   17  C   UNL     1     -10.918   9.067  71.146  1.00  0.00    -0.371 A  
HETATM   18  C   UNL     1     -11.421   7.771  71.082  1.00  0.00    -0.295 A  
HETATM   19  C   UNL     1     -11.372   7.065  69.883  1.00  0.00    -0.260 A  
HETATM   20  C   UNL     1     -10.785   7.648  68.750  1.00  0.00    -0.077 A  
BRANCH  20  21
HETATM   21  O   UNL     1     -10.818   6.921  67.543  1.00  0.00    -0.266 OA 
BRANCH  21  22
HETATM   22  C   UNL     1      -9.740   6.074  67.298  1.00  0.00    -0.125 C  
HETATM   23  O   UNL     1      -8.639   6.126  67.830  1.00  0.00    -0.115 OA 
HETATM   24  C   UNL     1     -10.161   4.996  66.345  1.00  0.00    -0.278 C  
ENDBRANCH  21  22
ENDBRANCH  20  21
ENDBRANCH  13  15
ENDBRANCH  12  13
ENDBRANCH   9  12
ENDBRANCH   3   6
TORSDOF 6
ENDMDL
MODEL      128
REMARK 921   NORMALIZED FREE ENERGY PREDICTED BY IDOCK:   -4.21 KCAL/MOL
REMARK 922        TOTAL FREE ENERGY PREDICTED BY IDOCK:   -7.16 KCAL/MOL
REMARK 923 INTER-LIGAND FREE ENERGY PREDICTED BY IDOCK:   -6.68 KCAL/MOL
REMARK 924 INTRA-LIGAND FREE ENERGY PREDICTED BY IDOCK:   -0.48 KCAL/MOL
REMARK 927      BINDING AFFINITY PREDICTED BY RF-SCORE:    0.00 PKD
ROOT
HETATM    1  C   UNL     1     -10.430  18.843  65.994  1.00  0.00    -0.507 C  
HETATM    2  C   UNL     1     -10.639  17.352  65.903  1.00  0.00    -0.200 C  
HETATM    3  N   UNL     1     -10.498  16.717  67.126  1.00  0.00    -0.314 N  
HETATM    4  O   UNL     1     -10.910  16.834  64.826  1.00  0.00    -0.745 OA 
HETATM    5  H   UNL     1     -10.279  17.310  67.927  1.00  0.00     0.000 HD 
ENDROOT
BRANCH   3   6
HETATM    6  C   UNL     1     -10.627  15.331  67.381  1.00  0.00    -0.282 A  
HETATM    7  C   UNL     1     -11.712  14.772  68.060  1.00  0.00    -0.360 A  
HETATM    8  C   UNL     1     -11.806  13.394  68.263  1.00  0.00    -0.393 A  
HETATM    9  C   UNL     1     -10.825  12.545  67.764  1.00  0.00    -0.225 A  
HETATM   10  C   UNL     1      -9.616  14.473  66.925  1.00  0.00    -0.258 A  
HETATM   11  C   UNL     1      -9.709  13.086  67.121  1.00  0.00    -0.230 A  
BRANCH   9  12
HETATM   12  O   UNL     1     -10.881  11.131  67.846  1.00  0.00    -0.203 OA 
BRANCH  12  13
HETATM   13  C   UNL     1     -10.070  10.374  68.696  1.00  0.00    -0.176 C  
HETATM   14  O   UNL     1      -9.225  10.792  69.472  1.00  0.00    -0.059 OA 
BRANCH  13  15
HETATM   15  C   UNL     1     -10.410   8.934  68.570  1.00  0.00    -0.229 A  
HETATM   16  C   UNL     1     -10.769   8.186  69.707  1.00  0.00    -0.229 A  
HETATM   17  C   UNL     1     -11.130   6.841  69.585  1.00  0.00    -0.343 A  
HETATM   18  C   UNL     1     -11.149   6.229  68.335  1.00  0.00    -0.371 A  
HETATM   19  C   UNL     1     -10.812   6.959  67.199  1.00  0.00    -0.447 A  
HETATM   20  C   UNL     1     -10.421   8.301  67.319  1.00  0.00    -0.303 A  
BRANCH  20  21
HETATM   21  O   UNL     1     -10.152   9.017  66.135  1.00  0.00    -0.290 OA 
BRANCH  21  22
HETATM   22  C   UNL     1      -8.837   8.992  65.678  1.00  0.00    -0.185 C  
HETATM   23  O   UNL     1      -7.897   8.406  66.198  1.00  0.00    -0.097 OA 
HETATM   24  C   UNL     1      -8.752   9.714  64.367  1.00  0.00    -0.230 C  
ENDBRANCH  21  22
ENDBRANCH  20  21
ENDBRANCH  13  15
ENDBRANCH  12  13
ENDBRANCH   9  12
ENDBRANCH   3   6
TORSDOF 6
ENDMDL
MODEL      129
REMARK 921   NORMALIZED FREE ENERGY PREDICTED BY IDOCK:   -4.20 KCAL/MOL
REMARK 922        TOTAL FREE ENERGY PREDICTED BY IDOCK:   -7.15 KCAL/MOL
REMARK 923 INTER-LIGAND FREE ENERGY PREDICTED BY IDOCK:   -6.00 KCAL/MOL
REMARK 924 INTRA-LIGAND FREE ENERGY PREDICTED BY IDOCK:   -1.15 KCAL/MOL
REMARK 927      BINDING AFFINITY PREDICTED BY RF-SCORE:    0.00 PKD
ROOT
HETATM    1  C   UNL     1      -8.651   4.109  65.497  1.00  0.00    -0.118 C  
HETATM    2  C   UNL     1      -9.336   5.052  66.454  1.00  0.00    -0.145 C  
HETATM    3  N   UNL     1      -8.827   6.340  66.391  1.00  0.00    -0.139 N  
HETATM    4  O   UNL     1     -10.244   4.649  67.172  1.00  0.00    -0.177 OA 
HETATM    5  H   UNL     1      -8.072   6.501  65.724  1.00  0.00     0.000 HD 
ENDROOT
BRANCH   3   6
HETATM    6  C   UNL     1      -9.245   7.454  67.157  1.00  0.00    -0.136 A  
HETATM    7  C   UNL     1      -8.929   7.620  68.507  1.00  0.00    -0.129 A  
HETATM    8  C   UNL     1      -9.342   8.752  69.212  1.00  0.00    -0.149 A  
HETATM    9  C   UNL     1     -10.060   9.754  68.568  1.00  0.00    -0.166 A  
HETATM   10  C   UNL     1     -10.011   8.445  66.527  1.00  0.00    -0.335 A  
HETATM   11  C   UNL     1     -10.424   9.588  67.230  1.00  0.00    -0.328 A  
BRANCH   9  12
HETATM   12  O   UNL     1     -10.445  10.974  69.179  1.00  0.00    -0.217 OA 
BRANCH  12  13
HETATM   13  C   UNL     1     -11.771  11.406  69.271  1.00  0.00    -0.337 C  
HETATM   14  O   UNL     1     -12.763  10.711  69.420  1.00  0.00    -0.224 OA 
BRANCH  13  15
HETATM   15  C   UNL     1     -11.824  12.890  69.210  1.00  0.00    -0.363 A  
HETATM   16  C   UNL     1     -11.944  13.646  70.391  1.00  0.00    -0.372 A  
HETATM   17  C   UNL     1     -11.953  15.043  70.340  1.00  0.00    -0.372 A  
HETATM   18  C   UNL     1     -11.832  15.702  69.120  1.00  0.00    -0.378 A  
HETATM   19  C   UNL     1     -11.698  14.968  67.944  1.00  0.00    -0.310 A  
HETATM   20  C   UNL     1     -11.718  13.566  67.987  1.00  0.00    -0.359 A  
BRANCH  20  21
HETATM   21  O   UNL     1     -11.513  12.868  66.780  1.00  0.00    -0.305 OA 
BRANCH  21  22
HETATM   22  C   UNL     1     -10.275  13.040  66.165  1.00  0.00    -0.284 C  
HETATM   23  O   UNL     1      -9.177  12.877  66.682  1.00  0.00    -0.241 OA 
HETATM   24  C   UNL     1     -10.480  13.358  64.715  1.00  0.00    -0.419 C  
ENDBRANCH  21  22
ENDBRANCH  20  21
ENDBRANCH  13  15
ENDBRANCH  12  13
ENDBRANCH   9  12
ENDBRANCH   3   6
TORSDOF 6
ENDMDL
MODEL      130
REMARK 921   NORMALIZED FREE ENERGY PREDICTED BY IDOCK:   -4.20 KCAL/MOL
REMARK 922        TOTAL FREE ENERGY PREDICTED BY IDOCK:   -7.15 KCAL/MOL
REMARK 923 INTER-LIGAND FREE ENERGY PREDICTED BY IDOCK:   -6.44 KCAL/MOL
REMARK 924 INTRA-LIGAND FREE ENERGY PREDICTED BY IDOCK:   -0.71 KCAL/MOL
REMARK 927      BINDING AFFINITY PREDICTED BY RF-SCORE:    0.00 PKD
ROOT
HETATM    1  C   UNL     1      -9.954   5.127  68.073  1.00  0.00    -0.200 C  
HETATM    2  C   UNL     1     -10.422   6.437  67.489  1.00  0.00    -0.233 C  
HETATM    3  N   UNL     1      -9.513   7.464  67.686  1.00  0.00    -0.135 N  
HETATM    4  O   UNL     1     -11.500   6.502  66.910  1.00  0.00    -0.212 OA 
HETATM    5  H   UNL     1      -8.656   7.227  68.186  1.00  0.00     0.000 HD 
ENDROOT
BRANCH   3   6
HETATM    6  C   UNL     1      -9.651   8.809  67.268  1.00  0.00    -0.165 A  
HETATM    7  C   UNL     1      -9.862   9.182  65.938  1.00  0.00    -0.305 A  
HETATM    8  C   UNL     1     -10.019  10.522  65.580  1.00  0.00    -0.342 A  
HETATM    9  C   UNL     1      -9.994  11.514  66.553  1.00  0.00    -0.210 A  
HETATM   10  C   UNL     1      -9.577   9.819  68.237  1.00  0.00    -0.155 A  
HETATM   11  C   UNL     1      -9.740  11.168  67.882  1.00  0.00    -0.184 A  
BRANCH   9  12
HETATM   12  O   UNL     1     -10.230  12.888  66.294  1.00  0.00    -0.265 OA 
BRANCH  12  13
HETATM   13  C   UNL     1     -11.453  13.519  66.534  1.00  0.00    -0.339 C  
HETATM   14  O   UNL     1     -12.471  13.433  65.866  1.00  0.00    -0.439 OA 
BRANCH  13  15
HETATM   15  C   UNL     1     -11.375  14.311  67.789  1.00  0.00    -0.329 A  
HETATM   16  C   UNL     1     -12.215  14.004  68.876  1.00  0.00    -0.261 A  
HETATM   17  C   UNL     1     -12.115  14.720  70.073  1.00  0.00    -0.380 A  
HETATM   18  C   UNL     1     -11.175  15.738  70.206  1.00  0.00    -0.377 A  
HETATM   19  C   UNL     1     -10.327  16.044  69.145  1.00  0.00    -0.247 A  
HETATM   20  C   UNL     1     -10.443  15.348  67.932  1.00  0.00    -0.256 A  
BRANCH  20  21
HETATM   21  O   UNL     1      -9.519  15.647  66.911  1.00  0.00    -0.216 OA 
BRANCH  21  22
HETATM   22  C   UNL     1      -9.798  16.766  66.130  1.00  0.00    -0.309 C  
HETATM   23  O   UNL     1     -10.672  16.860  65.279  1.00  0.00    -0.599 OA 
HETATM   24  C   UNL     1      -8.922  17.904  66.562  1.00  0.00    -0.278 C  
ENDBRANCH  21  22
ENDBRANCH  20  21
ENDBRANCH  13  15
ENDBRANCH  12  13
ENDBRANCH   9  12
ENDBRANCH   3   6
TORSDOF 6
ENDMDL
MODEL      131
REMARK 921   NORMALIZED FREE ENERGY PREDICTED BY IDOCK:   -4.19 KCAL/MOL
REMARK 922        TOTAL FREE ENERGY PREDICTED BY IDOCK:   -7.14 KCAL/MOL
REMARK 923 INTER-LIGAND FREE ENERGY PREDICTED BY IDOCK:   -5.90 KCAL/MOL
REMARK 924 INTRA-LIGAND FREE ENERGY PREDICTED BY IDOCK:   -1.24 KCAL/MOL
REMARK 927      BINDING AFFINITY PREDICTED BY RF-SCORE:    0.00 PKD
ROOT
HETATM    1  C   UNL     1     -11.915  13.021  68.004  1.00  0.00    -0.335 C  
HETATM    2  C   UNL     1     -11.968  12.359  69.358  1.00  0.00    -0.260 C  
HETATM    3  N   UNL     1     -11.585  11.028  69.317  1.00  0.00    -0.285 N  
HETATM    4  O   UNL     1     -12.316  12.999  70.343  1.00  0.00    -0.334 OA 
HETATM    5  H   UNL     1     -11.315  10.657  68.405  1.00  0.00     0.000 HD 
ENDROOT
BRANCH   3   6
HETATM    6  C   UNL     1     -11.529  10.128  70.408  1.00  0.00    -0.322 A  
HETATM    7  C   UNL     1     -12.662   9.655  71.072  1.00  0.00    -0.354 A  
HETATM    8  C   UNL     1     -12.555   8.746  72.127  1.00  0.00    -0.463 A  
HETATM    9  C   UNL     1     -11.308   8.273  72.518  1.00  0.00    -0.385 A  
HETATM   10  C   UNL     1     -10.271   9.684  70.841  1.00  0.00    -0.303 A  
HETATM   11  C   UNL     1     -10.159   8.766  71.897  1.00  0.00    -0.409 A  
BRANCH   9  12
HETATM   12  O   UNL     1     -11.111   7.286  73.518  1.00  0.00    -0.280 OA 
BRANCH  12  13
HETATM   13  C   UNL     1     -10.908   5.933  73.236  1.00  0.00    -0.261 C  
HETATM   14  O   UNL     1     -11.764   5.076  73.082  1.00  0.00    -0.313 OA 
BRANCH  13  15
HETATM   15  C   UNL     1      -9.455   5.658  73.094  1.00  0.00    -0.149 A  
HETATM   16  C   UNL     1      -8.591   5.815  74.193  1.00  0.00    -0.116 A  
HETATM   17  C   UNL     1      -7.230   5.517  74.073  1.00  0.00    -0.086 A  
HETATM   18  C   UNL     1      -6.717   5.050  72.865  1.00  0.00    -0.066 A  
HETATM   19  C   UNL     1      -7.562   4.875  71.773  1.00  0.00    -0.096 A  
HETATM   20  C   UNL     1      -8.923   5.200  71.880  1.00  0.00    -0.134 A  
BRANCH  20  21
HETATM   21  O   UNL     1      -9.750   4.943  70.768  1.00  0.00    -0.170 OA 
BRANCH  21  22
HETATM   22  C   UNL     1      -9.785   5.923  69.780  1.00  0.00    -0.160 C  
HETATM   23  O   UNL     1      -8.821   6.413  69.207  1.00  0.00    -0.127 OA 
HETATM   24  C   UNL     1     -11.211   6.228  69.432  1.00  0.00    -0.489 C  
ENDBRANCH  21  22
ENDBRANCH  20  21
ENDBRANCH  13  15
ENDBRANCH  12  13
ENDBRANCH   9  12
ENDBRANCH   3   6
TORSDOF 6
ENDMDL
MODEL      132
REMARK 921   NORMALIZED FREE ENERGY PREDICTED BY IDOCK:   -4.18 KCAL/MOL
REMARK 922        TOTAL FREE ENERGY PREDICTED BY IDOCK:   -7.13 KCAL/MOL
REMARK 923 INTER-LIGAND FREE ENERGY PREDICTED BY IDOCK:   -7.21 KCAL/MOL
REMARK 924 INTRA-LIGAND FREE ENERGY PREDICTED BY IDOCK:    0.08 KCAL/MOL
REMARK 927      BINDING AFFINITY PREDICTED BY RF-SCORE:    0.00 PKD
ROOT
HETATM    1  C   UNL     1      -6.853  20.171  66.342  1.00  0.00    -0.260 C  
HETATM    2  C   UNL     1      -7.591  18.858  66.424  1.00  0.00    -0.262 C  
HETATM    3  N   UNL     1      -8.315  18.725  67.598  1.00  0.00    -0.268 N  
HETATM    4  O   UNL     1      -7.513  18.050  65.505  1.00  0.00    -0.538 OA 
HETATM    5  H   UNL     1      -8.272  19.506  68.253  1.00  0.00     0.000 HD 
ENDROOT
BRANCH   3   6
HETATM    6  C   UNL     1      -9.108  17.618  67.984  1.00  0.00    -0.267 A  
HETATM    7  C   UNL     1     -10.502  17.659  68.053  1.00  0.00    -0.395 A  
HETATM    8  C   UNL     1     -11.241  16.530  68.413  1.00  0.00    -0.280 A  
HETATM    9  C   UNL     1     -10.596  15.329  68.685  1.00  0.00    -0.236 A  
HETATM   10  C   UNL     1      -8.461  16.417  68.308  1.00  0.00    -0.195 A  
HETATM   11  C   UNL     1      -9.201  15.278  68.665  1.00  0.00    -0.201 A  
BRANCH   9  12
HETATM   12  O   UNL     1     -11.267  14.114  68.973  1.00  0.00    -0.248 OA 
BRANCH  12  13
HETATM   13  C   UNL     1     -11.819  13.286  67.992  1.00  0.00    -0.355 C  
HETATM   14  O   UNL     1     -12.461  13.630  67.012  1.00  0.00    -0.291 OA 
BRANCH  13  15
HETATM   15  C   UNL     1     -11.472  11.869  68.273  1.00  0.00    -0.372 A  
HETATM   16  C   UNL     1     -11.005  11.033  67.242  1.00  0.00    -0.356 A  
HETATM   17  C   UNL     1     -10.639   9.711  67.512  1.00  0.00    -0.339 A  
HETATM   18  C   UNL     1     -10.722   9.210  68.809  1.00  0.00    -0.162 A  
HETATM   19  C   UNL     1     -11.167  10.029  69.843  1.00  0.00    -0.327 A  
HETATM   20  C   UNL     1     -11.564  11.348  69.572  1.00  0.00    -0.331 A  
BRANCH  20  21
HETATM   21  O   UNL     1     -11.944  12.157  70.660  1.00  0.00    -0.322 OA 
BRANCH  21  22
HETATM   22  C   UNL     1     -13.016  11.706  71.426  1.00  0.00    -0.324 C  
HETATM   23  O   UNL     1     -13.440  10.559  71.480  1.00  0.00    -0.293 OA 
HETATM   24  C   UNL     1     -13.528  12.829  72.277  1.00  0.00    -0.591 C  
ENDBRANCH  21  22
ENDBRANCH  20  21
ENDBRANCH  13  15
ENDBRANCH  12  13
ENDBRANCH   9  12
ENDBRANCH   3   6
TORSDOF 6
ENDMDL
MODEL      133
REMARK 921   NORMALIZED FREE ENERGY PREDICTED BY IDOCK:   -4.18 KCAL/MOL
REMARK 922        TOTAL FREE ENERGY PREDICTED BY IDOCK:   -7.13 KCAL/MOL
REMARK 923 INTER-LIGAND FREE ENERGY PREDICTED BY IDOCK:   -6.25 KCAL/MOL
REMARK 924 INTRA-LIGAND FREE ENERGY PREDICTED BY IDOCK:   -0.87 KCAL/MOL
REMARK 927      BINDING AFFINITY PREDICTED BY RF-SCORE:    0.00 PKD
ROOT
HETATM    1  C   UNL     1     -11.984  14.764  64.488  1.00  0.00    -0.451 C  
HETATM    2  C   UNL     1     -12.281  13.542  65.319  1.00  0.00    -0.441 C  
HETATM    3  N   UNL     1     -11.482  13.457  66.449  1.00  0.00    -0.317 N  
HETATM    4  O   UNL     1     -13.156  12.758  64.970  1.00  0.00    -0.811 OA 
HETATM    5  H   UNL     1     -10.807  14.209  66.588  1.00  0.00     0.000 HD 
ENDROOT
BRANCH   3   6
HETATM    6  C   UNL     1     -11.506  12.436  67.429  1.00  0.00    -0.352 A  
HETATM    7  C   UNL     1     -11.175  11.106  67.160  1.00  0.00    -0.320 A  
HETATM    8  C   UNL     1     -11.188  10.141  68.169  1.00  0.00    -0.245 A  
HETATM    9  C   UNL     1     -11.508  10.497  69.474  1.00  0.00    -0.272 A  
HETATM   10  C   UNL     1     -11.876  12.778  68.737  1.00  0.00    -0.346 A  
HETATM   11  C   UNL     1     -11.885  11.811  69.756  1.00  0.00    -0.420 A  
BRANCH   9  12
HETATM   12  O   UNL     1     -11.463   9.604  70.575  1.00  0.00    -0.259 OA 
BRANCH  12  13
HETATM   13  C   UNL     1     -10.284   9.018  71.044  1.00  0.00    -0.277 C  
HETATM   14  O   UNL     1      -9.525   9.464  71.890  1.00  0.00    -0.185 OA 
BRANCH  13  15
HETATM   15  C   UNL     1     -10.082   7.698  70.393  1.00  0.00    -0.190 A  
HETATM   16  C   UNL     1     -11.161   6.809  70.238  1.00  0.00    -0.385 A  
HETATM   17  C   UNL     1     -10.983   5.584  69.588  1.00  0.00    -0.155 A  
HETATM   18  C   UNL     1      -9.736   5.235  69.077  1.00  0.00    -0.217 A  
HETATM   19  C   UNL     1      -8.661   6.111  69.208  1.00  0.00    -0.122 A  
HETATM   20  C   UNL     1      -8.828   7.328  69.885  1.00  0.00    -0.142 A  
BRANCH  20  21
HETATM   21  O   UNL     1      -7.730   8.209  69.936  1.00  0.00    -0.093 OA 
BRANCH  21  22
HETATM   22  C   UNL     1      -7.404   8.865  68.751  1.00  0.00    -0.076 C  
HETATM   23  O   UNL     1      -7.042   8.342  67.705  1.00  0.00    -0.080 OA 
HETATM   24  C   UNL     1      -7.668  10.333  68.907  1.00  0.00    -0.098 C  
ENDBRANCH  21  22
ENDBRANCH  20  21
ENDBRANCH  13  15
ENDBRANCH  12  13
ENDBRANCH   9  12
ENDBRANCH   3   6
TORSDOF 6
ENDMDL
MODEL      134
REMARK 921   NORMALIZED FREE ENERGY PREDICTED BY IDOCK:   -4.17 KCAL/MOL
REMARK 922        TOTAL FREE ENERGY PREDICTED BY IDOCK:   -7.11 KCAL/MOL
REMARK 923 INTER-LIGAND FREE ENERGY PREDICTED BY IDOCK:   -6.13 KCAL/MOL
REMARK 924 INTRA-LIGAND FREE ENERGY PREDICTED BY IDOCK:   -0.97 KCAL/MOL
REMARK 927      BINDING AFFINITY PREDICTED BY RF-SCORE:    0.00 PKD
ROOT
HETATM    1  C   UNL     1     -13.825  15.963  72.771  1.00  0.00    -0.532 C  
HETATM    2  C   UNL     1     -12.828  14.930  72.309  1.00  0.00    -0.333 C  
HETATM    3  N   UNL     1     -13.427  13.864  71.657  1.00  0.00    -0.357 N  
HETATM    4  O   UNL     1     -11.632  15.093  72.520  1.00  0.00    -0.421 OA 
HETATM    5  H   UNL     1     -14.442  13.898  71.562  1.00  0.00     0.000 HD 
ENDROOT
BRANCH   3   6
HETATM    6  C   UNL     1     -12.776  12.734  71.108  1.00  0.00    -0.263 A  
HETATM    7  C   UNL     1     -12.070  12.763  69.904  1.00  0.00    -0.329 A  
HETATM    8  C   UNL     1     -11.422  11.626  69.418  1.00  0.00    -0.372 A  
HETATM    9  C   UNL     1     -11.447  10.442  70.145  1.00  0.00    -0.319 A  
HETATM   10  C   UNL     1     -12.839  11.522  71.812  1.00  0.00    -0.441 A  
HETATM   11  C   UNL     1     -12.184  10.378  71.330  1.00  0.00    -0.491 A  
BRANCH   9  12
HETATM   12  O   UNL     1     -10.747   9.266  69.774  1.00  0.00    -0.222 OA 
BRANCH  12  13
HETATM   13  C   UNL     1      -9.369   9.103  69.940  1.00  0.00    -0.186 C  
HETATM   14  O   UNL     1      -8.665   9.611  70.798  1.00  0.00    -0.214 OA 
BRANCH  13  15
HETATM   15  C   UNL     1      -8.847   8.154  68.924  1.00  0.00    -0.141 A  
HETATM   16  C   UNL     1      -8.454   8.616  67.654  1.00  0.00    -0.125 A  
HETATM   17  C   UNL     1      -7.923   7.732  66.711  1.00  0.00    -0.107 A  
HETATM   18  C   UNL     1      -7.766   6.384  67.022  1.00  0.00    -0.100 A  
HETATM   19  C   UNL     1      -8.135   5.913  68.279  1.00  0.00    -0.109 A  
HETATM   20  C   UNL     1      -8.696   6.791  69.219  1.00  0.00    -0.135 A  
BRANCH  20  21
HETATM   21  O   UNL     1      -8.992   6.283  70.500  1.00  0.00    -0.148 OA 
BRANCH  21  22
HETATM   22  C   UNL     1     -10.058   5.391  70.582  1.00  0.00    -0.231 C  
HETATM   23  O   UNL     1      -9.999   4.173  70.477  1.00  0.00    -0.201 OA 
HETATM   24  C   UNL     1     -11.308   6.142  70.934  1.00  0.00    -0.355 C  
ENDBRANCH  21  22
ENDBRANCH  20  21
ENDBRANCH  13  15
ENDBRANCH  12  13
ENDBRANCH   9  12
ENDBRANCH   3   6
TORSDOF 6
ENDMDL
MODEL      135
REMARK 921   NORMALIZED FREE ENERGY PREDICTED BY IDOCK:   -4.17 KCAL/MOL
REMARK 922        TOTAL FREE ENERGY PREDICTED BY IDOCK:   -7.10 KCAL/MOL
REMARK 923 INTER-LIGAND FREE ENERGY PREDICTED BY IDOCK:   -6.84 KCAL/MOL
REMARK 924 INTRA-LIGAND FREE ENERGY PREDICTED BY IDOCK:   -0.26 KCAL/MOL
REMARK 927      BINDING AFFINITY PREDICTED BY RF-SCORE:    0.00 PKD
ROOT
HETATM    1  C   UNL     1     -13.801  15.696  72.557  1.00  0.00    -0.642 C  
HETATM    2  C   UNL     1     -12.874  14.581  72.142  1.00  0.00    -0.339 C  
HETATM    3  N   UNL     1     -13.552  13.422  71.801  1.00  0.00    -0.366 N  
HETATM    4  O   UNL     1     -11.662  14.762  72.128  1.00  0.00    -0.310 OA 
HETATM    5  H   UNL     1     -14.570  13.452  71.862  1.00  0.00     0.000 HD 
ENDROOT
BRANCH   3   6
HETATM    6  C   UNL     1     -12.980  12.200  71.375  1.00  0.00    -0.257 A  
HETATM    7  C   UNL     1     -12.081  12.103  70.310  1.00  0.00    -0.385 A  
HETATM    8  C   UNL     1     -11.522  10.876  69.946  1.00  0.00    -0.402 A  
HETATM    9  C   UNL     1     -11.834   9.725  70.661  1.00  0.00    -0.281 A  
HETATM   10  C   UNL     1     -13.328  11.027  72.059  1.00  0.00    -0.393 A  
HETATM   11  C   UNL     1     -12.765   9.792  71.700  1.00  0.00    -0.517 A  
BRANCH   9  12
HETATM   12  O   UNL     1     -11.250   8.456  70.418  1.00  0.00    -0.256 OA 
BRANCH  12  13
HETATM   13  C   UNL     1     -11.846   7.249  70.792  1.00  0.00    -0.288 C  
HETATM   14  O   UNL     1     -13.040   7.007  70.862  1.00  0.00    -0.240 OA 
BRANCH  13  15
HETATM   15  C   UNL     1     -10.798   6.231  71.063  1.00  0.00    -0.326 A  
HETATM   16  C   UNL     1     -10.619   5.145  70.187  1.00  0.00    -0.225 A  
HETATM   17  C   UNL     1      -9.606   4.208  70.416  1.00  0.00    -0.266 A  
HETATM   18  C   UNL     1      -8.756   4.347  71.510  1.00  0.00    -0.140 A  
HETATM   19  C   UNL     1      -8.911   5.424  72.378  1.00  0.00    -0.132 A  
HETATM   20  C   UNL     1      -9.944   6.351  72.168  1.00  0.00    -0.165 A  
BRANCH  20  21
HETATM   21  O   UNL     1     -10.019   7.460  73.034  1.00  0.00    -0.201 OA 
BRANCH  21  22
HETATM   22  C   UNL     1      -8.856   8.211  73.184  1.00  0.00    -0.257 C  
HETATM   23  O   UNL     1      -8.271   8.446  74.234  1.00  0.00    -0.264 OA 
HETATM   24  C   UNL     1      -8.346   8.614  71.833  1.00  0.00    -0.189 C  
ENDBRANCH  21  22
ENDBRANCH  20  21
ENDBRANCH  13  15
ENDBRANCH  12  13
ENDBRANCH   9  12
ENDBRANCH   3   6
TORSDOF 6
ENDMDL
MODEL      136
REMARK 921   NORMALIZED FREE ENERGY PREDICTED BY IDOCK:   -4.17 KCAL/MOL
REMARK 922        TOTAL FREE ENERGY PREDICTED BY IDOCK:   -7.10 KCAL/MOL
REMARK 923 INTER-LIGAND FREE ENERGY PREDICTED BY IDOCK:   -6.41 KCAL/MOL
REMARK 924 INTRA-LIGAND FREE ENERGY PREDICTED BY IDOCK:   -0.69 KCAL/MOL
REMARK 927      BINDING AFFINITY PREDICTED BY RF-SCORE:    0.00 PKD
ROOT
HETATM    1  C   UNL     1     -13.765  13.332  72.158  1.00  0.00    -0.619 C  
HETATM    2  C   UNL     1     -13.081  12.103  71.615  1.00  0.00    -0.310 C  
HETATM    3  N   UNL     1     -13.471  10.943  72.266  1.00  0.00    -0.528 N  
HETATM    4  O   UNL     1     -12.283  12.201  70.690  1.00  0.00    -0.372 OA 
HETATM    5  H   UNL     1     -14.158  11.047  73.013  1.00  0.00     0.000 HD 
ENDROOT
BRANCH   3   6
HETATM    6  C   UNL     1     -13.016   9.630  72.002  1.00  0.00    -0.428 A  
HETATM    7  C   UNL     1     -13.861   8.588  71.611  1.00  0.00    -0.437 A  
HETATM    8  C   UNL     1     -13.358   7.315  71.336  1.00  0.00    -0.399 A  
HETATM    9  C   UNL     1     -11.993   7.068  71.421  1.00  0.00    -0.340 A  
HETATM   10  C   UNL     1     -11.647   9.360  72.134  1.00  0.00    -0.049 A  
HETATM   11  C   UNL     1     -11.136   8.083  71.853  1.00  0.00    -0.333 A  
BRANCH   9  12
HETATM   12  O   UNL     1     -11.385   5.834  71.077  1.00  0.00    -0.214 OA 
BRANCH  12  13
HETATM   13  C   UNL     1     -10.062   5.720  70.642  1.00  0.00    -0.203 C  
HETATM   14  O   UNL     1      -9.129   5.213  71.244  1.00  0.00    -0.139 OA 
BRANCH  13  15
HETATM   15  C   UNL     1      -9.932   6.277  69.270  1.00  0.00    -0.186 A  
HETATM   16  C   UNL     1     -10.939   6.053  68.314  1.00  0.00    -0.347 A  
HETATM   17  C   UNL     1     -10.839   6.610  67.035  1.00  0.00    -0.467 A  
HETATM   18  C   UNL     1      -9.744   7.402  66.698  1.00  0.00    -0.262 A  
HETATM   19  C   UNL     1      -8.747   7.646  67.639  1.00  0.00    -0.122 A  
HETATM   20  C   UNL     1      -8.828   7.065  68.913  1.00  0.00    -0.130 A  
BRANCH  20  21
HETATM   21  O   UNL     1      -7.829   7.394  69.851  1.00  0.00    -0.110 OA 
BRANCH  21  22
HETATM   22  C   UNL     1      -7.967   8.616  70.503  1.00  0.00    -0.106 C  
HETATM   23  O   UNL     1      -8.572   9.597  70.090  1.00  0.00    -0.193 OA 
HETATM   24  C   UNL     1      -7.344   8.528  71.864  1.00  0.00    -0.119 C  
ENDBRANCH  21  22
ENDBRANCH  20  21
ENDBRANCH  13  15
ENDBRANCH  12  13
ENDBRANCH   9  12
ENDBRANCH   3   6
TORSDOF 6
ENDMDL
MODEL      137
REMARK 921   NORMALIZED FREE ENERGY PREDICTED BY IDOCK:   -4.16 KCAL/MOL
REMARK 922        TOTAL FREE ENERGY PREDICTED BY IDOCK:   -7.10 KCAL/MOL
REMARK 923 INTER-LIGAND FREE ENERGY PREDICTED BY IDOCK:   -6.11 KCAL/MOL
REMARK 924 INTRA-LIGAND FREE ENERGY PREDICTED BY IDOCK:   -0.98 KCAL/MOL
REMARK 927      BINDING AFFINITY PREDICTED BY RF-SCORE:    0.00 PKD
ROOT
HETATM    1  C   UNL     1      -9.625   4.987  65.996  1.00  0.00    -0.179 C  
HETATM    2  C   UNL     1      -9.195   6.258  66.683  1.00  0.00    -0.146 C  
HETATM    3  N   UNL     1      -9.902   7.367  66.245  1.00  0.00    -0.442 N  
HETATM    4  O   UNL     1      -8.313   6.231  67.533  1.00  0.00    -0.112 OA 
HETATM    5  H   UNL     1     -10.613   7.204  65.532  1.00  0.00     0.000 HD 
ENDROOT
BRANCH   3   6
HETATM    6  C   UNL     1      -9.739   8.703  66.683  1.00  0.00    -0.247 A  
HETATM    7  C   UNL     1     -10.549   9.296  67.654  1.00  0.00    -0.324 A  
HETATM    8  C   UNL     1     -10.331  10.610  68.073  1.00  0.00    -0.208 A  
HETATM    9  C   UNL     1      -9.277  11.347  67.543  1.00  0.00    -0.160 A  
HETATM   10  C   UNL     1      -8.710   9.469  66.118  1.00  0.00    -0.162 A  
HETATM   11  C   UNL     1      -8.483  10.789  66.539  1.00  0.00    -0.147 A  
BRANCH   9  12
HETATM   12  O   UNL     1      -8.928  12.653  67.970  1.00  0.00    -0.186 OA 
BRANCH  12  13
HETATM   13  C   UNL     1      -8.991  13.778  67.142  1.00  0.00    -0.235 C  
HETATM   14  O   UNL     1      -8.115  14.608  66.960  1.00  0.00    -0.201 OA 
BRANCH  13  15
HETATM   15  C   UNL     1     -10.300  13.817  66.441  1.00  0.00    -0.290 A  
HETATM   16  C   UNL     1     -10.366  13.630  65.048  1.00  0.00    -0.393 A  
HETATM   17  C   UNL     1     -11.600  13.624  64.391  1.00  0.00    -0.421 A  
HETATM   18  C   UNL     1     -12.779  13.794  65.112  1.00  0.00    -0.439 A  
HETATM   19  C   UNL     1     -12.732  13.964  66.492  1.00  0.00    -0.074 A  
HETATM   20  C   UNL     1     -11.494  13.999  67.152  1.00  0.00    -0.352 A  
BRANCH  20  21
HETATM   21  O   UNL     1     -11.500  14.108  68.557  1.00  0.00    -0.265 OA 
BRANCH  21  22
HETATM   22  C   UNL     1     -11.640  15.391  69.080  1.00  0.00    -0.339 C  
HETATM   23  O   UNL     1     -11.354  16.441  68.520  1.00  0.00    -0.371 OA 
HETATM   24  C   UNL     1     -12.306  15.312  70.422  1.00  0.00    -0.422 C  
ENDBRANCH  21  22
ENDBRANCH  20  21
ENDBRANCH  13  15
ENDBRANCH  12  13
ENDBRANCH   9  12
ENDBRANCH   3   6
TORSDOF 6
ENDMDL
MODEL      138
REMARK 921   NORMALIZED FREE ENERGY PREDICTED BY IDOCK:   -4.16 KCAL/MOL
REMARK 922        TOTAL FREE ENERGY PREDICTED BY IDOCK:   -7.10 KCAL/MOL
REMARK 923 INTER-LIGAND FREE ENERGY PREDICTED BY IDOCK:   -6.85 KCAL/MOL
REMARK 924 INTRA-LIGAND FREE ENERGY PREDICTED BY IDOCK:   -0.24 KCAL/MOL
REMARK 927      BINDING AFFINITY PREDICTED BY RF-SCORE:    0.00 PKD
ROOT
HETATM    1  C   UNL     1      -6.810   6.829  67.135  1.00  0.00    -0.069 C  
HETATM    2  C   UNL     1      -7.421   8.028  67.816  1.00  0.00    -0.094 C  
HETATM    3  N   UNL     1      -8.784   7.889  68.020  1.00  0.00    -0.126 N  
HETATM    4  O   UNL     1      -6.718   8.981  68.129  1.00  0.00    -0.063 OA 
HETATM    5  H   UNL     1      -9.208   7.018  67.701  1.00  0.00     0.000 HD 
ENDROOT
BRANCH   3   6
HETATM    6  C   UNL     1      -9.650   8.830  68.626  1.00  0.00    -0.154 A  
HETATM    7  C   UNL     1      -9.751   9.003  70.008  1.00  0.00    -0.203 A  
HETATM    8  C   UNL     1     -10.601   9.965  70.556  1.00  0.00    -0.359 A  
HETATM    9  C   UNL     1     -11.349  10.793  69.726  1.00  0.00    -0.300 A  
HETATM   10  C   UNL     1     -10.444   9.635  67.797  1.00  0.00    -0.309 A  
HETATM   11  C   UNL     1     -11.297  10.607  68.343  1.00  0.00    -0.348 A  
BRANCH   9  12
HETATM   12  O   UNL     1     -12.170  11.851  70.190  1.00  0.00    -0.288 OA 
BRANCH  12  13
HETATM   13  C   UNL     1     -12.082  13.162  69.712  1.00  0.00    -0.270 C  
HETATM   14  O   UNL     1     -11.799  13.515  68.578  1.00  0.00    -0.329 OA 
BRANCH  13  15
HETATM   15  C   UNL     1     -12.439  14.118  70.791  1.00  0.00    -0.436 A  
HETATM   16  C   UNL     1     -13.656  13.986  71.485  1.00  0.00    -0.382 A  
HETATM   17  C   UNL     1     -13.975  14.859  72.530  1.00  0.00    -0.540 A  
HETATM   18  C   UNL     1     -13.086  15.864  72.901  1.00  0.00    -0.601 A  
HETATM   19  C   UNL     1     -11.871  15.999  72.235  1.00  0.00    -0.628 A  
HETATM   20  C   UNL     1     -11.559  15.143  71.167  1.00  0.00    -0.360 A  
BRANCH  20  21
HETATM   21  O   UNL     1     -10.291  15.276  70.567  1.00  0.00    -0.199 OA 
BRANCH  21  22
HETATM   22  C   UNL     1     -10.209  16.130  69.470  1.00  0.00    -0.261 C  
HETATM   23  O   UNL     1     -11.135  16.744  68.954  1.00  0.00    -0.288 OA 
HETATM   24  C   UNL     1      -8.774  16.280  69.062  1.00  0.00    -0.246 C  
ENDBRANCH  21  22
ENDBRANCH  20  21
ENDBRANCH  13  15
ENDBRANCH  12  13
ENDBRANCH   9  12
ENDBRANCH   3   6
TORSDOF 6
ENDMDL
MODEL      139
REMARK 921   NORMALIZED FREE ENERGY PREDICTED BY IDOCK:   -4.15 KCAL/MOL
REMARK 922        TOTAL FREE ENERGY PREDICTED BY IDOCK:   -7.08 KCAL/MOL
REMARK 923 INTER-LIGAND FREE ENERGY PREDICTED BY IDOCK:   -6.27 KCAL/MOL
REMARK 924 INTRA-LIGAND FREE ENERGY PREDICTED BY IDOCK:   -0.82 KCAL/MOL
REMARK 927      BINDING AFFINITY PREDICTED BY RF-SCORE:    0.00 PKD
ROOT
HETATM    1  C   UNL     1     -11.539  16.176  64.415  1.00  0.00    -0.146 C  
HETATM    2  C   UNL     1     -10.953  15.185  65.388  1.00  0.00    -0.374 C  
HETATM    3  N   UNL     1     -11.923  14.430  66.030  1.00  0.00    -0.385 N  
HETATM    4  O   UNL     1      -9.739  15.110  65.534  1.00  0.00    -0.332 OA 
HETATM    5  H   UNL     1     -12.892  14.621  65.777  1.00  0.00     0.000 HD 
ENDROOT
BRANCH   3   6
HETATM    6  C   UNL     1     -11.707  13.421  66.999  1.00  0.00    -0.381 A  
HETATM    7  C   UNL     1     -11.812  13.642  68.374  1.00  0.00    -0.407 A  
HETATM    8  C   UNL     1     -11.616  12.607  69.290  1.00  0.00    -0.376 A  
HETATM    9  C   UNL     1     -11.337  11.321  68.842  1.00  0.00    -0.275 A  
HETATM   10  C   UNL     1     -11.376  12.132  66.557  1.00  0.00    -0.405 A  
HETATM   11  C   UNL     1     -11.184  11.087  67.473  1.00  0.00    -0.372 A  
BRANCH   9  12
HETATM   12  O   UNL     1     -11.209  10.194  69.692  1.00  0.00    -0.246 OA 
BRANCH  12  13
HETATM   13  C   UNL     1      -9.996   9.541  69.932  1.00  0.00    -0.230 C  
HETATM   14  O   UNL     1      -8.893  10.053  70.036  1.00  0.00    -0.192 OA 
BRANCH  13  15
HETATM   15  C   UNL     1     -10.231   8.084  70.099  1.00  0.00    -0.203 A  
HETATM   16  C   UNL     1     -10.340   7.525  71.386  1.00  0.00    -0.209 A  
HETATM   17  C   UNL     1     -10.603   6.161  71.546  1.00  0.00    -0.288 A  
HETATM   18  C   UNL     1     -10.769   5.342  70.433  1.00  0.00    -0.276 A  
HETATM   19  C   UNL     1     -10.679   5.883  69.153  1.00  0.00    -0.394 A  
HETATM   20  C   UNL     1     -10.387   7.245  68.987  1.00  0.00    -0.205 A  
BRANCH  20  21
HETATM   21  O   UNL     1     -10.371   7.760  67.675  1.00  0.00    -0.206 OA 
BRANCH  21  22
HETATM   22  C   UNL     1      -9.121   7.897  67.076  1.00  0.00    -0.137 C  
HETATM   23  O   UNL     1      -8.461   8.924  66.996  1.00  0.00    -0.111 OA 
HETATM   24  C   UNL     1      -8.637   6.552  66.623  1.00  0.00    -0.118 C  
ENDBRANCH  21  22
ENDBRANCH  20  21
ENDBRANCH  13  15
ENDBRANCH  12  13
ENDBRANCH   9  12
ENDBRANCH   3   6
TORSDOF 6
ENDMDL
MODEL      140
REMARK 921   NORMALIZED FREE ENERGY PREDICTED BY IDOCK:   -4.13 KCAL/MOL
REMARK 922        TOTAL FREE ENERGY PREDICTED BY IDOCK:   -7.06 KCAL/MOL
REMARK 923 INTER-LIGAND FREE ENERGY PREDICTED BY IDOCK:   -6.14 KCAL/MOL
REMARK 924 INTRA-LIGAND FREE ENERGY PREDICTED BY IDOCK:   -0.92 KCAL/MOL
REMARK 927      BINDING AFFINITY PREDICTED BY RF-SCORE:    0.00 PKD
ROOT
HETATM    1  C   UNL     1      -8.275  20.262  67.317  1.00  0.00    -0.393 C  
HETATM    2  C   UNL     1      -8.667  18.857  67.697  1.00  0.00    -0.288 C  
HETATM    3  N   UNL     1      -9.757  18.393  66.977  1.00  0.00    -0.299 N  
HETATM    4  O   UNL     1      -8.035  18.252  68.555  1.00  0.00    -0.296 OA 
HETATM    5  H   UNL     1     -10.157  19.033  66.290  1.00  0.00     0.000 HD 
ENDROOT
BRANCH   3   6
HETATM    6  C   UNL     1     -10.373  17.125  67.095  1.00  0.00    -0.307 A  
HETATM    7  C   UNL     1     -10.430  16.198  66.051  1.00  0.00    -0.349 A  
HETATM    8  C   UNL     1     -11.026  14.948  66.227  1.00  0.00    -0.338 A  
HETATM    9  C   UNL     1     -11.554  14.592  67.463  1.00  0.00    -0.381 A  
HETATM   10  C   UNL     1     -10.952  16.777  68.324  1.00  0.00    -0.327 A  
HETATM   11  C   UNL     1     -11.547  15.519  68.507  1.00  0.00    -0.379 A  
BRANCH   9  12
HETATM   12  O   UNL     1     -12.098  13.316  67.756  1.00  0.00    -0.331 OA 
BRANCH  12  13
HETATM   13  C   UNL     1     -11.539  12.434  68.685  1.00  0.00    -0.319 C  
HETATM   14  O   UNL     1     -11.825  12.330  69.867  1.00  0.00    -0.321 OA 
BRANCH  13  15
HETATM   15  C   UNL     1     -10.539  11.563  68.016  1.00  0.00    -0.222 A  
HETATM   16  C   UNL     1     -10.945  10.386  67.360  1.00  0.00    -0.335 A  
HETATM   17  C   UNL     1     -10.012   9.587  66.694  1.00  0.00    -0.314 A  
HETATM   18  C   UNL     1      -8.669   9.952  66.664  1.00  0.00    -0.138 A  
HETATM   19  C   UNL     1      -8.252  11.121  67.295  1.00  0.00    -0.136 A  
HETATM   20  C   UNL     1      -9.181  11.912  67.989  1.00  0.00    -0.190 A  
BRANCH  20  21
HETATM   21  O   UNL     1      -8.724  13.119  68.556  1.00  0.00    -0.146 OA 
BRANCH  21  22
HETATM   22  C   UNL     1      -7.415  13.488  68.259  1.00  0.00    -0.122 C  
HETATM   23  O   UNL     1      -6.396  12.926  68.640  1.00  0.00    -0.066 OA 
HETATM   24  C   UNL     1      -7.428  14.638  67.297  1.00  0.00    -0.148 C  
ENDBRANCH  21  22
ENDBRANCH  20  21
ENDBRANCH  13  15
ENDBRANCH  12  13
ENDBRANCH   9  12
ENDBRANCH   3   6
TORSDOF 6
ENDMDL
MODEL      141
REMARK 921   NORMALIZED FREE ENERGY PREDICTED BY IDOCK:   -4.13 KCAL/MOL
REMARK 922        TOTAL FREE ENERGY PREDICTED BY IDOCK:   -7.05 KCAL/MOL
REMARK 923 INTER-LIGAND FREE ENERGY PREDICTED BY IDOCK:   -6.22 KCAL/MOL
REMARK 924 INTRA-LIGAND FREE ENERGY PREDICTED BY IDOCK:   -0.83 KCAL/MOL
REMARK 927      BINDING AFFINITY PREDICTED BY RF-SCORE:    0.00 PKD
ROOT
HETATM    1  C   UNL     1      -9.710   4.117  69.460  1.00  0.00    -0.254 C  
HETATM    2  C   UNL     1     -10.259   5.511  69.293  1.00  0.00    -0.245 C  
HETATM    3  N   UNL     1      -9.366   6.364  68.665  1.00  0.00    -0.125 N  
HETATM    4  O   UNL     1     -11.387   5.781  69.689  1.00  0.00    -0.281 OA 
HETATM    5  H   UNL     1      -8.467   5.965  68.392  1.00  0.00     0.000 HD 
ENDROOT
BRANCH   3   6
HETATM    6  C   UNL     1      -9.570   7.732  68.362  1.00  0.00    -0.152 A  
HETATM    7  C   UNL     1      -9.946   8.191  67.098  1.00  0.00    -0.304 A  
HETATM    8  C   UNL     1     -10.162   9.549  66.857  1.00  0.00    -0.317 A  
HETATM    9  C   UNL     1     -10.030  10.472  67.888  1.00  0.00    -0.169 A  
HETATM   10  C   UNL     1      -9.391   8.674  69.385  1.00  0.00    -0.150 A  
HETATM   11  C   UNL     1      -9.612  10.040  69.149  1.00  0.00    -0.217 A  
BRANCH   9  12
HETATM   12  O   UNL     1     -10.313  11.855  67.758  1.00  0.00    -0.192 OA 
BRANCH  12  13
HETATM   13  C   UNL     1      -9.570  12.722  66.951  1.00  0.00    -0.235 C  
HETATM   14  O   UNL     1      -8.368  12.931  67.006  1.00  0.00    -0.174 OA 
BRANCH  13  15
HETATM   15  C   UNL     1     -10.455  13.354  65.939  1.00  0.00    -0.287 A  
HETATM   16  C   UNL     1     -11.343  12.569  65.182  1.00  0.00    -0.352 A  
HETATM   17  C   UNL     1     -12.207  13.167  64.259  1.00  0.00    -0.463 A  
HETATM   18  C   UNL     1     -12.204  14.548  64.086  1.00  0.00    -0.372 A  
HETATM   19  C   UNL     1     -11.341  15.340  64.839  1.00  0.00    -0.387 A  
HETATM   20  C   UNL     1     -10.452  14.743  65.746  1.00  0.00    -0.334 A  
BRANCH  20  21
HETATM   21  O   UNL     1      -9.646  15.590  66.532  1.00  0.00    -0.239 OA 
BRANCH  21  22
HETATM   22  C   UNL     1     -10.311  16.529  67.316  1.00  0.00    -0.296 C  
HETATM   23  O   UNL     1     -10.346  17.738  67.131  1.00  0.00    -0.335 OA 
HETATM   24  C   UNL     1     -11.085  15.823  68.388  1.00  0.00    -0.341 C  
ENDBRANCH  21  22
ENDBRANCH  20  21
ENDBRANCH  13  15
ENDBRANCH  12  13
ENDBRANCH   9  12
ENDBRANCH   3   6
TORSDOF 6
ENDMDL
MODEL      142
REMARK 921   NORMALIZED FREE ENERGY PREDICTED BY IDOCK:   -4.12 KCAL/MOL
REMARK 922        TOTAL FREE ENERGY PREDICTED BY IDOCK:   -7.05 KCAL/MOL
REMARK 923 INTER-LIGAND FREE ENERGY PREDICTED BY IDOCK:   -6.33 KCAL/MOL
REMARK 924 INTRA-LIGAND FREE ENERGY PREDICTED BY IDOCK:   -0.71 KCAL/MOL
REMARK 927      BINDING AFFINITY PREDICTED BY RF-SCORE:    0.00 PKD
ROOT
HETATM    1  C   UNL     1     -12.190  14.761  64.472  1.00  0.00    -0.443 C  
HETATM    2  C   UNL     1     -12.372  13.466  65.222  1.00  0.00    -0.469 C  
HETATM    3  N   UNL     1     -11.480  13.328  66.274  1.00  0.00    -0.313 N  
HETATM    4  O   UNL     1     -13.243  12.674  64.881  1.00  0.00    -0.819 OA 
HETATM    5  H   UNL     1     -10.824  14.095  66.421  1.00  0.00     0.000 HD 
ENDROOT
BRANCH   3   6
HETATM    6  C   UNL     1     -11.385  12.234  67.166  1.00  0.00    -0.335 A  
HETATM    7  C   UNL     1     -10.868  10.988  66.802  1.00  0.00    -0.307 A  
HETATM    8  C   UNL     1     -10.770   9.947  67.727  1.00  0.00    -0.332 A  
HETATM    9  C   UNL     1     -11.165  10.144  69.046  1.00  0.00    -0.173 A  
HETATM   10  C   UNL     1     -11.827  12.409  68.485  1.00  0.00    -0.352 A  
HETATM   11  C   UNL     1     -11.726  11.367  69.421  1.00  0.00    -0.406 A  
BRANCH   9  12
HETATM   12  O   UNL     1     -11.022   9.176  70.071  1.00  0.00    -0.231 OA 
BRANCH  12  13
HETATM   13  C   UNL     1      -9.812   8.911  70.719  1.00  0.00    -0.223 C  
HETATM   14  O   UNL     1      -9.522   9.176  71.875  1.00  0.00    -0.332 OA 
BRANCH  13  15
HETATM   15  C   UNL     1      -8.893   8.192  69.800  1.00  0.00    -0.143 A  
HETATM   16  C   UNL     1      -7.629   8.730  69.494  1.00  0.00    -0.080 A  
HETATM   17  C   UNL     1      -6.745   8.035  68.662  1.00  0.00    -0.062 A  
HETATM   18  C   UNL     1      -7.103   6.797  68.136  1.00  0.00    -0.086 A  
HETATM   19  C   UNL     1      -8.343   6.244  68.442  1.00  0.00    -0.115 A  
HETATM   20  C   UNL     1      -9.245   6.950  69.252  1.00  0.00    -0.139 A  
BRANCH  20  21
HETATM   21  O   UNL     1     -10.461   6.321  69.587  1.00  0.00    -0.198 OA 
BRANCH  21  22
HETATM   22  C   UNL     1     -10.389   5.282  70.512  1.00  0.00    -0.266 C  
HETATM   23  O   UNL     1      -9.926   4.166  70.317  1.00  0.00    -0.201 OA 
HETATM   24  C   UNL     1     -10.874   5.768  71.845  1.00  0.00    -0.309 C  
ENDBRANCH  21  22
ENDBRANCH  20  21
ENDBRANCH  13  15
ENDBRANCH  12  13
ENDBRANCH   9  12
ENDBRANCH   3   6
TORSDOF 6
ENDMDL
MODEL      143
REMARK 921   NORMALIZED FREE ENERGY PREDICTED BY IDOCK:   -4.12 KCAL/MOL
REMARK 922        TOTAL FREE ENERGY PREDICTED BY IDOCK:   -7.04 KCAL/MOL
REMARK 923 INTER-LIGAND FREE ENERGY PREDICTED BY IDOCK:   -6.35 KCAL/MOL
REMARK 924 INTRA-LIGAND FREE ENERGY PREDICTED BY IDOCK:   -0.69 KCAL/MOL
REMARK 927      BINDING AFFINITY PREDICTED BY RF-SCORE:    0.00 PKD
ROOT
HETATM    1  C   UNL     1      -6.839   6.011  63.359  1.00  0.00    -0.040 C  
HETATM    2  C   UNL     1      -7.218   6.854  64.550  1.00  0.00    -0.073 C  
HETATM    3  N   UNL     1      -8.110   7.865  64.227  1.00  0.00    -0.253 N  
HETATM    4  O   UNL     1      -6.751   6.604  65.655  1.00  0.00    -0.048 OA 
HETATM    5  H   UNL     1      -8.403   7.921  63.251  1.00  0.00     0.000 HD 
ENDROOT
BRANCH   3   6
HETATM    6  C   UNL     1      -8.656   8.827  65.109  1.00  0.00    -0.182 A  
HETATM    7  C   UNL     1      -8.404  10.197  65.004  1.00  0.00    -0.158 A  
HETATM    8  C   UNL     1      -8.989  11.109  65.883  1.00  0.00    -0.210 A  
HETATM    9  C   UNL     1      -9.862  10.667  66.871  1.00  0.00    -0.188 A  
HETATM   10  C   UNL     1      -9.499   8.384  66.139  1.00  0.00    -0.263 A  
HETATM   11  C   UNL     1     -10.094   9.298  67.022  1.00  0.00    -0.313 A  
BRANCH   9  12
HETATM   12  O   UNL     1     -10.568  11.527  67.750  1.00  0.00    -0.181 OA 
BRANCH  12  13
HETATM   13  C   UNL     1     -11.654  12.312  67.355  1.00  0.00    -0.355 C  
HETATM   14  O   UNL     1     -12.402  12.114  66.410  1.00  0.00    -0.489 OA 
BRANCH  13  15
HETATM   15  C   UNL     1     -11.827  13.448  68.297  1.00  0.00    -0.393 A  
HETATM   16  C   UNL     1     -12.057  13.208  69.664  1.00  0.00    -0.317 A  
HETATM   17  C   UNL     1     -12.178  14.275  70.560  1.00  0.00    -0.427 A  
HETATM   18  C   UNL     1     -12.061  15.587  70.110  1.00  0.00    -0.404 A  
HETATM   19  C   UNL     1     -11.817  15.840  68.763  1.00  0.00    -0.321 A  
HETATM   20  C   UNL     1     -11.724  14.774  67.855  1.00  0.00    -0.341 A  
BRANCH  20  21
HETATM   21  O   UNL     1     -11.412  15.077  66.515  1.00  0.00    -0.330 OA 
BRANCH  21  22
HETATM   22  C   UNL     1     -10.183  15.691  66.287  1.00  0.00    -0.299 C  
HETATM   23  O   UNL     1      -9.997  16.762  65.725  1.00  0.00    -0.492 OA 
HETATM   24  C   UNL     1      -9.097  14.886  66.936  1.00  0.00    -0.271 C  
ENDBRANCH  21  22
ENDBRANCH  20  21
ENDBRANCH  13  15
ENDBRANCH  12  13
ENDBRANCH   9  12
ENDBRANCH   3   6
TORSDOF 6
ENDMDL
MODEL      144
REMARK 921   NORMALIZED FREE ENERGY PREDICTED BY IDOCK:   -4.12 KCAL/MOL
REMARK 922        TOTAL FREE ENERGY PREDICTED BY IDOCK:   -7.04 KCAL/MOL
REMARK 923 INTER-LIGAND FREE ENERGY PREDICTED BY IDOCK:   -6.36 KCAL/MOL
REMARK 924 INTRA-LIGAND FREE ENERGY PREDICTED BY IDOCK:   -0.68 KCAL/MOL
REMARK 927      BINDING AFFINITY PREDICTED BY RF-SCORE:    0.00 PKD
ROOT
HETATM    1  C   UNL     1      -5.577   6.835  68.647  1.00  0.00    -0.017 C  
HETATM    2  C   UNL     1      -6.501   8.023  68.563  1.00  0.00    -0.054 C  
HETATM    3  N   UNL     1      -7.811   7.705  68.884  1.00  0.00    -0.120 N  
HETATM    4  O   UNL     1      -6.062   9.123  68.245  1.00  0.00    -0.051 OA 
HETATM    5  H   UNL     1      -7.997   6.734  69.136  1.00  0.00     0.000 HD 
ENDROOT
BRANCH   3   6
HETATM    6  C   UNL     1      -8.918   8.586  68.897  1.00  0.00    -0.146 A  
HETATM    7  C   UNL     1      -9.363   9.242  70.047  1.00  0.00    -0.232 A  
HETATM    8  C   UNL     1     -10.445  10.124  70.003  1.00  0.00    -0.325 A  
HETATM    9  C   UNL     1     -11.086  10.385  68.797  1.00  0.00    -0.250 A  
HETATM   10  C   UNL     1      -9.601   8.817  67.695  1.00  0.00    -0.179 A  
HETATM   11  C   UNL     1     -10.685   9.707  67.644  1.00  0.00    -0.324 A  
BRANCH   9  12
HETATM   12  O   UNL     1     -12.133  11.328  68.642  1.00  0.00    -0.543 OA 
BRANCH  12  13
HETATM   13  C   UNL     1     -12.002  12.514  67.915  1.00  0.00    -0.223 C  
HETATM   14  O   UNL     1     -12.043  12.643  66.702  1.00  0.00    -0.519 OA 
BRANCH  13  15
HETATM   15  C   UNL     1     -11.844  13.663  68.844  1.00  0.00    -0.402 A  
HETATM   16  C   UNL     1     -12.166  13.523  70.207  1.00  0.00    -0.417 A  
HETATM   17  C   UNL     1     -11.979  14.589  71.092  1.00  0.00    -0.401 A  
HETATM   18  C   UNL     1     -11.462  15.799  70.636  1.00  0.00    -0.415 A  
HETATM   19  C   UNL     1     -11.124  15.948  69.293  1.00  0.00    -0.312 A  
HETATM   20  C   UNL     1     -11.337  14.890  68.396  1.00  0.00    -0.303 A  
BRANCH  20  21
HETATM   21  O   UNL     1     -10.919  15.066  67.061  1.00  0.00    -0.307 OA 
BRANCH  21  22
HETATM   22  C   UNL     1      -9.544  15.064  66.836  1.00  0.00    -0.239 C  
HETATM   23  O   UNL     1      -8.762  14.165  67.114  1.00  0.00    -0.209 OA 
HETATM   24  C   UNL     1      -9.162  16.307  66.089  1.00  0.00    -0.376 C  
ENDBRANCH  21  22
ENDBRANCH  20  21
ENDBRANCH  13  15
ENDBRANCH  12  13
ENDBRANCH   9  12
ENDBRANCH   3   6
TORSDOF 6
ENDMDL
MODEL      145
REMARK 921   NORMALIZED FREE ENERGY PREDICTED BY IDOCK:   -4.11 KCAL/MOL
REMARK 922        TOTAL FREE ENERGY PREDICTED BY IDOCK:   -7.03 KCAL/MOL
REMARK 923 INTER-LIGAND FREE ENERGY PREDICTED BY IDOCK:   -6.17 KCAL/MOL
REMARK 924 INTRA-LIGAND FREE ENERGY PREDICTED BY IDOCK:   -0.86 KCAL/MOL
REMARK 927      BINDING AFFINITY PREDICTED BY RF-SCORE:    0.00 PKD
ROOT
HETATM    1  C   UNL     1     -10.696  16.383  67.333  1.00  0.00    -0.278 C  
HETATM    2  C   UNL     1     -10.189  15.153  68.042  1.00  0.00    -0.230 C  
HETATM    3  N   UNL     1     -11.084  14.096  67.983  1.00  0.00    -0.259 N  
HETATM    4  O   UNL     1      -9.089  15.162  68.583  1.00  0.00    -0.179 OA 
HETATM    5  H   UNL     1     -11.956  14.263  67.480  1.00  0.00     0.000 HD 
ENDROOT
BRANCH   3   6
HETATM    6  C   UNL     1     -10.915  12.810  68.549  1.00  0.00    -0.258 A  
HETATM    7  C   UNL     1     -11.765  12.282  69.524  1.00  0.00    -0.398 A  
HETATM    8  C   UNL     1     -11.571  10.996  70.031  1.00  0.00    -0.427 A  
HETATM    9  C   UNL     1     -10.535  10.202  69.550  1.00  0.00    -0.241 A  
HETATM   10  C   UNL     1      -9.843  12.023  68.105  1.00  0.00    -0.201 A  
HETATM   11  C   UNL     1      -9.648  10.727  68.609  1.00  0.00    -0.187 A  
BRANCH   9  12
HETATM   12  O   UNL     1     -10.316   8.858  69.943  1.00  0.00    -0.194 OA 
BRANCH  12  13
HETATM   13  C   UNL     1      -9.520   8.492  71.031  1.00  0.00    -0.186 C  
HETATM   14  O   UNL     1      -8.685   9.179  71.598  1.00  0.00    -0.343 OA 
BRANCH  13  15
HETATM   15  C   UNL     1      -9.861   7.113  71.466  1.00  0.00    -0.176 A  
HETATM   16  C   UNL     1      -9.020   6.034  71.135  1.00  0.00    -0.142 A  
HETATM   17  C   UNL     1      -9.316   4.742  71.579  1.00  0.00    -0.197 A  
HETATM   18  C   UNL     1     -10.443   4.510  72.363  1.00  0.00    -0.235 A  
HETATM   19  C   UNL     1     -11.277   5.569  72.712  1.00  0.00    -0.358 A  
HETATM   20  C   UNL     1     -10.999   6.863  72.245  1.00  0.00    -0.242 A  
BRANCH  20  21
HETATM   21  O   UNL     1     -11.834   7.912  72.679  1.00  0.00    -0.353 OA 
BRANCH  21  22
HETATM   22  C   UNL     1     -13.018   8.098  71.969  1.00  0.00    -0.305 C  
HETATM   23  O   UNL     1     -13.464   7.369  71.093  1.00  0.00    -0.305 OA 
HETATM   24  C   UNL     1     -13.742   9.292  72.515  1.00  0.00    -0.475 C  
ENDBRANCH  21  22
ENDBRANCH  20  21
ENDBRANCH  13  15
ENDBRANCH  12  13
ENDBRANCH   9  12
ENDBRANCH   3   6
TORSDOF 6
ENDMDL
MODEL      146
REMARK 921   NORMALIZED FREE ENERGY PREDICTED BY IDOCK:   -4.07 KCAL/MOL
REMARK 922        TOTAL FREE ENERGY PREDICTED BY IDOCK:   -6.98 KCAL/MOL
REMARK 923 INTER-LIGAND FREE ENERGY PREDICTED BY IDOCK:   -6.00 KCAL/MOL
REMARK 924 INTRA-LIGAND FREE ENERGY PREDICTED BY IDOCK:   -0.98 KCAL/MOL
REMARK 927      BINDING AFFINITY PREDICTED BY RF-SCORE:    0.00 PKD
ROOT
HETATM    1  C   UNL     1      -9.402  10.051  62.538  1.00  0.00    -0.297 C  
HETATM    2  C   UNL     1      -9.816  10.424  63.939  1.00  0.00    -0.267 C  
HETATM    3  N   UNL     1      -9.340   9.537  64.891  1.00  0.00    -0.380 N  
HETATM    4  O   UNL     1     -10.496  11.425  64.134  1.00  0.00    -0.306 OA 
HETATM    5  H   UNL     1      -8.777   8.758  64.549  1.00  0.00     0.000 HD 
ENDROOT
BRANCH   3   6
HETATM    6  C   UNL     1      -9.552   9.599  66.289  1.00  0.00    -0.221 A  
HETATM    7  C   UNL     1     -10.482   8.802  66.960  1.00  0.00    -0.338 A  
HETATM    8  C   UNL     1     -10.636   8.882  68.346  1.00  0.00    -0.190 A  
HETATM    9  C   UNL     1      -9.839   9.745  69.089  1.00  0.00    -0.188 A  
HETATM   10  C   UNL     1      -8.788  10.503  67.040  1.00  0.00    -0.142 A  
HETATM   11  C   UNL     1      -8.934  10.583  68.433  1.00  0.00    -0.141 A  
BRANCH   9  12
HETATM   12  O   UNL     1      -9.864   9.830  70.504  1.00  0.00    -0.260 OA 
BRANCH  12  13
HETATM   13  C   UNL     1      -9.220   8.917  71.343  1.00  0.00    -0.258 C  
HETATM   14  O   UNL     1      -8.185   9.092  71.966  1.00  0.00    -0.360 OA 
BRANCH  13  15
HETATM   15  C   UNL     1     -10.011   7.662  71.427  1.00  0.00    -0.203 A  
HETATM   16  C   UNL     1      -9.461   6.445  70.984  1.00  0.00    -0.181 A  
HETATM   17  C   UNL     1     -10.187   5.255  71.100  1.00  0.00    -0.294 A  
HETATM   18  C   UNL     1     -11.459   5.261  71.666  1.00  0.00     0.304 A  
HETATM   19  C   UNL     1     -12.011   6.455  72.123  1.00  0.00    -0.346 A  
HETATM   20  C   UNL     1     -11.298   7.655  71.983  1.00  0.00    -0.278 A  
BRANCH  20  21
HETATM   21  O   UNL     1     -11.869   8.826  72.520  1.00  0.00    -0.334 OA 
BRANCH  21  22
HETATM   22  C   UNL     1     -13.175   9.115  72.132  1.00  0.00    -0.458 C  
HETATM   23  O   UNL     1     -14.197   8.820  72.739  1.00  0.00    -0.520 OA 
HETATM   24  C   UNL     1     -13.151   9.951  70.887  1.00  0.00    -0.344 C  
ENDBRANCH  21  22
ENDBRANCH  20  21
ENDBRANCH  13  15
ENDBRANCH  12  13
ENDBRANCH   9  12
ENDBRANCH   3   6
TORSDOF 6
ENDMDL
MODEL      147
REMARK 921   NORMALIZED FREE ENERGY PREDICTED BY IDOCK:   -4.07 KCAL/MOL
REMARK 922        TOTAL FREE ENERGY PREDICTED BY IDOCK:   -6.97 KCAL/MOL
REMARK 923 INTER-LIGAND FREE ENERGY PREDICTED BY IDOCK:   -6.31 KCAL/MOL
REMARK 924 INTRA-LIGAND FREE ENERGY PREDICTED BY IDOCK:   -0.67 KCAL/MOL
REMARK 927      BINDING AFFINITY PREDICTED BY RF-SCORE:    0.00 PKD
ROOT
HETATM    1  C   UNL     1     -11.036   5.513  73.242  1.00  0.00    -0.322 C  
HETATM    2  C   UNL     1     -11.295   6.453  72.091  1.00  0.00    -0.290 C  
HETATM    3  N   UNL     1     -11.319   7.782  72.482  1.00  0.00    -0.348 N  
HETATM    4  O   UNL     1     -11.449   6.011  70.958  1.00  0.00    -0.280 OA 
HETATM    5  H   UNL     1     -11.161   7.971  73.472  1.00  0.00     0.000 HD 
ENDROOT
BRANCH   3   6
HETATM    6  C   UNL     1     -11.540   8.906  71.650  1.00  0.00    -0.338 A  
HETATM    7  C   UNL     1     -12.733   9.632  71.642  1.00  0.00    -0.499 A  
HETATM    8  C   UNL     1     -12.893  10.751  70.822  1.00  0.00    -0.408 A  
HETATM    9  C   UNL     1     -11.847  11.179  70.013  1.00  0.00    -0.361 A  
HETATM   10  C   UNL     1     -10.508   9.315  70.795  1.00  0.00    -0.343 A  
HETATM   11  C   UNL     1     -10.662  10.442  69.972  1.00  0.00    -0.321 A  
BRANCH   9  12
HETATM   12  O   UNL     1     -11.888  12.351  69.215  1.00  0.00    -0.303 OA 
BRANCH  12  13
HETATM   13  C   UNL     1     -11.583  12.367  67.852  1.00  0.00    -0.356 C  
HETATM   14  O   UNL     1     -12.369  12.302  66.920  1.00  0.00    -0.417 OA 
BRANCH  13  15
HETATM   15  C   UNL     1     -10.118  12.528  67.663  1.00  0.00    -0.217 A  
HETATM   16  C   UNL     1      -9.439  13.608  68.258  1.00  0.00    -0.213 A  
HETATM   17  C   UNL     1      -8.054  13.739  68.117  1.00  0.00    -0.155 A  
HETATM   18  C   UNL     1      -7.330  12.795  67.394  1.00  0.00    -0.135 A  
HETATM   19  C   UNL     1      -7.984  11.712  66.813  1.00  0.00    -0.140 A  
HETATM   20  C   UNL     1      -9.378  11.592  66.927  1.00  0.00    -0.188 A  
BRANCH  20  21
HETATM   21  O   UNL     1      -9.987  10.446  66.378  1.00  0.00    -0.204 OA 
BRANCH  21  22
HETATM   22  C   UNL     1      -9.284   9.250  66.500  1.00  0.00    -0.161 C  
HETATM   23  O   UNL     1      -9.117   8.606  67.527  1.00  0.00    -0.133 OA 
HETATM   24  C   UNL     1      -8.837   8.795  65.143  1.00  0.00    -0.177 C  
ENDBRANCH  21  22
ENDBRANCH  20  21
ENDBRANCH  13  15
ENDBRANCH  12  13
ENDBRANCH   9  12
ENDBRANCH   3   6
TORSDOF 6
ENDMDL
MODEL      148
REMARK 921   NORMALIZED FREE ENERGY PREDICTED BY IDOCK:   -4.07 KCAL/MOL
REMARK 922        TOTAL FREE ENERGY PREDICTED BY IDOCK:   -6.97 KCAL/MOL
REMARK 923 INTER-LIGAND FREE ENERGY PREDICTED BY IDOCK:   -6.00 KCAL/MOL
REMARK 924 INTRA-LIGAND FREE ENERGY PREDICTED BY IDOCK:   -0.98 KCAL/MOL
REMARK 927      BINDING AFFINITY PREDICTED BY RF-SCORE:    0.00 PKD
ROOT
HETATM    1  C   UNL     1     -12.277  14.846  64.273  1.00  0.00    -0.365 C  
HETATM    2  C   UNL     1     -12.100  13.361  64.462  1.00  0.00    -0.409 C  
HETATM    3  N   UNL     1     -11.287  13.054  65.542  1.00  0.00    -0.295 N  
HETATM    4  O   UNL     1     -12.654  12.573  63.704  1.00  0.00    -0.671 OA 
HETATM    5  H   UNL     1     -10.915  13.841  66.073  1.00  0.00     0.000 HD 
ENDROOT
BRANCH   3   6
HETATM    6  C   UNL     1     -10.920  11.761  65.985  1.00  0.00    -0.306 A  
HETATM    7  C   UNL     1     -11.265  11.252  67.239  1.00  0.00    -0.364 A  
HETATM    8  C   UNL     1     -10.902   9.958  67.620  1.00  0.00    -0.318 A  
HETATM    9  C   UNL     1     -10.207   9.139  66.737  1.00  0.00    -0.261 A  
HETATM   10  C   UNL     1     -10.176  10.946  65.120  1.00  0.00    -0.360 A  
HETATM   11  C   UNL     1      -9.813   9.643  65.495  1.00  0.00    -0.352 A  
BRANCH   9  12
HETATM   12  O   UNL     1      -9.873   7.787  67.003  1.00  0.00    -0.179 OA 
BRANCH  12  13
HETATM   13  C   UNL     1      -8.800   7.402  67.811  1.00  0.00    -0.128 C  
HETATM   14  O   UNL     1      -7.709   7.945  67.896  1.00  0.00    -0.119 OA 
BRANCH  13  15
HETATM   15  C   UNL     1      -9.181   6.223  68.630  1.00  0.00    -0.124 A  
HETATM   16  C   UNL     1      -8.969   4.920  68.142  1.00  0.00    -0.123 A  
HETATM   17  C   UNL     1      -9.288   3.808  68.927  1.00  0.00    -0.234 A  
HETATM   18  C   UNL     1      -9.811   3.978  70.206  1.00  0.00    -0.205 A  
HETATM   19  C   UNL     1     -10.012   5.260  70.710  1.00  0.00    -0.279 A  
HETATM   20  C   UNL     1      -9.721   6.379  69.914  1.00  0.00    -0.166 A  
BRANCH  20  21
HETATM   21  O   UNL     1      -9.879   7.656  70.491  1.00  0.00    -0.183 OA 
BRANCH  21  22
HETATM   22  C   UNL     1      -8.983   7.997  71.501  1.00  0.00    -0.143 C  
HETATM   23  O   UNL     1      -7.769   8.111  71.389  1.00  0.00    -0.078 OA 
HETATM   24  C   UNL     1      -9.743   8.317  72.753  1.00  0.00    -0.336 C  
ENDBRANCH  21  22
ENDBRANCH  20  21
ENDBRANCH  13  15
ENDBRANCH  12  13
ENDBRANCH   9  12
ENDBRANCH   3   6
TORSDOF 6
ENDMDL
MODEL      149
REMARK 921   NORMALIZED FREE ENERGY PREDICTED BY IDOCK:   -4.05 KCAL/MOL
REMARK 922        TOTAL FREE ENERGY PREDICTED BY IDOCK:   -6.95 KCAL/MOL
REMARK 923 INTER-LIGAND FREE ENERGY PREDICTED BY IDOCK:   -5.91 KCAL/MOL
REMARK 924 INTRA-LIGAND FREE ENERGY PREDICTED BY IDOCK:   -1.04 KCAL/MOL
REMARK 927      BINDING AFFINITY PREDICTED BY RF-SCORE:    0.00 PKD
ROOT
HETATM    1  C   UNL     1      -8.790   2.233  64.739  1.00  0.00    -0.118 C  
HETATM    2  C   UNL     1      -9.599   3.488  64.947  1.00  0.00    -0.166 C  
HETATM    3  N   UNL     1      -9.033   4.339  65.884  1.00  0.00    -0.120 N  
HETATM    4  O   UNL     1     -10.632   3.667  64.313  1.00  0.00    -0.242 OA 
HETATM    5  H   UNL     1      -8.159   4.032  66.311  1.00  0.00     0.000 HD 
ENDROOT
BRANCH   3   6
HETATM    6  C   UNL     1      -9.542   5.589  66.310  1.00  0.00    -0.156 A  
HETATM    7  C   UNL     1     -10.690   5.724  67.093  1.00  0.00    -0.358 A  
HETATM    8  C   UNL     1     -11.137   6.979  67.510  1.00  0.00    -0.231 A  
HETATM    9  C   UNL     1     -10.423   8.124  67.172  1.00  0.00    -0.326 A  
HETATM   10  C   UNL     1      -8.855   6.751  65.931  1.00  0.00    -0.127 A  
HETATM   11  C   UNL     1      -9.297   8.015  66.353  1.00  0.00    -0.259 A  
BRANCH   9  12
HETATM   12  O   UNL     1     -10.751   9.427  67.623  1.00  0.00    -0.273 OA 
BRANCH  12  13
HETATM   13  C   UNL     1      -9.968  10.152  68.525  1.00  0.00    -0.163 C  
HETATM   14  O   UNL     1      -9.382  11.202  68.315  1.00  0.00    -0.162 OA 
BRANCH  13  15
HETATM   15  C   UNL     1      -9.973   9.481  69.851  1.00  0.00    -0.259 A  
HETATM   16  C   UNL     1      -8.818   8.829  70.322  1.00  0.00    -0.171 A  
HETATM   17  C   UNL     1      -8.807   8.233  71.586  1.00  0.00    -0.224 A  
HETATM   18  C   UNL     1      -9.936   8.288  72.399  1.00  0.00    -0.379 A  
HETATM   19  C   UNL     1     -11.081   8.942  71.954  1.00  0.00    -0.442 A  
HETATM   20  C   UNL     1     -11.108   9.517  70.674  1.00  0.00    -0.300 A  
BRANCH  20  21
HETATM   21  O   UNL     1     -12.265  10.224  70.294  1.00  0.00    -0.267 OA 
BRANCH  21  22
HETATM   22  C   UNL     1     -12.380  11.528  70.769  1.00  0.00    -0.375 C  
HETATM   23  O   UNL     1     -11.929  12.537  70.243  1.00  0.00    -0.347 OA 
HETATM   24  C   UNL     1     -13.248  11.538  71.992  1.00  0.00    -0.443 C  
ENDBRANCH  21  22
ENDBRANCH  20  21
ENDBRANCH  13  15
ENDBRANCH  12  13
ENDBRANCH   9  12
ENDBRANCH   3   6
TORSDOF 6
ENDMDL
MODEL      150
REMARK 921   NORMALIZED FREE ENERGY PREDICTED BY IDOCK:   -4.04 KCAL/MOL
REMARK 922        TOTAL FREE ENERGY PREDICTED BY IDOCK:   -6.93 KCAL/MOL
REMARK 923 INTER-LIGAND FREE ENERGY PREDICTED BY IDOCK:   -6.00 KCAL/MOL
REMARK 924 INTRA-LIGAND FREE ENERGY PREDICTED BY IDOCK:   -0.93 KCAL/MOL
REMARK 927      BINDING AFFINITY PREDICTED BY RF-SCORE:    0.00 PKD
ROOT
HETATM    1  C   UNL     1     -12.267  14.072  63.658  1.00  0.00    -0.145 C  
HETATM    2  C   UNL     1     -11.845  12.797  64.344  1.00  0.00    -0.384 C  
HETATM    3  N   UNL     1     -11.333  13.017  65.613  1.00  0.00    -0.294 N  
HETATM    4  O   UNL     1     -11.979  11.719  63.776  1.00  0.00    -0.418 OA 
HETATM    5  H   UNL     1     -11.303  13.986  65.932  1.00  0.00     0.000 HD 
ENDROOT
BRANCH   3   6
HETATM    6  C   UNL     1     -10.847  12.039  66.512  1.00  0.00    -0.277 A  
HETATM    7  C   UNL     1     -11.625  11.471  67.524  1.00  0.00    -0.322 A  
HETATM    8  C   UNL     1     -11.107  10.488  68.369  1.00  0.00    -0.335 A  
HETATM    9  C   UNL     1      -9.804  10.035  68.198  1.00  0.00    -0.142 A  
HETATM   10  C   UNL     1      -9.518  11.612  66.378  1.00  0.00    -0.232 A  
HETATM   11  C   UNL     1      -8.994  10.620  67.222  1.00  0.00    -0.141 A  
BRANCH   9  12
HETATM   12  O   UNL     1      -9.224   8.983  68.951  1.00  0.00    -0.139 OA 
BRANCH  12  13
HETATM   13  C   UNL     1      -9.076   9.018  70.340  1.00  0.00    -0.210 C  
HETATM   14  O   UNL     1      -8.149   9.501  70.971  1.00  0.00    -0.312 OA 
BRANCH  13  15
HETATM   15  C   UNL     1     -10.264   8.408  70.990  1.00  0.00    -0.245 A  
HETATM   16  C   UNL     1     -11.286   9.222  71.511  1.00  0.00    -0.455 A  
HETATM   17  C   UNL     1     -12.425   8.650  72.086  1.00  0.00    -0.453 A  
HETATM   18  C   UNL     1     -12.565   7.266  72.139  1.00  0.00    -0.169 A  
HETATM   19  C   UNL     1     -11.570   6.446  71.614  1.00  0.00    -0.363 A  
HETATM   20  C   UNL     1     -10.412   7.015  71.062  1.00  0.00    -0.212 A  
BRANCH  20  21
HETATM   21  O   UNL     1      -9.464   6.148  70.484  1.00  0.00    -0.162 OA 
BRANCH  21  22
HETATM   22  C   UNL     1      -9.858   5.477  69.330  1.00  0.00    -0.172 C  
HETATM   23  O   UNL     1     -10.236   5.988  68.284  1.00  0.00    -0.150 OA 
HETATM   24  C   UNL     1      -9.649   4.004  69.514  1.00  0.00    -0.265 C  
ENDBRANCH  21  22
ENDBRANCH  20  21
ENDBRANCH  13  15
ENDBRANCH  12  13
ENDBRANCH   9  12
ENDBRANCH   3   6
TORSDOF 6
ENDMDL
MODEL      151
REMARK 921   NORMALIZED FREE ENERGY PREDICTED BY IDOCK:   -4.04 KCAL/MOL
REMARK 922        TOTAL FREE ENERGY PREDICTED BY IDOCK:   -6.93 KCAL/MOL
REMARK 923 INTER-LIGAND FREE ENERGY PREDICTED BY IDOCK:   -6.13 KCAL/MOL
REMARK 924 INTRA-LIGAND FREE ENERGY PREDICTED BY IDOCK:   -0.79 KCAL/MOL
REMARK 927      BINDING AFFINITY PREDICTED BY RF-SCORE:    0.00 PKD
ROOT
HETATM    1  C   UNL     1      -9.492   6.992  74.155  1.00  0.00    -0.285 C  
HETATM    2  C   UNL     1      -9.189   7.185  72.691  1.00  0.00    -0.138 C  
HETATM    3  N   UNL     1      -9.963   8.178  72.111  1.00  0.00    -0.222 N  
HETATM    4  O   UNL     1      -8.330   6.501  72.145  1.00  0.00    -0.108 OA 
HETATM    5  H   UNL     1     -10.627   8.654  72.722  1.00  0.00     0.000 HD 
ENDROOT
BRANCH   3   6
HETATM    6  C   UNL     1      -9.928   8.600  70.761  1.00  0.00    -0.197 A  
HETATM    7  C   UNL     1      -9.174   9.688  70.316  1.00  0.00    -0.285 A  
HETATM    8  C   UNL     1      -9.152  10.048  68.967  1.00  0.00    -0.172 A  
HETATM    9  C   UNL     1      -9.865   9.306  68.033  1.00  0.00    -0.163 A  
HETATM   10  C   UNL     1     -10.684   7.886  69.820  1.00  0.00    -0.233 A  
HETATM   11  C   UNL     1     -10.660   8.241  68.462  1.00  0.00    -0.143 A  
BRANCH   9  12
HETATM   12  O   UNL     1      -9.832   9.544  66.636  1.00  0.00    -0.197 OA 
BRANCH  12  13
HETATM   13  C   UNL     1      -9.303  10.704  66.063  1.00  0.00    -0.186 C  
HETATM   14  O   UNL     1      -8.130  11.040  66.029  1.00  0.00    -0.159 OA 
BRANCH  13  15
HETATM   15  C   UNL     1     -10.389  11.495  65.429  1.00  0.00    -0.322 A  
HETATM   16  C   UNL     1     -10.739  11.272  64.085  1.00  0.00    -0.436 A  
HETATM   17  C   UNL     1     -11.789  11.985  63.497  1.00  0.00    -0.587 A  
HETATM   18  C   UNL     1     -12.506  12.918  64.241  1.00  0.00    -0.424 A  
HETATM   19  C   UNL     1     -12.182  13.140  65.577  1.00  0.00    -0.513 A  
HETATM   20  C   UNL     1     -11.111  12.447  66.162  1.00  0.00    -0.302 A  
BRANCH  20  21
HETATM   21  O   UNL     1     -10.864  12.656  67.534  1.00  0.00    -0.230 OA 
BRANCH  21  22
HETATM   22  C   UNL     1     -10.939  13.972  67.985  1.00  0.00    -0.251 C  
HETATM   23  O   UNL     1     -10.263  14.915  67.596  1.00  0.00    -0.234 OA 
HETATM   24  C   UNL     1     -12.066  14.097  68.966  1.00  0.00    -0.348 C  
ENDBRANCH  21  22
ENDBRANCH  20  21
ENDBRANCH  13  15
ENDBRANCH  12  13
ENDBRANCH   9  12
ENDBRANCH   3   6
TORSDOF 6
ENDMDL
MODEL      152
REMARK 921   NORMALIZED FREE ENERGY PREDICTED BY IDOCK:   -4.03 KCAL/MOL
REMARK 922        TOTAL FREE ENERGY PREDICTED BY IDOCK:   -6.92 KCAL/MOL
REMARK 923 INTER-LIGAND FREE ENERGY PREDICTED BY IDOCK:   -6.35 KCAL/MOL
REMARK 924 INTRA-LIGAND FREE ENERGY PREDICTED BY IDOCK:   -0.57 KCAL/MOL
REMARK 927      BINDING AFFINITY PREDICTED BY RF-SCORE:    0.00 PKD
ROOT
HETATM    1  C   UNL     1      -7.046  20.659  67.332  1.00  0.00    -0.399 C  
HETATM    2  C   UNL     1      -7.605  19.259  67.368  1.00  0.00    -0.234 C  
HETATM    3  N   UNL     1      -8.986  19.232  67.261  1.00  0.00    -0.290 N  
HETATM    4  O   UNL     1      -6.851  18.298  67.475  1.00  0.00    -0.194 OA 
HETATM    5  H   UNL     1      -9.455  20.134  67.169  1.00  0.00     0.000 HD 
ENDROOT
BRANCH   3   6
HETATM    6  C   UNL     1      -9.815  18.085  67.265  1.00  0.00    -0.306 A  
HETATM    7  C   UNL     1     -10.158  17.381  66.109  1.00  0.00    -0.309 A  
HETATM    8  C   UNL     1     -10.957  16.238  66.169  1.00  0.00     0.006 A  
HETATM    9  C   UNL     1     -11.406  15.762  67.396  1.00  0.00    -0.106 A  
HETATM   10  C   UNL     1     -10.312  17.628  68.494  1.00  0.00    -0.370 A  
HETATM   11  C   UNL     1     -11.112  16.476  68.560  1.00  0.00    -0.335 A  
BRANCH   9  12
HETATM   12  O   UNL     1     -12.147  14.565  67.561  1.00  0.00    -0.366 OA 
BRANCH  12  13
HETATM   13  C   UNL     1     -11.575  13.290  67.513  1.00  0.00    -0.346 C  
HETATM   14  O   UNL     1     -11.332  12.555  68.457  1.00  0.00    -0.251 OA 
BRANCH  13  15
HETATM   15  C   UNL     1     -11.329  12.900  66.101  1.00  0.00    -0.356 A  
HETATM   16  C   UNL     1     -12.408  12.651  65.234  1.00  0.00    -0.528 A  
HETATM   17  C   UNL     1     -12.180  12.324  63.893  1.00  0.00    -0.608 A  
HETATM   18  C   UNL     1     -10.881  12.252  63.399  1.00  0.00    -0.457 A  
HETATM   19  C   UNL     1      -9.802  12.512  64.241  1.00  0.00    -0.114 A  
HETATM   20  C   UNL     1     -10.025  12.811  65.593  1.00  0.00    -0.238 A  
BRANCH  20  21
HETATM   21  O   UNL     1      -8.906  13.130  66.389  1.00  0.00    -0.065 OA 
BRANCH  21  22
HETATM   22  C   UNL     1      -8.310  12.075  67.074  1.00  0.00    -0.178 C  
HETATM   23  O   UNL     1      -8.050  12.037  68.270  1.00  0.00    -0.142 OA 
HETATM   24  C   UNL     1      -8.120  10.919  66.138  1.00  0.00    -0.160 C  
ENDBRANCH  21  22
ENDBRANCH  20  21
ENDBRANCH  13  15
ENDBRANCH  12  13
ENDBRANCH   9  12
ENDBRANCH   3   6
TORSDOF 6
ENDMDL
MODEL      153
REMARK 921   NORMALIZED FREE ENERGY PREDICTED BY IDOCK:   -4.00 KCAL/MOL
REMARK 922        TOTAL FREE ENERGY PREDICTED BY IDOCK:   -6.89 KCAL/MOL
REMARK 923 INTER-LIGAND FREE ENERGY PREDICTED BY IDOCK:   -5.81 KCAL/MOL
REMARK 924 INTRA-LIGAND FREE ENERGY PREDICTED BY IDOCK:   -1.08 KCAL/MOL
REMARK 927      BINDING AFFINITY PREDICTED BY RF-SCORE:    0.00 PKD
ROOT
HETATM    1  C   UNL     1     -12.330  13.970  64.179  1.00  0.00    -0.374 C  
HETATM    2  C   UNL     1     -11.177  13.143  64.688  1.00  0.00    -0.340 C  
HETATM    3  N   UNL     1     -11.377  12.685  65.980  1.00  0.00    -0.310 N  
HETATM    4  O   UNL     1     -10.204  12.937  63.971  1.00  0.00    -0.397 OA 
HETATM    5  H   UNL     1     -12.256  12.947  66.427  1.00  0.00     0.000 HD 
ENDROOT
BRANCH   3   6
HETATM    6  C   UNL     1     -10.490  11.891  66.745  1.00  0.00    -0.221 A  
HETATM    7  C   UNL     1      -9.616  12.418  67.699  1.00  0.00    -0.193 A  
HETATM    8  C   UNL     1      -8.779  11.589  68.448  1.00  0.00    -0.160 A  
HETATM    9  C   UNL     1      -8.821  10.210  68.273  1.00  0.00    -0.124 A  
HETATM   10  C   UNL     1     -10.491  10.504  66.540  1.00  0.00    -0.276 A  
HETATM   11  C   UNL     1      -9.655   9.666  67.294  1.00  0.00    -0.203 A  
BRANCH   9  12
HETATM   12  O   UNL     1      -8.073   9.288  69.047  1.00  0.00    -0.101 OA 
BRANCH  12  13
HETATM   13  C   UNL     1      -8.510   8.775  70.272  1.00  0.00    -0.149 C  
HETATM   14  O   UNL     1      -8.498   9.341  71.354  1.00  0.00    -0.325 OA 
BRANCH  13  15
HETATM   15  C   UNL     1      -9.061   7.409  70.080  1.00  0.00    -0.148 A  
HETATM   16  C   UNL     1      -8.197   6.309  69.927  1.00  0.00    -0.121 A  
HETATM   17  C   UNL     1      -8.712   5.016  69.789  1.00  0.00    -0.111 A  
HETATM   18  C   UNL     1     -10.088   4.803  69.811  1.00  0.00    -0.289 A  
HETATM   19  C   UNL     1     -10.955   5.879  69.978  1.00  0.00    -0.430 A  
HETATM   20  C   UNL     1     -10.444   7.181  70.088  1.00  0.00    -0.216 A  
BRANCH  20  21
HETATM   21  O   UNL     1     -11.357   8.229  70.320  1.00  0.00    -0.234 OA 
BRANCH  21  22
HETATM   22  C   UNL     1     -12.228   8.067  71.394  1.00  0.00    -0.309 C  
HETATM   23  O   UNL     1     -13.444   7.936  71.332  1.00  0.00    -0.312 OA 
HETATM   24  C   UNL     1     -11.438   7.967  72.665  1.00  0.00    -0.465 C  
ENDBRANCH  21  22
ENDBRANCH  20  21
ENDBRANCH  13  15
ENDBRANCH  12  13
ENDBRANCH   9  12
ENDBRANCH   3   6
TORSDOF 6
ENDMDL
MODEL      154
REMARK 921   NORMALIZED FREE ENERGY PREDICTED BY IDOCK:   -4.00 KCAL/MOL
REMARK 922        TOTAL FREE ENERGY PREDICTED BY IDOCK:   -6.88 KCAL/MOL
REMARK 923 INTER-LIGAND FREE ENERGY PREDICTED BY IDOCK:   -5.80 KCAL/MOL
REMARK 924 INTRA-LIGAND FREE ENERGY PREDICTED BY IDOCK:   -1.09 KCAL/MOL
REMARK 927      BINDING AFFINITY PREDICTED BY RF-SCORE:    0.00 PKD
ROOT
HETATM    1  C   UNL     1     -13.959  15.558  72.701  1.00  0.00    -0.617 C  
HETATM    2  C   UNL     1     -12.761  14.959  72.009  1.00  0.00    -0.324 C  
HETATM    3  N   UNL     1     -13.113  14.060  71.014  1.00  0.00    -0.305 N  
HETATM    4  O   UNL     1     -11.628  15.289  72.342  1.00  0.00    -0.436 OA 
HETATM    5  H   UNL     1     -14.111  13.911  70.865  1.00  0.00     0.000 HD 
ENDROOT
BRANCH   3   6
HETATM    6  C   UNL     1     -12.232  13.326  70.185  1.00  0.00    -0.306 A  
HETATM    7  C   UNL     1     -11.505  13.900  69.139  1.00  0.00    -0.345 A  
HETATM    8  C   UNL     1     -10.627  13.138  68.366  1.00  0.00    -0.264 A  
HETATM    9  C   UNL     1     -10.440  11.789  68.645  1.00  0.00    -0.222 A  
HETATM   10  C   UNL     1     -12.076  11.954  70.428  1.00  0.00    -0.421 A  
HETATM   11  C   UNL     1     -11.190  11.185  69.657  1.00  0.00    -0.333 A  
BRANCH   9  12
HETATM   12  O   UNL     1      -9.508  10.960  67.971  1.00  0.00    -0.156 OA 
BRANCH  12  13
HETATM   13  C   UNL     1      -9.838  10.164  66.870  1.00  0.00    -0.195 C  
HETATM   14  O   UNL     1     -10.656  10.414  65.999  1.00  0.00    -0.172 OA 
BRANCH  13  15
HETATM   15  C   UNL     1      -8.997   8.940  66.862  1.00  0.00    -0.150 A  
HETATM   16  C   UNL     1      -7.776   8.920  66.163  1.00  0.00    -0.098 A  
HETATM   17  C   UNL     1      -6.963   7.783  66.188  1.00  0.00    -0.062 A  
HETATM   18  C   UNL     1      -7.349   6.660  66.914  1.00  0.00    -0.082 A  
HETATM   19  C   UNL     1      -8.547   6.668  67.623  1.00  0.00    -0.120 A  
HETATM   20  C   UNL     1      -9.380   7.796  67.578  1.00  0.00    -0.139 A  
BRANCH  20  21
HETATM   21  O   UNL     1     -10.550   7.783  68.363  1.00  0.00    -0.187 OA 
BRANCH  21  22
HETATM   22  C   UNL     1     -10.382   7.530  69.722  1.00  0.00    -0.221 C  
HETATM   23  O   UNL     1      -9.741   8.207  70.515  1.00  0.00    -0.173 OA 
HETATM   24  C   UNL     1     -11.205   6.338  70.112  1.00  0.00    -0.470 C  
ENDBRANCH  21  22
ENDBRANCH  20  21
ENDBRANCH  13  15
ENDBRANCH  12  13
ENDBRANCH   9  12
ENDBRANCH   3   6
TORSDOF 6
ENDMDL
MODEL      155
REMARK 921   NORMALIZED FREE ENERGY PREDICTED BY IDOCK:   -3.99 KCAL/MOL
REMARK 922        TOTAL FREE ENERGY PREDICTED BY IDOCK:   -6.87 KCAL/MOL
REMARK 923 INTER-LIGAND FREE ENERGY PREDICTED BY IDOCK:   -6.23 KCAL/MOL
REMARK 924 INTRA-LIGAND FREE ENERGY PREDICTED BY IDOCK:   -0.64 KCAL/MOL
REMARK 927      BINDING AFFINITY PREDICTED BY RF-SCORE:    0.00 PKD
ROOT
HETATM    1  C   UNL     1     -10.757   5.446  72.594  1.00  0.00    -0.288 C  
HETATM    2  C   UNL     1     -10.434   5.604  71.129  1.00  0.00    -0.241 C  
HETATM    3  N   UNL     1     -10.611   6.903  70.680  1.00  0.00    -0.218 N  
HETATM    4  O   UNL     1     -10.055   4.639  70.476  1.00  0.00    -0.225 OA 
HETATM    5  H   UNL     1     -10.927   7.586  71.369  1.00  0.00     0.000 HD 
ENDROOT
BRANCH   3   6
HETATM    6  C   UNL     1     -10.400   7.380  69.365  1.00  0.00    -0.210 A  
HETATM    7  C   UNL     1     -10.943   6.772  68.230  1.00  0.00    -0.270 A  
HETATM    8  C   UNL     1     -10.727   7.298  66.955  1.00  0.00    -0.406 A  
HETATM    9  C   UNL     1      -9.985   8.462  66.795  1.00  0.00    -0.284 A  
HETATM   10  C   UNL     1      -9.611   8.526  69.191  1.00  0.00    -0.167 A  
HETATM   11  C   UNL     1      -9.396   9.062  67.911  1.00  0.00    -0.155 A  
BRANCH   9  12
HETATM   12  O   UNL     1      -9.788   9.115  65.552  1.00  0.00    -0.220 OA 
BRANCH  12  13
HETATM   13  C   UNL     1      -9.243  10.396  65.431  1.00  0.00    -0.193 C  
HETATM   14  O   UNL     1      -8.066  10.707  65.519  1.00  0.00    -0.160 OA 
BRANCH  13  15
HETATM   15  C   UNL     1     -10.316  11.375  65.120  1.00  0.00    -0.344 A  
HETATM   16  C   UNL     1     -11.082  11.241  63.947  1.00  0.00    -0.317 A  
HETATM   17  C   UNL     1     -12.121  12.136  63.673  1.00  0.00    -0.648 A  
HETATM   18  C   UNL     1     -12.415  13.165  64.564  1.00  0.00    -0.406 A  
HETATM   19  C   UNL     1     -11.676  13.301  65.736  1.00  0.00    -0.395 A  
HETATM   20  C   UNL     1     -10.614  12.423  66.002  1.00  0.00    -0.256 A  
BRANCH  20  21
HETATM   21  O   UNL     1      -9.939  12.561  67.231  1.00  0.00    -0.208 OA 
BRANCH  21  22
HETATM   22  C   UNL     1      -8.947  13.536  67.289  1.00  0.00    -0.222 C  
HETATM   23  O   UNL     1      -8.926  14.591  66.669  1.00  0.00    -0.252 OA 
HETATM   24  C   UNL     1      -7.931  13.151  68.323  1.00  0.00    -0.148 C  
ENDBRANCH  21  22
ENDBRANCH  20  21
ENDBRANCH  13  15
ENDBRANCH  12  13
ENDBRANCH   9  12
ENDBRANCH   3   6
TORSDOF 6
ENDMDL
MODEL      156
REMARK 921   NORMALIZED FREE ENERGY PREDICTED BY IDOCK:   -3.99 KCAL/MOL
REMARK 922        TOTAL FREE ENERGY PREDICTED BY IDOCK:   -6.87 KCAL/MOL
REMARK 923 INTER-LIGAND FREE ENERGY PREDICTED BY IDOCK:   -6.11 KCAL/MOL
REMARK 924 INTRA-LIGAND FREE ENERGY PREDICTED BY IDOCK:   -0.75 KCAL/MOL
REMARK 927      BINDING AFFINITY PREDICTED BY RF-SCORE:    0.00 PKD
ROOT
HETATM    1  C   UNL     1      -8.015   3.176  64.045  1.00  0.00    -0.082 C  
HETATM    2  C   UNL     1      -9.052   4.092  64.644  1.00  0.00    -0.141 C  
HETATM    3  N   UNL     1      -8.497   5.077  65.444  1.00  0.00    -0.131 N  
HETATM    4  O   UNL     1     -10.240   3.922  64.395  1.00  0.00    -0.212 OA 
HETATM    5  H   UNL     1      -7.480   5.075  65.533  1.00  0.00     0.000 HD 
ENDROOT
BRANCH   3   6
HETATM    6  C   UNL     1      -9.192   6.086  66.152  1.00  0.00    -0.138 A  
HETATM    7  C   UNL     1     -10.180   5.816  67.102  1.00  0.00    -0.250 A  
HETATM    8  C   UNL     1     -10.818   6.848  67.793  1.00  0.00    -0.312 A  
HETATM    9  C   UNL     1     -10.460   8.171  67.563  1.00  0.00    -0.256 A  
HETATM   10  C   UNL     1      -8.872   7.425  65.889  1.00  0.00    -0.149 A  
HETATM   11  C   UNL     1      -9.507   8.466  66.585  1.00  0.00    -0.267 A  
BRANCH   9  12
HETATM   12  O   UNL     1     -10.991   9.274  68.278  1.00  0.00    -0.128 OA 
BRANCH  12  13
HETATM   13  C   UNL     1     -10.428   9.774  69.455  1.00  0.00    -0.232 C  
HETATM   14  O   UNL     1      -9.301   9.570  69.877  1.00  0.00    -0.190 OA 
BRANCH  13  15
HETATM   15  C   UNL     1     -11.399  10.666  70.141  1.00  0.00    -0.402 A  
HETATM   16  C   UNL     1     -12.171  10.184  71.214  1.00  0.00    -0.496 A  
HETATM   17  C   UNL     1     -13.055  11.032  71.888  1.00  0.00    -0.525 A  
HETATM   18  C   UNL     1     -13.172  12.367  71.512  1.00  0.00    -0.285 A  
HETATM   19  C   UNL     1     -12.403  12.863  70.463  1.00  0.00    -0.362 A  
HETATM   20  C   UNL     1     -11.536  12.009  69.764  1.00  0.00    -0.276 A  
BRANCH  20  21
HETATM   21  O   UNL     1     -10.731  12.572  68.754  1.00  0.00    -0.228 OA 
BRANCH  21  22
HETATM   22  C   UNL     1     -11.378  12.946  67.579  1.00  0.00    -0.308 C  
HETATM   23  O   UNL     1     -11.994  13.986  67.387  1.00  0.00    -0.388 OA 
HETATM   24  C   UNL     1     -11.122  11.916  66.520  1.00  0.00    -0.357 C  
ENDBRANCH  21  22
ENDBRANCH  20  21
ENDBRANCH  13  15
ENDBRANCH  12  13
ENDBRANCH   9  12
ENDBRANCH   3   6
TORSDOF 6
ENDMDL
MODEL      157
REMARK 921   NORMALIZED FREE ENERGY PREDICTED BY IDOCK:   -3.99 KCAL/MOL
REMARK 922        TOTAL FREE ENERGY PREDICTED BY IDOCK:   -6.87 KCAL/MOL
REMARK 923 INTER-LIGAND FREE ENERGY PREDICTED BY IDOCK:   -5.85 KCAL/MOL
REMARK 924 INTRA-LIGAND FREE ENERGY PREDICTED BY IDOCK:   -1.01 KCAL/MOL
REMARK 927      BINDING AFFINITY PREDICTED BY RF-SCORE:    0.00 PKD
ROOT
HETATM    1  C   UNL     1      -6.514   6.498  63.602  1.00  0.00    -0.040 C  
HETATM    2  C   UNL     1      -7.595   7.472  63.997  1.00  0.00    -0.114 C  
HETATM    3  N   UNL     1      -7.764   7.555  65.370  1.00  0.00    -0.102 N  
HETATM    4  O   UNL     1      -8.210   8.092  63.137  1.00  0.00    -0.154 OA 
HETATM    5  H   UNL     1      -7.155   6.969  65.941  1.00  0.00     0.000 HD 
ENDROOT
BRANCH   3   6
HETATM    6  C   UNL     1      -8.693   8.367  66.063  1.00  0.00    -0.157 A  
HETATM    7  C   UNL     1      -8.558   9.752  66.189  1.00  0.00    -0.138 A  
HETATM    8  C   UNL     1      -9.517  10.513  66.859  1.00  0.00    -0.191 A  
HETATM    9  C   UNL     1     -10.646   9.903  67.395  1.00  0.00    -0.277 A  
HETATM   10  C   UNL     1      -9.809   7.752  66.648  1.00  0.00    -0.295 A  
HETATM   11  C   UNL     1     -10.778   8.514  67.319  1.00  0.00    -0.219 A  
BRANCH   9  12
HETATM   12  O   UNL     1     -11.710  10.605  68.014  1.00  0.00    -0.495 OA 
BRANCH  12  13
HETATM   13  C   UNL     1     -11.573  11.318  69.208  1.00  0.00    -0.322 C  
HETATM   14  O   UNL     1     -11.288  12.499  69.332  1.00  0.00    -0.252 OA 
BRANCH  13  15
HETATM   15  C   UNL     1     -11.876  10.434  70.363  1.00  0.00    -0.418 A  
HETATM   16  C   UNL     1     -13.195  10.313  70.838  1.00  0.00    -0.351 A  
HETATM   17  C   UNL     1     -13.491   9.450  71.897  1.00  0.00    -0.500 A  
HETATM   18  C   UNL     1     -12.483   8.693  72.488  1.00  0.00    -0.372 A  
HETATM   19  C   UNL     1     -11.175   8.790  72.020  1.00  0.00    -0.443 A  
HETATM   20  C   UNL     1     -10.869   9.676  70.976  1.00  0.00    -0.342 A  
BRANCH  20  21
HETATM   21  O   UNL     1      -9.545   9.691  70.492  1.00  0.00    -0.258 OA 
BRANCH  21  22
HETATM   22  C   UNL     1      -8.805   8.525  70.672  1.00  0.00    -0.155 C  
HETATM   23  O   UNL     1      -8.929   7.480  70.047  1.00  0.00    -0.143 OA 
HETATM   24  C   UNL     1      -7.735   8.768  71.695  1.00  0.00    -0.117 C  
ENDBRANCH  21  22
ENDBRANCH  20  21
ENDBRANCH  13  15
ENDBRANCH  12  13
ENDBRANCH   9  12
ENDBRANCH   3   6
TORSDOF 6
ENDMDL
MODEL      158
REMARK 921   NORMALIZED FREE ENERGY PREDICTED BY IDOCK:   -3.98 KCAL/MOL
REMARK 922        TOTAL FREE ENERGY PREDICTED BY IDOCK:   -6.85 KCAL/MOL
REMARK 923 INTER-LIGAND FREE ENERGY PREDICTED BY IDOCK:   -6.57 KCAL/MOL
REMARK 924 INTRA-LIGAND FREE ENERGY PREDICTED BY IDOCK:   -0.28 KCAL/MOL
REMARK 927      BINDING AFFINITY PREDICTED BY RF-SCORE:    0.00 PKD
ROOT
HETATM    1  C   UNL     1      -8.411   6.552  66.629  1.00  0.00    -0.116 C  
HETATM    2  C   UNL     1      -8.510   8.057  66.629  1.00  0.00    -0.133 C  
HETATM    3  N   UNL     1      -9.753   8.510  66.216  1.00  0.00    -0.347 N  
HETATM    4  O   UNL     1      -7.552   8.737  66.978  1.00  0.00    -0.087 OA 
HETATM    5  H   UNL     1     -10.441   7.798  65.969  1.00  0.00     0.000 HD 
ENDROOT
BRANCH   3   6
HETATM    6  C   UNL     1     -10.168   9.858  66.101  1.00  0.00    -0.207 A  
HETATM    7  C   UNL     1     -10.003  10.616  64.939  1.00  0.00    -0.382 A  
HETATM    8  C   UNL     1     -10.454  11.935  64.866  1.00  0.00    -0.331 A  
HETATM    9  C   UNL     1     -11.104  12.513  65.950  1.00  0.00    -0.299 A  
HETATM   10  C   UNL     1     -10.780  10.464  67.207  1.00  0.00    -0.331 A  
HETATM   11  C   UNL     1     -11.240  11.788  67.137  1.00  0.00    -0.375 A  
BRANCH   9  12
HETATM   12  O   UNL     1     -11.671  13.812  65.937  1.00  0.00    -0.328 OA 
BRANCH  12  13
HETATM   13  C   UNL     1     -10.933  14.974  65.695  1.00  0.00    -0.354 C  
HETATM   14  O   UNL     1     -10.533  15.381  64.616  1.00  0.00    -0.290 OA 
BRANCH  13  15
HETATM   15  C   UNL     1     -10.723  15.713  66.966  1.00  0.00    -0.314 A  
HETATM   16  C   UNL     1     -11.567  15.486  68.068  1.00  0.00    -0.276 A  
HETATM   17  C   UNL     1     -11.346  16.150  69.279  1.00  0.00    -0.328 A  
HETATM   18  C   UNL     1     -10.281  17.036  69.410  1.00  0.00    -0.190 A  
HETATM   19  C   UNL     1      -9.427  17.261  68.333  1.00  0.00    -0.283 A  
HETATM   20  C   UNL     1      -9.662  16.619  67.107  1.00  0.00    -0.250 A  
BRANCH  20  21
HETATM   21  O   UNL     1      -8.734  16.827  66.068  1.00  0.00    -0.454 OA 
BRANCH  21  22
HETATM   22  C   UNL     1      -7.902  17.937  66.190  1.00  0.00    -0.222 C  
HETATM   23  O   UNL     1      -8.224  19.108  66.042  1.00  0.00    -0.415 OA 
HETATM   24  C   UNL     1      -6.543  17.492  66.644  1.00  0.00    -0.252 C  
ENDBRANCH  21  22
ENDBRANCH  20  21
ENDBRANCH  13  15
ENDBRANCH  12  13
ENDBRANCH   9  12
ENDBRANCH   3   6
TORSDOF 6
ENDMDL
MODEL      159
REMARK 921   NORMALIZED FREE ENERGY PREDICTED BY IDOCK:   -3.97 KCAL/MOL
REMARK 922        TOTAL FREE ENERGY PREDICTED BY IDOCK:   -6.84 KCAL/MOL
REMARK 923 INTER-LIGAND FREE ENERGY PREDICTED BY IDOCK:   -5.82 KCAL/MOL
REMARK 924 INTRA-LIGAND FREE ENERGY PREDICTED BY IDOCK:   -1.01 KCAL/MOL
REMARK 927      BINDING AFFINITY PREDICTED BY RF-SCORE:    0.00 PKD
ROOT
HETATM    1  C   UNL     1     -11.032  16.825  67.945  1.00  0.00    -0.260 C  
HETATM    2  C   UNL     1     -11.052  15.366  67.563  1.00  0.00    -0.315 C  
HETATM    3  N   UNL     1     -10.795  14.530  68.638  1.00  0.00    -0.243 N  
HETATM    4  O   UNL     1     -11.285  15.035  66.406  1.00  0.00    -0.342 OA 
HETATM    5  H   UNL     1     -10.631  14.980  69.539  1.00  0.00     0.000 HD 
ENDROOT
BRANCH   3   6
HETATM    6  C   UNL     1     -10.738  13.116  68.617  1.00  0.00    -0.250 A  
HETATM    7  C   UNL     1     -11.814  12.298  68.970  1.00  0.00    -0.358 A  
HETATM    8  C   UNL     1     -11.716  10.907  68.906  1.00  0.00    -0.376 A  
HETATM    9  C   UNL     1     -10.542  10.308  68.461  1.00  0.00    -0.213 A  
HETATM   10  C   UNL     1      -9.542  12.504  68.216  1.00  0.00    -0.209 A  
HETATM   11  C   UNL     1      -9.440  11.105  68.145  1.00  0.00    -0.180 A  
BRANCH   9  12
HETATM   12  O   UNL     1     -10.382   8.911  68.281  1.00  0.00    -0.199 OA 
BRANCH  12  13
HETATM   13  C   UNL     1      -9.448   8.145  68.985  1.00  0.00    -0.155 C  
HETATM   14  O   UNL     1      -8.334   7.815  68.611  1.00  0.00    -0.126 OA 
BRANCH  13  15
HETATM   15  C   UNL     1      -9.985   7.802  70.327  1.00  0.00    -0.189 A  
HETATM   16  C   UNL     1      -9.809   8.684  71.409  1.00  0.00    -0.327 A  
HETATM   17  C   UNL     1     -10.348   8.384  72.664  1.00  0.00    -0.314 A  
HETATM   18  C   UNL     1     -11.076   7.212  72.853  1.00  0.00    -0.338 A  
HETATM   19  C   UNL     1     -11.272   6.336  71.788  1.00  0.00    -0.334 A  
HETATM   20  C   UNL     1     -10.708   6.619  70.535  1.00  0.00    -0.247 A  
BRANCH  20  21
HETATM   21  O   UNL     1     -10.989   5.737  69.473  1.00  0.00    -0.353 OA 
BRANCH  21  22
HETATM   22  C   UNL     1     -10.136   4.646  69.329  1.00  0.00    -0.100 C  
HETATM   23  O   UNL     1      -9.883   3.803  70.179  1.00  0.00    -0.188 OA 
HETATM   24  C   UNL     1      -9.639   4.586  67.916  1.00  0.00    -0.208 C  
ENDBRANCH  21  22
ENDBRANCH  20  21
ENDBRANCH  13  15
ENDBRANCH  12  13
ENDBRANCH   9  12
ENDBRANCH   3   6
TORSDOF 6
ENDMDL
MODEL      160
REMARK 921   NORMALIZED FREE ENERGY PREDICTED BY IDOCK:   -3.96 KCAL/MOL
REMARK 922        TOTAL FREE ENERGY PREDICTED BY IDOCK:   -6.82 KCAL/MOL
REMARK 923 INTER-LIGAND FREE ENERGY PREDICTED BY IDOCK:   -6.07 KCAL/MOL
REMARK 924 INTRA-LIGAND FREE ENERGY PREDICTED BY IDOCK:   -0.75 KCAL/MOL
REMARK 927      BINDING AFFINITY PREDICTED BY RF-SCORE:    0.00 PKD
ROOT
HETATM    1  C   UNL     1      -5.700  20.307  70.546  1.00  0.00    -0.367 C  
HETATM    2  C   UNL     1      -6.183  19.052  69.862  1.00  0.00    -0.198 C  
HETATM    3  N   UNL     1      -7.050  19.316  68.814  1.00  0.00    -0.325 N  
HETATM    4  O   UNL     1      -5.797  17.954  70.247  1.00  0.00    -0.238 OA 
HETATM    5  H   UNL     1      -7.256  20.297  68.627  1.00  0.00     0.000 HD 
ENDROOT
BRANCH   3   6
HETATM    6  C   UNL     1      -7.681  18.365  67.977  1.00  0.00    -0.261 A  
HETATM    7  C   UNL     1      -7.001  17.624  67.007  1.00  0.00    -0.209 A  
HETATM    8  C   UNL     1      -7.664  16.678  66.224  1.00  0.00    -0.273 A  
HETATM    9  C   UNL     1      -9.019  16.436  66.417  1.00  0.00    -0.305 A  
HETATM   10  C   UNL     1      -9.058  18.151  68.132  1.00  0.00    -0.298 A  
HETATM   11  C   UNL     1      -9.728  17.196  67.350  1.00  0.00    -0.253 A  
BRANCH   9  12
HETATM   12  O   UNL     1      -9.754  15.436  65.731  1.00  0.00    -0.329 OA 
BRANCH  12  13
HETATM   13  C   UNL     1     -10.868  14.789  66.272  1.00  0.00    -0.322 C  
HETATM   14  O   UNL     1     -12.034  15.143  66.199  1.00  0.00    -0.033 OA 
BRANCH  13  15
HETATM   15  C   UNL     1     -10.447  13.530  66.940  1.00  0.00    -0.271 A  
HETATM   16  C   UNL     1      -9.374  12.778  66.428  1.00  0.00    -0.196 A  
HETATM   17  C   UNL     1      -8.948  11.616  67.079  1.00  0.00    -0.182 A  
HETATM   18  C   UNL     1      -9.576  11.196  68.248  1.00  0.00    -0.185 A  
HETATM   19  C   UNL     1     -10.630  11.937  68.776  1.00  0.00    -0.234 A  
HETATM   20  C   UNL     1     -11.079  13.088  68.111  1.00  0.00    -0.256 A  
BRANCH  20  21
HETATM   21  O   UNL     1     -12.104  13.841  68.718  1.00  0.00    -0.357 OA 
BRANCH  21  22
HETATM   22  C   UNL     1     -11.841  14.332  69.995  1.00  0.00    -0.314 C  
HETATM   23  O   UNL     1     -11.096  15.261  70.278  1.00  0.00    -0.259 OA 
HETATM   24  C   UNL     1     -12.702  13.615  70.991  1.00  0.00    -0.408 C  
ENDBRANCH  21  22
ENDBRANCH  20  21
ENDBRANCH  13  15
ENDBRANCH  12  13
ENDBRANCH   9  12
ENDBRANCH   3   6
TORSDOF 6
ENDMDL
MODEL      161
REMARK 921   NORMALIZED FREE ENERGY PREDICTED BY IDOCK:   -3.96 KCAL/MOL
REMARK 922        TOTAL FREE ENERGY PREDICTED BY IDOCK:   -6.82 KCAL/MOL
REMARK 923 INTER-LIGAND FREE ENERGY PREDICTED BY IDOCK:   -6.08 KCAL/MOL
REMARK 924 INTRA-LIGAND FREE ENERGY PREDICTED BY IDOCK:   -0.75 KCAL/MOL
REMARK 927      BINDING AFFINITY PREDICTED BY RF-SCORE:    0.00 PKD
ROOT
HETATM    1  C   UNL     1     -10.985  15.588  64.741  1.00  0.00    -0.416 C  
HETATM    2  C   UNL     1     -11.308  14.151  65.064  1.00  0.00    -0.350 C  
HETATM    3  N   UNL     1     -10.190  13.426  65.446  1.00  0.00    -0.355 N  
HETATM    4  O   UNL     1     -12.461  13.745  64.981  1.00  0.00    -0.459 OA 
HETATM    5  H   UNL     1      -9.304  13.930  65.468  1.00  0.00     0.000 HD 
ENDROOT
BRANCH   3   6
HETATM    6  C   UNL     1     -10.151  12.058  65.808  1.00  0.00    -0.238 A  
HETATM    7  C   UNL     1      -9.693  11.051  64.956  1.00  0.00    -0.303 A  
HETATM    8  C   UNL     1      -9.648   9.718  65.371  1.00  0.00    -0.359 A  
HETATM    9  C   UNL     1     -10.037   9.374  66.660  1.00  0.00    -0.262 A  
HETATM   10  C   UNL     1     -10.588  11.696  67.090  1.00  0.00    -0.269 A  
HETATM   11  C   UNL     1     -10.540  10.358  67.513  1.00  0.00    -0.312 A  
BRANCH   9  12
HETATM   12  O   UNL     1      -9.944   8.064  67.195  1.00  0.00    -0.187 OA 
BRANCH  12  13
HETATM   13  C   UNL     1      -8.914   7.648  68.042  1.00  0.00    -0.126 C  
HETATM   14  O   UNL     1      -7.913   8.276  68.349  1.00  0.00    -0.115 OA 
BRANCH  13  15
HETATM   15  C   UNL     1      -9.221   6.301  68.589  1.00  0.00    -0.124 A  
HETATM   16  C   UNL     1      -8.903   5.146  67.853  1.00  0.00    -0.104 A  
HETATM   17  C   UNL     1      -9.152   3.876  68.383  1.00  0.00    -0.189 A  
HETATM   18  C   UNL     1      -9.711   3.742  69.652  1.00  0.00    -0.177 A  
HETATM   19  C   UNL     1     -10.017   4.876  70.399  1.00  0.00    -0.316 A  
HETATM   20  C   UNL     1      -9.795   6.152  69.860  1.00  0.00    -0.168 A  
BRANCH  20  21
HETATM   21  O   UNL     1     -10.060   7.268  70.679  1.00  0.00    -0.194 OA 
BRANCH  21  22
HETATM   22  C   UNL     1     -11.313   7.311  71.284  1.00  0.00    -0.264 C  
HETATM   23  O   UNL     1     -12.387   7.064  70.752  1.00  0.00    -0.352 OA 
HETATM   24  C   UNL     1     -11.150   7.608  72.745  1.00  0.00    -0.437 C  
ENDBRANCH  21  22
ENDBRANCH  20  21
ENDBRANCH  13  15
ENDBRANCH  12  13
ENDBRANCH   9  12
ENDBRANCH   3   6
TORSDOF 6
ENDMDL
MODEL      162
REMARK 921   NORMALIZED FREE ENERGY PREDICTED BY IDOCK:   -3.95 KCAL/MOL
REMARK 922        TOTAL FREE ENERGY PREDICTED BY IDOCK:   -6.81 KCAL/MOL
REMARK 923 INTER-LIGAND FREE ENERGY PREDICTED BY IDOCK:   -5.60 KCAL/MOL
REMARK 924 INTRA-LIGAND FREE ENERGY PREDICTED BY IDOCK:   -1.21 KCAL/MOL
REMARK 927      BINDING AFFINITY PREDICTED BY RF-SCORE:    0.00 PKD
ROOT
HETATM    1  C   UNL     1     -10.037  18.902  66.438  1.00  0.00    -0.457 C  
HETATM    2  C   UNL     1      -9.782  17.419  66.340  1.00  0.00    -0.290 C  
HETATM    3  N   UNL     1     -10.903  16.710  65.940  1.00  0.00    -0.144 N  
HETATM    4  O   UNL     1      -8.672  16.967  66.596  1.00  0.00    -0.220 OA 
HETATM    5  H   UNL     1     -11.748  17.253  65.759  1.00  0.00     0.000 HD 
ENDROOT
BRANCH   3   6
HETATM    6  C   UNL     1     -10.999  15.310  65.756  1.00  0.00    -0.338 A  
HETATM    7  C   UNL     1     -10.441  14.639  64.665  1.00  0.00    -0.207 A  
HETATM    8  C   UNL     1     -10.539  13.251  64.543  1.00  0.00    -0.437 A  
HETATM    9  C   UNL     1     -11.178  12.506  65.528  1.00  0.00    -0.314 A  
HETATM   10  C   UNL     1     -11.685  14.557  66.719  1.00  0.00    -0.393 A  
HETATM   11  C   UNL     1     -11.782  13.161  66.603  1.00  0.00    -0.427 A  
BRANCH   9  12
HETATM   12  O   UNL     1     -11.250  11.090  65.531  1.00  0.00    -0.021 OA 
BRANCH  12  13
HETATM   13  C   UNL     1     -10.163  10.261  65.239  1.00  0.00    -0.238 C  
HETATM   14  O   UNL     1      -9.672  10.050  64.142  1.00  0.00    -0.282 OA 
BRANCH  13  15
HETATM   15  C   UNL     1      -9.623   9.677  66.493  1.00  0.00    -0.252 A  
HETATM   16  C   UNL     1     -10.387   8.758  67.236  1.00  0.00    -0.360 A  
HETATM   17  C   UNL     1      -9.864   8.174  68.394  1.00  0.00    -0.186 A  
HETATM   18  C   UNL     1      -8.576   8.488  68.819  1.00  0.00    -0.131 A  
HETATM   19  C   UNL     1      -7.801   9.384  68.087  1.00  0.00    -0.087 A  
HETATM   20  C   UNL     1      -8.332   9.994  66.940  1.00  0.00    -0.125 A  
BRANCH  20  21
HETATM   21  O   UNL     1      -7.488  10.842  66.196  1.00  0.00    -0.140 OA 
BRANCH  21  22
HETATM   22  C   UNL     1      -6.966  11.945  66.867  1.00  0.00    -0.072 C  
HETATM   23  O   UNL     1      -5.785  12.256  66.948  1.00  0.00    -0.292 OA 
HETATM   24  C   UNL     1      -8.091  12.778  67.405  1.00  0.00    -0.185 C  
ENDBRANCH  21  22
ENDBRANCH  20  21
ENDBRANCH  13  15
ENDBRANCH  12  13
ENDBRANCH   9  12
ENDBRANCH   3   6
TORSDOF 6
ENDMDL
MODEL      163
REMARK 921   NORMALIZED FREE ENERGY PREDICTED BY IDOCK:   -3.94 KCAL/MOL
REMARK 922        TOTAL FREE ENERGY PREDICTED BY IDOCK:   -6.81 KCAL/MOL
REMARK 923 INTER-LIGAND FREE ENERGY PREDICTED BY IDOCK:   -6.39 KCAL/MOL
REMARK 924 INTRA-LIGAND FREE ENERGY PREDICTED BY IDOCK:   -0.41 KCAL/MOL
REMARK 927      BINDING AFFINITY PREDICTED BY RF-SCORE:    0.00 PKD
ROOT
HETATM    1  C   UNL     1     -10.503  18.718  66.745  1.00  0.00    -0.478 C  
HETATM    2  C   UNL     1     -10.326  17.237  66.527  1.00  0.00    -0.308 C  
HETATM    3  N   UNL     1     -10.421  16.509  67.703  1.00  0.00    -0.299 N  
HETATM    4  O   UNL     1     -10.130  16.799  65.399  1.00  0.00    -0.587 OA 
HETATM    5  H   UNL     1     -10.598  17.040  68.556  1.00  0.00     0.000 HD 
ENDROOT
BRANCH   3   6
HETATM    6  C   UNL     1     -10.298  15.107  67.844  1.00  0.00    -0.241 A  
HETATM    7  C   UNL     1      -9.082  14.427  67.737  1.00  0.00    -0.192 A  
HETATM    8  C   UNL     1      -9.010  13.044  67.911  1.00  0.00    -0.200 A  
HETATM    9  C   UNL     1     -10.153  12.317  68.223  1.00  0.00    -0.218 A  
HETATM   10  C   UNL     1     -11.455  14.360  68.110  1.00  0.00    -0.337 A  
HETATM   11  C   UNL     1     -11.386  12.970  68.291  1.00  0.00    -0.323 A  
BRANCH   9  12
HETATM   12  O   UNL     1     -10.159  10.927  68.502  1.00  0.00    -0.169 OA 
BRANCH  12  13
HETATM   13  C   UNL     1      -9.408  10.342  69.525  1.00  0.00    -0.178 C  
HETATM   14  O   UNL     1      -8.193  10.352  69.645  1.00  0.00    -0.155 OA 
BRANCH  13  15
HETATM   15  C   UNL     1     -10.314   9.715  70.522  1.00  0.00    -0.359 A  
HETATM   16  C   UNL     1     -11.709   9.847  70.397  1.00  0.00    -0.333 A  
HETATM   17  C   UNL     1     -12.564   9.224  71.311  1.00  0.00    -0.377 A  
HETATM   18  C   UNL     1     -12.044   8.456  72.349  1.00  0.00    -0.443 A  
HETATM   19  C   UNL     1     -10.666   8.303  72.477  1.00  0.00    -0.411 A  
HETATM   20  C   UNL     1      -9.803   8.950  71.580  1.00  0.00    -0.317 A  
BRANCH  20  21
HETATM   21  O   UNL     1      -8.420   8.712  71.710  1.00  0.00    -0.163 OA 
BRANCH  21  22
HETATM   22  C   UNL     1      -8.027   7.381  71.832  1.00  0.00    -0.090 C  
HETATM   23  O   UNL     1      -7.668   6.820  72.859  1.00  0.00    -0.094 OA 
HETATM   24  C   UNL     1      -8.211   6.686  70.517  1.00  0.00    -0.118 C  
ENDBRANCH  21  22
ENDBRANCH  20  21
ENDBRANCH  13  15
ENDBRANCH  12  13
ENDBRANCH   9  12
ENDBRANCH   3   6
TORSDOF 6
ENDMDL
MODEL      164
REMARK 921   NORMALIZED FREE ENERGY PREDICTED BY IDOCK:   -3.89 KCAL/MOL
REMARK 922        TOTAL FREE ENERGY PREDICTED BY IDOCK:   -6.73 KCAL/MOL
REMARK 923 INTER-LIGAND FREE ENERGY PREDICTED BY IDOCK:   -6.04 KCAL/MOL
REMARK 924 INTRA-LIGAND FREE ENERGY PREDICTED BY IDOCK:   -0.69 KCAL/MOL
REMARK 927      BINDING AFFINITY PREDICTED BY RF-SCORE:    0.00 PKD
ROOT
HETATM    1  C   UNL     1     -12.257  14.651  64.332  1.00  0.00    -0.473 C  
HETATM    2  C   UNL     1     -12.322  13.351  65.093  1.00  0.00    -0.456 C  
HETATM    3  N   UNL     1     -11.478  13.333  66.193  1.00  0.00    -0.317 N  
HETATM    4  O   UNL     1     -13.073  12.456  64.721  1.00  0.00    -0.806 OA 
HETATM    5  H   UNL     1     -10.927  14.175  66.360  1.00  0.00     0.000 HD 
ENDROOT
BRANCH   3   6
HETATM    6  C   UNL     1     -11.301  12.268  67.107  1.00  0.00    -0.335 A  
HETATM    7  C   UNL     1     -11.888  12.237  68.374  1.00  0.00    -0.358 A  
HETATM    8  C   UNL     1     -11.704  11.150  69.230  1.00  0.00    -0.401 A  
HETATM    9  C   UNL     1     -10.947  10.058  68.821  1.00  0.00    -0.202 A  
HETATM   10  C   UNL     1     -10.499  11.185  66.721  1.00  0.00    -0.297 A  
HETATM   11  C   UNL     1     -10.315  10.087  67.576  1.00  0.00    -0.282 A  
BRANCH   9  12
HETATM   12  O   UNL     1     -10.779   8.876  69.586  1.00  0.00    -0.233 OA 
BRANCH  12  13
HETATM   13  C   UNL     1     -10.585   7.612  69.021  1.00  0.00    -0.174 C  
HETATM   14  O   UNL     1     -10.868   7.261  67.887  1.00  0.00    -0.188 OA 
BRANCH  13  15
HETATM   15  C   UNL     1      -9.917   6.718  70.002  1.00  0.00    -0.189 A  
HETATM   16  C   UNL     1     -10.675   5.824  70.780  1.00  0.00    -0.342 A  
HETATM   17  C   UNL     1     -10.046   4.952  71.673  1.00  0.00    -0.266 A  
HETATM   18  C   UNL     1      -8.659   4.951  71.795  1.00  0.00    -0.132 A  
HETATM   19  C   UNL     1      -7.893   5.819  71.020  1.00  0.00    -0.106 A  
HETATM   20  C   UNL     1      -8.522   6.716  70.144  1.00  0.00    -0.136 A  
BRANCH  20  21
HETATM   21  O   UNL     1      -7.703   7.528  69.334  1.00  0.00    -0.106 OA 
BRANCH  21  22
HETATM   22  C   UNL     1      -6.827   8.384  69.997  1.00  0.00    -0.042 C  
HETATM   23  O   UNL     1      -5.622   8.225  70.138  1.00  0.00    -0.023 OA 
HETATM   24  C   UNL     1      -7.568   9.612  70.434  1.00  0.00    -0.176 C  
ENDBRANCH  21  22
ENDBRANCH  20  21
ENDBRANCH  13  15
ENDBRANCH  12  13
ENDBRANCH   9  12
ENDBRANCH   3   6
TORSDOF 6
ENDMDL
MODEL      165
REMARK 921   NORMALIZED FREE ENERGY PREDICTED BY IDOCK:   -3.87 KCAL/MOL
REMARK 922        TOTAL FREE ENERGY PREDICTED BY IDOCK:   -6.70 KCAL/MOL
REMARK 923 INTER-LIGAND FREE ENERGY PREDICTED BY IDOCK:   -6.39 KCAL/MOL
REMARK 924 INTRA-LIGAND FREE ENERGY PREDICTED BY IDOCK:   -0.31 KCAL/MOL
REMARK 927      BINDING AFFINITY PREDICTED BY RF-SCORE:    0.00 PKD
ROOT
HETATM    1  C   UNL     1     -13.211  15.956  73.341  1.00  0.00    -0.668 C  
HETATM    2  C   UNL     1     -13.341  14.764  72.427  1.00  0.00    -0.408 C  
HETATM    3  N   UNL     1     -12.353  14.724  71.456  1.00  0.00    -0.326 N  
HETATM    4  O   UNL     1     -14.248  13.956  72.594  1.00  0.00    -0.672 OA 
HETATM    5  H   UNL     1     -11.668  15.480  71.470  1.00  0.00     0.000 HD 
ENDROOT
BRANCH   3   6
HETATM    6  C   UNL     1     -12.195  13.745  70.448  1.00  0.00    -0.363 A  
HETATM    7  C   UNL     1     -12.032  14.054  69.095  1.00  0.00    -0.400 A  
HETATM    8  C   UNL     1     -11.853  13.051  68.141  1.00  0.00    -0.381 A  
HETATM    9  C   UNL     1     -11.806  11.716  68.529  1.00  0.00    -0.292 A  
HETATM   10  C   UNL     1     -12.197  12.394  70.824  1.00  0.00    -0.336 A  
HETATM   11  C   UNL     1     -12.011  11.382  69.869  1.00  0.00    -0.434 A  
BRANCH   9  12
HETATM   12  O   UNL     1     -11.542  10.640  67.644  1.00  0.00    -0.492 OA 
BRANCH  12  13
HETATM   13  C   UNL     1     -10.696   9.573  67.958  1.00  0.00    -0.212 C  
HETATM   14  O   UNL     1     -10.893   8.693  68.781  1.00  0.00    -0.116 OA 
BRANCH  13  15
HETATM   15  C   UNL     1      -9.488   9.615  67.094  1.00  0.00    -0.185 A  
HETATM   16  C   UNL     1      -8.591  10.696  67.177  1.00  0.00    -0.127 A  
HETATM   17  C   UNL     1      -7.432  10.718  66.396  1.00  0.00    -0.142 A  
HETATM   18  C   UNL     1      -7.148   9.663  65.532  1.00  0.00    -0.098 A  
HETATM   19  C   UNL     1      -8.017   8.579  65.449  1.00  0.00    -0.113 A  
HETATM   20  C   UNL     1      -9.196   8.566  66.210  1.00  0.00    -0.207 A  
BRANCH  20  21
HETATM   21  O   UNL     1     -10.011   7.419  66.142  1.00  0.00    -0.003 OA 
BRANCH  21  22
HETATM   22  C   UNL     1      -9.406   6.207  66.466  1.00  0.00    -0.153 C  
HETATM   23  O   UNL     1      -8.889   5.419  65.684  1.00  0.00    -0.148 OA 
HETATM   24  C   UNL     1      -9.382   6.046  67.956  1.00  0.00    -0.114 C  
ENDBRANCH  21  22
ENDBRANCH  20  21
ENDBRANCH  13  15
ENDBRANCH  12  13
ENDBRANCH   9  12
ENDBRANCH   3   6
TORSDOF 6
ENDMDL
MODEL      166
REMARK 921   NORMALIZED FREE ENERGY PREDICTED BY IDOCK:   -3.86 KCAL/MOL
REMARK 922        TOTAL FREE ENERGY PREDICTED BY IDOCK:   -6.69 KCAL/MOL
REMARK 923 INTER-LIGAND FREE ENERGY PREDICTED BY IDOCK:   -6.13 KCAL/MOL
REMARK 924 INTRA-LIGAND FREE ENERGY PREDICTED BY IDOCK:   -0.57 KCAL/MOL
REMARK 927      BINDING AFFINITY PREDICTED BY RF-SCORE:    0.00 PKD
ROOT
HETATM    1  C   UNL     1     -13.858  15.794  73.050  1.00  0.00    -0.499 C  
HETATM    2  C   UNL     1     -12.770  15.091  72.277  1.00  0.00    -0.338 C  
HETATM    3  N   UNL     1     -13.269  14.284  71.266  1.00  0.00    -0.346 N  
HETATM    4  O   UNL     1     -11.593  15.271  72.569  1.00  0.00    -0.441 OA 
HETATM    5  H   UNL     1     -14.283  14.260  71.159  1.00  0.00     0.000 HD 
ENDROOT
BRANCH   3   6
HETATM    6  C   UNL     1     -12.518  13.491  70.367  1.00  0.00    -0.275 A  
HETATM    7  C   UNL     1     -11.906  14.001  69.220  1.00  0.00    -0.389 A  
HETATM    8  C   UNL     1     -11.152  13.181  68.378  1.00  0.00    -0.298 A  
HETATM    9  C   UNL     1     -10.975  11.837  68.686  1.00  0.00    -0.224 A  
HETATM   10  C   UNL     1     -12.376  12.124  70.644  1.00  0.00    -0.385 A  
HETATM   11  C   UNL     1     -11.614  11.297  69.803  1.00  0.00    -0.408 A  
BRANCH   9  12
HETATM   12  O   UNL     1     -10.157  10.952  67.938  1.00  0.00    -0.171 OA 
BRANCH  12  13
HETATM   13  C   UNL     1     -10.197   9.562  68.077  1.00  0.00    -0.201 C  
HETATM   14  O   UNL     1     -10.847   8.773  67.410  1.00  0.00    -0.213 OA 
BRANCH  13  15
HETATM   15  C   UNL     1      -9.270   9.135  69.157  1.00  0.00    -0.144 A  
HETATM   16  C   UNL     1      -8.060   9.821  69.369  1.00  0.00    -0.129 A  
HETATM   17  C   UNL     1      -7.206   9.447  70.411  1.00  0.00    -0.111 A  
HETATM   18  C   UNL     1      -7.550   8.398  71.259  1.00  0.00    -0.100 A  
HETATM   19  C   UNL     1      -8.751   7.719  71.072  1.00  0.00    -0.138 A  
HETATM   20  C   UNL     1      -9.598   8.071  70.010  1.00  0.00    -0.171 A  
BRANCH  20  21
HETATM   21  O   UNL     1     -10.832   7.399  69.902  1.00  0.00    -0.246 OA 
BRANCH  21  22
HETATM   22  C   UNL     1     -11.500   7.131  71.094  1.00  0.00    -0.290 C  
HETATM   23  O   UNL     1     -11.365   6.138  71.796  1.00  0.00    -0.275 OA 
HETATM   24  C   UNL     1     -12.353   8.308  71.462  1.00  0.00    -0.336 C  
ENDBRANCH  21  22
ENDBRANCH  20  21
ENDBRANCH  13  15
ENDBRANCH  12  13
ENDBRANCH   9  12
ENDBRANCH   3   6
TORSDOF 6
ENDMDL
MODEL      167
REMARK 921   NORMALIZED FREE ENERGY PREDICTED BY IDOCK:   -3.83 KCAL/MOL
REMARK 922        TOTAL FREE ENERGY PREDICTED BY IDOCK:   -6.65 KCAL/MOL
REMARK 923 INTER-LIGAND FREE ENERGY PREDICTED BY IDOCK:   -5.74 KCAL/MOL
REMARK 924 INTRA-LIGAND FREE ENERGY PREDICTED BY IDOCK:   -0.92 KCAL/MOL
REMARK 927      BINDING AFFINITY PREDICTED BY RF-SCORE:    0.00 PKD
ROOT
HETATM    1  C   UNL     1     -10.176  18.073  66.541  1.00  0.00    -0.383 C  
HETATM    2  C   UNL     1      -9.972  16.769  67.271  1.00  0.00    -0.272 C  
HETATM    3  N   UNL     1     -11.037  15.896  67.113  1.00  0.00    -0.217 N  
HETATM    4  O   UNL     1      -8.944  16.575  67.909  1.00  0.00    -0.201 OA 
HETATM    5  H   UNL     1     -11.813  16.222  66.536  1.00  0.00     0.000 HD 
ENDROOT
BRANCH   3   6
HETATM    6  C   UNL     1     -11.160  14.601  67.668  1.00  0.00    -0.304 A  
HETATM    7  C   UNL     1     -11.874  14.330  68.837  1.00  0.00    -0.372 A  
HETATM    8  C   UNL     1     -11.989  13.029  69.330  1.00  0.00    -0.338 A  
HETATM    9  C   UNL     1     -11.410  11.968  68.643  1.00  0.00    -0.277 A  
HETATM   10  C   UNL     1     -10.538  13.531  67.008  1.00  0.00    -0.269 A  
HETATM   11  C   UNL     1     -10.654  12.221  67.496  1.00  0.00    -0.242 A  
BRANCH   9  12
HETATM   12  O   UNL     1     -11.548  10.608  69.020  1.00  0.00    -0.275 OA 
BRANCH  12  13
HETATM   13  C   UNL     1     -11.075  10.091  70.230  1.00  0.00    -0.318 C  
HETATM   14  O   UNL     1     -11.616  10.159  71.322  1.00  0.00    -0.364 OA 
BRANCH  13  15
HETATM   15  C   UNL     1      -9.793   9.374  70.006  1.00  0.00    -0.253 A  
HETATM   16  C   UNL     1      -8.625  10.089  69.686  1.00  0.00    -0.198 A  
HETATM   17  C   UNL     1      -7.408   9.421  69.516  1.00  0.00    -0.073 A  
HETATM   18  C   UNL     1      -7.338   8.039  69.673  1.00  0.00    -0.085 A  
HETATM   19  C   UNL     1      -8.482   7.319  70.005  1.00  0.00    -0.139 A  
HETATM   20  C   UNL     1      -9.711   7.981  70.148  1.00  0.00    -0.176 A  
BRANCH  20  21
HETATM   21  O   UNL     1     -10.827   7.220  70.549  1.00  0.00    -0.231 OA 
BRANCH  21  22
HETATM   22  C   UNL     1     -10.780   6.676  71.830  1.00  0.00    -0.223 C  
HETATM   23  O   UNL     1     -10.984   7.271  72.881  1.00  0.00    -0.290 OA 
HETATM   24  C   UNL     1     -10.543   5.199  71.736  1.00  0.00    -0.238 C  
ENDBRANCH  21  22
ENDBRANCH  20  21
ENDBRANCH  13  15
ENDBRANCH  12  13
ENDBRANCH   9  12
ENDBRANCH   3   6
TORSDOF 6
ENDMDL
MODEL      168
REMARK 921   NORMALIZED FREE ENERGY PREDICTED BY IDOCK:   -3.82 KCAL/MOL
REMARK 922        TOTAL FREE ENERGY PREDICTED BY IDOCK:   -6.64 KCAL/MOL
REMARK 923 INTER-LIGAND FREE ENERGY PREDICTED BY IDOCK:   -5.81 KCAL/MOL
REMARK 924 INTRA-LIGAND FREE ENERGY PREDICTED BY IDOCK:   -0.83 KCAL/MOL
REMARK 927      BINDING AFFINITY PREDICTED BY RF-SCORE:    0.00 PKD
ROOT
HETATM    1  C   UNL     1      -9.045   3.292  68.252  1.00  0.00    -0.211 C  
HETATM    2  C   UNL     1      -8.876   4.752  67.917  1.00  0.00    -0.105 C  
HETATM    3  N   UNL     1     -10.004   5.502  68.208  1.00  0.00    -0.145 N  
HETATM    4  O   UNL     1      -7.818   5.157  67.448  1.00  0.00    -0.095 OA 
HETATM    5  H   UNL     1     -10.797   4.998  68.607  1.00  0.00     0.000 HD 
ENDROOT
BRANCH   3   6
HETATM    6  C   UNL     1     -10.172   6.893  68.010  1.00  0.00    -0.176 A  
HETATM    7  C   UNL     1     -10.150   7.498  66.752  1.00  0.00    -0.313 A  
HETATM    8  C   UNL     1     -10.347   8.872  66.606  1.00  0.00    -0.294 A  
HETATM    9  C   UNL     1     -10.598   9.664  67.721  1.00  0.00    -0.264 A  
HETATM   10  C   UNL     1     -10.376   7.706  69.134  1.00  0.00    -0.217 A  
HETATM   11  C   UNL     1     -10.581   9.088  68.993  1.00  0.00    -0.209 A  
BRANCH   9  12
HETATM   12  O   UNL     1     -10.896  11.049  67.661  1.00  0.00    -0.219 OA 
BRANCH  12  13
HETATM   13  C   UNL     1      -9.983  12.050  68.004  1.00  0.00    -0.197 C  
HETATM   14  O   UNL     1      -8.764  11.979  67.970  1.00  0.00    -0.160 OA 
BRANCH  13  15
HETATM   15  C   UNL     1     -10.710  13.287  68.390  1.00  0.00    -0.273 A  
HETATM   16  C   UNL     1     -11.333  13.382  69.647  1.00  0.00    -0.206 A  
HETATM   17  C   UNL     1     -11.982  14.561  70.029  1.00  0.00    -0.388 A  
HETATM   18  C   UNL     1     -12.009  15.657  69.172  1.00  0.00    -0.329 A  
HETATM   19  C   UNL     1     -11.383  15.584  67.930  1.00  0.00    -0.309 A  
HETATM   20  C   UNL     1     -10.756  14.394  67.531  1.00  0.00    -0.271 A  
BRANCH  20  21
HETATM   21  O   UNL     1     -10.080  14.390  66.294  1.00  0.00    -0.276 OA 
BRANCH  21  22
HETATM   22  C   UNL     1     -10.840  14.071  65.172  1.00  0.00    -0.369 C  
HETATM   23  O   UNL     1     -11.664  14.790  64.622  1.00  0.00    -0.409 OA 
HETATM   24  C   UNL     1     -10.421  12.727  64.654  1.00  0.00    -0.373 C  
ENDBRANCH  21  22
ENDBRANCH  20  21
ENDBRANCH  13  15
ENDBRANCH  12  13
ENDBRANCH   9  12
ENDBRANCH   3   6
TORSDOF 6
ENDMDL
MODEL      169
REMARK 921   NORMALIZED FREE ENERGY PREDICTED BY IDOCK:   -3.82 KCAL/MOL
REMARK 922        TOTAL FREE ENERGY PREDICTED BY IDOCK:   -6.63 KCAL/MOL
REMARK 923 INTER-LIGAND FREE ENERGY PREDICTED BY IDOCK:   -5.75 KCAL/MOL
REMARK 924 INTRA-LIGAND FREE ENERGY PREDICTED BY IDOCK:   -0.88 KCAL/MOL
REMARK 927      BINDING AFFINITY PREDICTED BY RF-SCORE:    0.00 PKD
ROOT
HETATM    1  C   UNL     1     -11.447   2.519  73.749  1.00  0.00    -0.199 C  
HETATM    2  C   UNL     1     -10.779   3.710  73.109  1.00  0.00    -0.175 C  
HETATM    3  N   UNL     1     -11.553   4.857  73.175  1.00  0.00    -0.396 N  
HETATM    4  O   UNL     1      -9.664   3.596  72.612  1.00  0.00    -0.128 OA 
HETATM    5  H   UNL     1     -12.459   4.771  73.637  1.00  0.00     0.000 HD 
ENDROOT
BRANCH   3   6
HETATM    6  C   UNL     1     -11.219   6.135  72.667  1.00  0.00    -0.274 A  
HETATM    7  C   UNL     1     -10.438   7.059  73.366  1.00  0.00    -0.383 A  
HETATM    8  C   UNL     1     -10.113   8.297  72.810  1.00  0.00    -0.333 A  
HETATM    9  C   UNL     1     -10.545   8.624  71.529  1.00  0.00    -0.282 A  
HETATM   10  C   UNL     1     -11.692   6.491  71.396  1.00  0.00    -0.378 A  
HETATM   11  C   UNL     1     -11.364   7.734  70.831  1.00  0.00    -0.288 A  
BRANCH   9  12
HETATM   12  O   UNL     1     -10.192   9.819  70.852  1.00  0.00    -0.271 OA 
BRANCH  12  13
HETATM   13  C   UNL     1      -9.613   9.843  69.581  1.00  0.00    -0.227 C  
HETATM   14  O   UNL     1      -8.863   9.010  69.096  1.00  0.00    -0.138 OA 
BRANCH  13  15
HETATM   15  C   UNL     1     -10.080  11.041  68.836  1.00  0.00    -0.212 A  
HETATM   16  C   UNL     1     -11.454  11.258  68.629  1.00  0.00    -0.362 A  
HETATM   17  C   UNL     1     -11.899  12.405  67.965  1.00  0.00    -0.376 A  
HETATM   18  C   UNL     1     -10.985  13.352  67.509  1.00  0.00    -0.284 A  
HETATM   19  C   UNL     1      -9.622  13.159  67.719  1.00  0.00    -0.208 A  
HETATM   20  C   UNL     1      -9.169  11.995  68.360  1.00  0.00    -0.160 A  
BRANCH  20  21
HETATM   21  O   UNL     1      -7.787  11.876  68.608  1.00  0.00    -0.135 OA 
BRANCH  21  22
HETATM   22  C   UNL     1      -6.943  12.038  67.513  1.00  0.00    -0.130 C  
HETATM   23  O   UNL     1      -6.242  13.012  67.272  1.00  0.00    -0.279 OA 
HETATM   24  C   UNL     1      -6.932  10.776  66.702  1.00  0.00    -0.129 C  
ENDBRANCH  21  22
ENDBRANCH  20  21
ENDBRANCH  13  15
ENDBRANCH  12  13
ENDBRANCH   9  12
ENDBRANCH   3   6
TORSDOF 6
ENDMDL
MODEL      170
REMARK 921   NORMALIZED FREE ENERGY PREDICTED BY IDOCK:   -3.81 KCAL/MOL
REMARK 922        TOTAL FREE ENERGY PREDICTED BY IDOCK:   -6.63 KCAL/MOL
REMARK 923 INTER-LIGAND FREE ENERGY PREDICTED BY IDOCK:   -5.50 KCAL/MOL
REMARK 924 INTRA-LIGAND FREE ENERGY PREDICTED BY IDOCK:   -1.13 KCAL/MOL
REMARK 927      BINDING AFFINITY PREDICTED BY RF-SCORE:    0.00 PKD
ROOT
HETATM    1  C   UNL     1     -11.244  16.133  69.910  1.00  0.00    -0.349 C  
HETATM    2  C   UNL     1     -11.307  14.634  69.761  1.00  0.00    -0.275 C  
HETATM    3  N   UNL     1     -10.620  14.179  68.646  1.00  0.00    -0.244 N  
HETATM    4  O   UNL     1     -11.915  13.959  70.583  1.00  0.00    -0.323 OA 
HETATM    5  H   UNL     1     -10.161  14.886  68.072  1.00  0.00     0.000 HD 
ENDROOT
BRANCH   3   6
HETATM    6  C   UNL     1     -10.490  12.835  68.222  1.00  0.00    -0.241 A  
HETATM    7  C   UNL     1     -11.580  12.024  67.896  1.00  0.00    -0.405 A  
HETATM    8  C   UNL     1     -11.397  10.711  67.456  1.00  0.00    -0.241 A  
HETATM    9  C   UNL     1     -10.114  10.195  67.308  1.00  0.00    -0.206 A  
HETATM   10  C   UNL     1      -9.202  12.292  68.117  1.00  0.00    -0.197 A  
HETATM   11  C   UNL     1      -9.013  10.974  67.670  1.00  0.00    -0.142 A  
BRANCH   9  12
HETATM   12  O   UNL     1      -9.832   8.908  66.786  1.00  0.00    -0.196 OA 
BRANCH  12  13
HETATM   13  C   UNL     1     -10.273   7.721  67.379  1.00  0.00    -0.251 C  
HETATM   14  O   UNL     1     -11.209   7.023  67.022  1.00  0.00    -0.328 OA 
BRANCH  13  15
HETATM   15  C   UNL     1      -9.393   7.370  68.523  1.00  0.00    -0.141 A  
HETATM   16  C   UNL     1      -8.159   6.730  68.301  1.00  0.00    -0.115 A  
HETATM   17  C   UNL     1      -7.310   6.436  69.372  1.00  0.00    -0.092 A  
HETATM   18  C   UNL     1      -7.673   6.783  70.671  1.00  0.00    -0.097 A  
HETATM   19  C   UNL     1      -8.883   7.430  70.906  1.00  0.00    -0.148 A  
HETATM   20  C   UNL     1      -9.751   7.701  69.837  1.00  0.00    -0.175 A  
BRANCH  20  21
HETATM   21  O   UNL     1     -10.934   8.416  70.116  1.00  0.00    -0.242 OA 
BRANCH  21  22
HETATM   22  C   UNL     1     -11.820   7.826  71.013  1.00  0.00    -0.272 C  
HETATM   23  O   UNL     1     -12.204   6.663  70.998  1.00  0.00    -0.367 OA 
HETATM   24  C   UNL     1     -12.166   8.809  72.090  1.00  0.00    -0.448 C  
ENDBRANCH  21  22
ENDBRANCH  20  21
ENDBRANCH  13  15
ENDBRANCH  12  13
ENDBRANCH   9  12
ENDBRANCH   3   6
TORSDOF 6
ENDMDL
MODEL      171
REMARK 921   NORMALIZED FREE ENERGY PREDICTED BY IDOCK:   -3.81 KCAL/MOL
REMARK 922        TOTAL FREE ENERGY PREDICTED BY IDOCK:   -6.62 KCAL/MOL
REMARK 923 INTER-LIGAND FREE ENERGY PREDICTED BY IDOCK:   -5.69 KCAL/MOL
REMARK 924 INTRA-LIGAND FREE ENERGY PREDICTED BY IDOCK:   -0.93 KCAL/MOL
REMARK 927      BINDING AFFINITY PREDICTED BY RF-SCORE:    0.00 PKD
ROOT
HETATM    1  C   UNL     1      -9.531  19.694  66.703  1.00  0.00    -0.467 C  
HETATM    2  C   UNL     1     -10.040  18.293  66.474  1.00  0.00    -0.385 C  
HETATM    3  N   UNL     1      -9.571  17.393  67.418  1.00  0.00    -0.253 N  
HETATM    4  O   UNL     1     -10.790  18.057  65.534  1.00  0.00    -0.483 OA 
HETATM    5  H   UNL     1      -8.957  17.768  68.141  1.00  0.00     0.000 HD 
ENDROOT
BRANCH   3   6
HETATM    6  C   UNL     1      -9.856  16.009  67.483  1.00  0.00    -0.235 A  
HETATM    7  C   UNL     1     -11.001  15.488  68.091  1.00  0.00    -0.312 A  
HETATM    8  C   UNL     1     -11.250  14.114  68.105  1.00  0.00    -0.299 A  
HETATM    9  C   UNL     1     -10.367  13.237  67.486  1.00  0.00    -0.229 A  
HETATM   10  C   UNL     1      -8.946  15.113  66.904  1.00  0.00    -0.277 A  
HETATM   11  C   UNL     1      -9.195  13.732  66.911  1.00  0.00    -0.263 A  
BRANCH   9  12
HETATM   12  O   UNL     1     -10.582  11.840  67.375  1.00  0.00    -0.212 OA 
BRANCH  12  13
HETATM   13  C   UNL     1     -10.505  11.140  66.167  1.00  0.00    -0.253 C  
HETATM   14  O   UNL     1     -10.856  11.531  65.066  1.00  0.00    -0.296 OA 
BRANCH  13  15
HETATM   15  C   UNL     1      -9.870   9.816  66.390  1.00  0.00    -0.298 A  
HETATM   16  C   UNL     1     -10.634   8.729  66.854  1.00  0.00    -0.263 A  
HETATM   17  C   UNL     1     -10.048   7.471  67.024  1.00  0.00    -0.332 A  
HETATM   18  C   UNL     1      -8.702   7.278  66.726  1.00  0.00    -0.132 A  
HETATM   19  C   UNL     1      -7.936   8.339  66.252  1.00  0.00    -0.100 A  
HETATM   20  C   UNL     1      -8.512   9.610  66.107  1.00  0.00    -0.120 A  
BRANCH  20  21
HETATM   21  O   UNL     1      -7.714  10.635  65.561  1.00  0.00    -0.147 OA 
BRANCH  21  22
HETATM   22  C   UNL     1      -6.553  10.957  66.259  1.00  0.00    -0.126 C  
HETATM   23  O   UNL     1      -5.409  10.914  65.828  1.00  0.00    -0.118 OA 
HETATM   24  C   UNL     1      -6.917  11.479  67.617  1.00  0.00    -0.091 C  
ENDBRANCH  21  22
ENDBRANCH  20  21
ENDBRANCH  13  15
ENDBRANCH  12  13
ENDBRANCH   9  12
ENDBRANCH   3   6
TORSDOF 6
ENDMDL
MODEL      172
REMARK 921   NORMALIZED FREE ENERGY PREDICTED BY IDOCK:   -3.80 KCAL/MOL
REMARK 922        TOTAL FREE ENERGY PREDICTED BY IDOCK:   -6.61 KCAL/MOL
REMARK 923 INTER-LIGAND FREE ENERGY PREDICTED BY IDOCK:   -5.99 KCAL/MOL
REMARK 924 INTRA-LIGAND FREE ENERGY PREDICTED BY IDOCK:   -0.63 KCAL/MOL
REMARK 927      BINDING AFFINITY PREDICTED BY RF-SCORE:    0.00 PKD
ROOT
HETATM    1  C   UNL     1     -13.866  15.859  72.914  1.00  0.00    -0.530 C  
HETATM    2  C   UNL     1     -13.378  15.131  71.687  1.00  0.00    -0.431 C  
HETATM    3  N   UNL     1     -13.117  13.792  71.930  1.00  0.00    -0.370 N  
HETATM    4  O   UNL     1     -13.258  15.729  70.624  1.00  0.00    -0.501 OA 
HETATM    5  H   UNL     1     -13.282  13.458  72.879  1.00  0.00     0.000 HD 
ENDROOT
BRANCH   3   6
HETATM    6  C   UNL     1     -12.645  12.838  70.997  1.00  0.00    -0.271 A  
HETATM    7  C   UNL     1     -12.100  13.181  69.757  1.00  0.00    -0.336 A  
HETATM    8  C   UNL     1     -11.622  12.203  68.882  1.00  0.00    -0.377 A  
HETATM    9  C   UNL     1     -11.658  10.862  69.246  1.00  0.00    -0.318 A  
HETATM   10  C   UNL     1     -12.723  11.480  71.335  1.00  0.00    -0.469 A  
HETATM   11  C   UNL     1     -12.239  10.493  70.461  1.00  0.00    -0.435 A  
BRANCH   9  12
HETATM   12  O   UNL     1     -11.118   9.811  68.461  1.00  0.00    -0.184 OA 
BRANCH  12  13
HETATM   13  C   UNL     1     -10.131   8.935  68.919  1.00  0.00    -0.197 C  
HETATM   14  O   UNL     1     -10.290   7.797  69.333  1.00  0.00    -0.210 OA 
BRANCH  13  15
HETATM   15  C   UNL     1      -8.793   9.569  68.793  1.00  0.00    -0.132 A  
HETATM   16  C   UNL     1      -8.095   9.991  69.939  1.00  0.00    -0.180 A  
HETATM   17  C   UNL     1      -6.819  10.550  69.826  1.00  0.00    -0.138 A  
HETATM   18  C   UNL     1      -6.220  10.686  68.576  1.00  0.00    -0.049 A  
HETATM   19  C   UNL     1      -6.891  10.259  67.434  1.00  0.00    -0.077 A  
HETATM   20  C   UNL     1      -8.184   9.724  67.539  1.00  0.00    -0.114 A  
BRANCH  20  21
HETATM   21  O   UNL     1      -8.796   9.246  66.364  1.00  0.00    -0.137 OA 
BRANCH  21  22
HETATM   22  C   UNL     1      -8.785  10.102  65.265  1.00  0.00    -0.165 C  
HETATM   23  O   UNL     1      -9.168  11.264  65.243  1.00  0.00    -0.218 OA 
HETATM   24  C   UNL     1      -8.121   9.416  64.108  1.00  0.00    -0.145 C  
ENDBRANCH  21  22
ENDBRANCH  20  21
ENDBRANCH  13  15
ENDBRANCH  12  13
ENDBRANCH   9  12
ENDBRANCH   3   6
TORSDOF 6
ENDMDL
MODEL      173
REMARK 921   NORMALIZED FREE ENERGY PREDICTED BY IDOCK:   -3.79 KCAL/MOL
REMARK 922        TOTAL FREE ENERGY PREDICTED BY IDOCK:   -6.59 KCAL/MOL
REMARK 923 INTER-LIGAND FREE ENERGY PREDICTED BY IDOCK:   -5.89 KCAL/MOL
REMARK 924 INTRA-LIGAND FREE ENERGY PREDICTED BY IDOCK:   -0.70 KCAL/MOL
REMARK 927      BINDING AFFINITY PREDICTED BY RF-SCORE:    0.00 PKD
ROOT
HETATM    1  C   UNL     1      -7.157  21.107  66.279  1.00  0.00     0.110 C  
HETATM    2  C   UNL     1      -7.644  19.689  66.441  1.00  0.00    -0.291 C  
HETATM    3  N   UNL     1      -8.151  19.440  67.706  1.00  0.00    -0.284 N  
HETATM    4  O   UNL     1      -7.572  18.903  65.504  1.00  0.00    -0.466 OA 
HETATM    5  H   UNL     1      -8.141  20.220  68.364  1.00  0.00     0.000 HD 
ENDROOT
BRANCH   3   6
HETATM    6  C   UNL     1      -8.681  18.217  68.181  1.00  0.00    -0.281 A  
HETATM    7  C   UNL     1     -10.036  18.023  68.459  1.00  0.00    -0.395 A  
HETATM    8  C   UNL     1     -10.514  16.788  68.900  1.00  0.00    -0.332 A  
HETATM    9  C   UNL     1      -9.644  15.713  69.045  1.00  0.00    -0.243 A  
HETATM   10  C   UNL     1      -7.802  17.142  68.377  1.00  0.00    -0.244 A  
HETATM   11  C   UNL     1      -8.279  15.896  68.815  1.00  0.00    -0.196 A  
BRANCH   9  12
HETATM   12  O   UNL     1     -10.053  14.403  69.403  1.00  0.00    -0.098 OA 
BRANCH  12  13
HETATM   13  C   UNL     1     -11.154  13.756  68.835  1.00  0.00    -0.266 C  
HETATM   14  O   UNL     1     -11.726  14.049  67.797  1.00  0.00    -0.327 OA 
BRANCH  13  15
HETATM   15  C   UNL     1     -11.534  12.583  69.664  1.00  0.00    -0.255 A  
HETATM   16  C   UNL     1     -12.587  12.680  70.592  1.00  0.00    -0.241 A  
HETATM   17  C   UNL     1     -12.974  11.566  71.344  1.00  0.00    -0.450 A  
HETATM   18  C   UNL     1     -12.327  10.345  71.174  1.00  0.00    -0.505 A  
HETATM   19  C   UNL     1     -11.293  10.229  70.249  1.00  0.00    -0.398 A  
HETATM   20  C   UNL     1     -10.882  11.351  69.513  1.00  0.00    -0.108 A  
BRANCH  20  21
HETATM   21  O   UNL     1      -9.877  11.169  68.543  1.00  0.00    -0.185 OA 
BRANCH  21  22
HETATM   22  C   UNL     1     -10.134  10.226  67.551  1.00  0.00    -0.198 C  
HETATM   23  O   UNL     1     -11.010  10.287  66.699  1.00  0.00    -0.108 OA 
HETATM   24  C   UNL     1      -9.093   9.148  67.608  1.00  0.00    -0.133 C  
ENDBRANCH  21  22
ENDBRANCH  20  21
ENDBRANCH  13  15
ENDBRANCH  12  13
ENDBRANCH   9  12
ENDBRANCH   3   6
TORSDOF 6
ENDMDL
MODEL      174
REMARK 921   NORMALIZED FREE ENERGY PREDICTED BY IDOCK:   -3.79 KCAL/MOL
REMARK 922        TOTAL FREE ENERGY PREDICTED BY IDOCK:   -6.59 KCAL/MOL
REMARK 923 INTER-LIGAND FREE ENERGY PREDICTED BY IDOCK:   -5.74 KCAL/MOL
REMARK 924 INTRA-LIGAND FREE ENERGY PREDICTED BY IDOCK:   -0.85 KCAL/MOL
REMARK 927      BINDING AFFINITY PREDICTED BY RF-SCORE:    0.00 PKD
ROOT
HETATM    1  C   UNL     1     -13.202  15.576  70.950  1.00  0.00    -0.474 C  
HETATM    2  C   UNL     1     -12.546  14.592  70.014  1.00  0.00    -0.232 C  
HETATM    3  N   UNL     1     -12.005  15.200  68.893  1.00  0.00    -0.514 N  
HETATM    4  O   UNL     1     -12.527  13.398  70.291  1.00  0.00    -0.290 OA 
HETATM    5  H   UNL     1     -12.105  16.214  68.829  1.00  0.00     0.000 HD 
ENDROOT
BRANCH   3   6
HETATM    6  C   UNL     1     -11.329  14.563  67.826  1.00  0.00    -0.317 A  
HETATM    7  C   UNL     1      -9.965  14.261  67.851  1.00  0.00    -0.230 A  
HETATM    8  C   UNL     1      -9.349  13.606  66.783  1.00  0.00    -0.269 A  
HETATM    9  C   UNL     1     -10.097  13.215  65.678  1.00  0.00    -0.271 A  
HETATM   10  C   UNL     1     -12.066  14.210  66.686  1.00  0.00    -0.480 A  
HETATM   11  C   UNL     1     -11.452  13.546  65.612  1.00  0.00    -0.330 A  
BRANCH   9  12
HETATM   12  O   UNL     1      -9.576  12.471  64.590  1.00  0.00     0.009 OA 
BRANCH  12  13
HETATM   13  C   UNL     1     -10.084  11.233  64.188  1.00  0.00    -0.320 C  
HETATM   14  O   UNL     1     -10.613  10.965  63.121  1.00  0.00    -0.191 OA 
BRANCH  13  15
HETATM   15  C   UNL     1      -9.850  10.221  65.250  1.00  0.00    -0.372 A  
HETATM   16  C   UNL     1     -10.683  10.174  66.383  1.00  0.00    -0.077 A  
HETATM   17  C   UNL     1     -10.491   9.196  67.364  1.00  0.00    -0.339 A  
HETATM   18  C   UNL     1      -9.478   8.252  67.225  1.00  0.00    -0.193 A  
HETATM   19  C   UNL     1      -8.654   8.275  66.102  1.00  0.00    -0.156 A  
HETATM   20  C   UNL     1      -8.825   9.272  65.129  1.00  0.00    -0.198 A  
BRANCH  20  21
HETATM   21  O   UNL     1      -8.011   9.216  63.980  1.00  0.00    -0.126 OA 
BRANCH  21  22
HETATM   22  C   UNL     1      -6.846   9.978  64.005  1.00  0.00    -0.126 C  
HETATM   23  O   UNL     1      -6.233  10.336  65.002  1.00  0.00    -0.116 OA 
HETATM   24  C   UNL     1      -6.377  10.216  62.601  1.00  0.00    -0.128 C  
ENDBRANCH  21  22
ENDBRANCH  20  21
ENDBRANCH  13  15
ENDBRANCH  12  13
ENDBRANCH   9  12
ENDBRANCH   3   6
TORSDOF 6
ENDMDL
MODEL      175
REMARK 921   NORMALIZED FREE ENERGY PREDICTED BY IDOCK:   -3.78 KCAL/MOL
REMARK 922        TOTAL FREE ENERGY PREDICTED BY IDOCK:   -6.59 KCAL/MOL
REMARK 923 INTER-LIGAND FREE ENERGY PREDICTED BY IDOCK:   -5.34 KCAL/MOL
REMARK 924 INTRA-LIGAND FREE ENERGY PREDICTED BY IDOCK:   -1.24 KCAL/MOL
REMARK 927      BINDING AFFINITY PREDICTED BY RF-SCORE:    0.00 PKD
ROOT
HETATM    1  C   UNL     1     -13.546  15.458  71.505  1.00  0.00    -0.604 C  
HETATM    2  C   UNL     1     -12.805  14.396  70.733  1.00  0.00    -0.353 C  
HETATM    3  N   UNL     1     -12.301  14.863  69.530  1.00  0.00    -0.541 N  
HETATM    4  O   UNL     1     -12.696  13.264  71.193  1.00  0.00    -0.357 OA 
HETATM    5  H   UNL     1     -12.479  15.843  69.309  1.00  0.00     0.000 HD 
ENDROOT
BRANCH   3   6
HETATM    6  C   UNL     1     -11.564  14.122  68.575  1.00  0.00    -0.316 A  
HETATM    7  C   UNL     1     -12.123  13.612  67.401  1.00  0.00    -0.375 A  
HETATM    8  C   UNL     1     -11.348  12.910  66.477  1.00  0.00    -0.361 A  
HETATM    9  C   UNL     1      -9.987  12.730  66.699  1.00  0.00    -0.245 A  
HETATM   10  C   UNL     1     -10.202  13.893  68.816  1.00  0.00    -0.188 A  
HETATM   11  C   UNL     1      -9.417  13.193  67.887  1.00  0.00    -0.218 A  
BRANCH   9  12
HETATM   12  O   UNL     1      -9.107  12.108  65.778  1.00  0.00    -0.096 OA 
BRANCH  12  13
HETATM   13  C   UNL     1      -9.208  10.767  65.399  1.00  0.00    -0.205 C  
HETATM   14  O   UNL     1     -10.083  10.258  64.716  1.00  0.00    -0.344 OA 
BRANCH  13  15
HETATM   15  C   UNL     1      -8.040  10.007  65.913  1.00  0.00    -0.126 A  
HETATM   16  C   UNL     1      -6.751  10.258  65.409  1.00  0.00    -0.123 A  
HETATM   17  C   UNL     1      -5.644   9.574  65.921  1.00  0.00    -0.045 A  
HETATM   18  C   UNL     1      -5.804   8.643  66.943  1.00  0.00    -0.049 A  
HETATM   19  C   UNL     1      -7.072   8.394  67.463  1.00  0.00    -0.083 A  
HETATM   20  C   UNL     1      -8.189   9.057  66.934  1.00  0.00    -0.116 A  
BRANCH  20  21
HETATM   21  O   UNL     1      -9.441   8.821  67.536  1.00  0.00    -0.137 OA 
BRANCH  21  22
HETATM   22  C   UNL     1      -9.737   9.575  68.669  1.00  0.00    -0.155 C  
HETATM   23  O   UNL     1      -8.939   9.974  69.507  1.00  0.00    -0.185 OA 
HETATM   24  C   UNL     1     -11.194   9.930  68.664  1.00  0.00    -0.122 C  
ENDBRANCH  21  22
ENDBRANCH  20  21
ENDBRANCH  13  15
ENDBRANCH  12  13
ENDBRANCH   9  12
ENDBRANCH   3   6
TORSDOF 6
ENDMDL
MODEL      176
REMARK 921   NORMALIZED FREE ENERGY PREDICTED BY IDOCK:   -3.77 KCAL/MOL
REMARK 922        TOTAL FREE ENERGY PREDICTED BY IDOCK:   -6.57 KCAL/MOL
REMARK 923 INTER-LIGAND FREE ENERGY PREDICTED BY IDOCK:   -6.17 KCAL/MOL
REMARK 924 INTRA-LIGAND FREE ENERGY PREDICTED BY IDOCK:   -0.40 KCAL/MOL
REMARK 927      BINDING AFFINITY PREDICTED BY RF-SCORE:    0.00 PKD
ROOT
HETATM    1  C   UNL     1     -10.519   8.370  66.775  1.00  0.00    -0.315 C  
HETATM    2  C   UNL     1     -10.026   9.712  66.294  1.00  0.00    -0.264 C  
HETATM    3  N   UNL     1      -9.845  10.616  67.328  1.00  0.00    -0.172 N  
HETATM    4  O   UNL     1      -9.823   9.901  65.100  1.00  0.00    -0.306 OA 
HETATM    5  H   UNL     1     -10.056  10.283  68.269  1.00  0.00     0.000 HD 
ENDROOT
BRANCH   3   6
HETATM    6  C   UNL     1      -9.399  11.955  67.215  1.00  0.00    -0.177 A  
HETATM    7  C   UNL     1     -10.160  12.972  66.634  1.00  0.00    -0.251 A  
HETATM    8  C   UNL     1      -9.686  14.283  66.571  1.00  0.00    -0.304 A  
HETATM    9  C   UNL     1      -8.447  14.606  67.114  1.00  0.00    -0.221 A  
HETATM   10  C   UNL     1      -8.130  12.278  67.717  1.00  0.00    -0.155 A  
HETATM   11  C   UNL     1      -7.651  13.597  67.660  1.00  0.00    -0.186 A  
BRANCH   9  12
HETATM   12  O   UNL     1      -7.924  15.923  67.173  1.00  0.00    -0.169 OA 
BRANCH  12  13
HETATM   13  C   UNL     1      -8.320  16.868  68.123  1.00  0.00    -0.212 C  
HETATM   14  O   UNL     1      -9.089  16.698  69.056  1.00  0.00    -0.256 OA 
BRANCH  13  15
HETATM   15  C   UNL     1      -7.621  18.156  67.877  1.00  0.00    -0.234 A  
HETATM   16  C   UNL     1      -6.649  18.621  68.781  1.00  0.00    -0.281 A  
HETATM   17  C   UNL     1      -5.960  19.812  68.531  1.00  0.00    -0.267 A  
HETATM   18  C   UNL     1      -6.220  20.544  67.376  1.00  0.00    -0.279 A  
HETATM   19  C   UNL     1      -7.168  20.089  66.463  1.00  0.00    -0.284 A  
HETATM   20  C   UNL     1      -7.883  18.910  66.724  1.00  0.00    -0.251 A  
BRANCH  20  21
HETATM   21  O   UNL     1      -8.783  18.455  65.741  1.00  0.00    -0.443 OA 
BRANCH  21  22
HETATM   22  C   UNL     1     -10.130  18.427  66.096  1.00  0.00    -0.360 C  
HETATM   23  O   UNL     1     -10.887  17.469  66.004  1.00  0.00    -0.175 OA 
HETATM   24  C   UNL     1     -10.506  19.736  66.722  1.00  0.00    -0.610 C  
ENDBRANCH  21  22
ENDBRANCH  20  21
ENDBRANCH  13  15
ENDBRANCH  12  13
ENDBRANCH   9  12
ENDBRANCH   3   6
TORSDOF 6
ENDMDL
MODEL      177
REMARK 921   NORMALIZED FREE ENERGY PREDICTED BY IDOCK:   -3.77 KCAL/MOL
REMARK 922        TOTAL FREE ENERGY PREDICTED BY IDOCK:   -6.57 KCAL/MOL
REMARK 923 INTER-LIGAND FREE ENERGY PREDICTED BY IDOCK:   -5.74 KCAL/MOL
REMARK 924 INTRA-LIGAND FREE ENERGY PREDICTED BY IDOCK:   -0.83 KCAL/MOL
REMARK 927      BINDING AFFINITY PREDICTED BY RF-SCORE:    0.00 PKD
ROOT
HETATM    1  C   UNL     1      -6.615  10.491  62.446  1.00  0.00    -0.151 C  
HETATM    2  C   UNL     1      -7.617  10.090  63.499  1.00  0.00    -0.146 C  
HETATM    3  N   UNL     1      -7.015   9.684  64.680  1.00  0.00    -0.106 N  
HETATM    4  O   UNL     1      -8.817  10.151  63.262  1.00  0.00    -0.186 OA 
HETATM    5  H   UNL     1      -5.996   9.705  64.705  1.00  0.00     0.000 HD 
ENDROOT
BRANCH   3   6
HETATM    6  C   UNL     1      -7.669   9.244  65.856  1.00  0.00    -0.098 A  
HETATM    7  C   UNL     1      -8.354   8.030  65.945  1.00  0.00    -0.136 A  
HETATM    8  C   UNL     1      -8.960   7.628  67.137  1.00  0.00    -0.137 A  
HETATM    9  C   UNL     1      -8.867   8.425  68.272  1.00  0.00    -0.139 A  
HETATM   10  C   UNL     1      -7.622  10.066  66.991  1.00  0.00    -0.092 A  
HETATM   11  C   UNL     1      -8.225   9.663  68.193  1.00  0.00    -0.106 A  
BRANCH   9  12
HETATM   12  O   UNL     1      -9.375   8.059  69.544  1.00  0.00    -0.156 OA 
BRANCH  12  13
HETATM   13  C   UNL     1      -9.313   8.888  70.668  1.00  0.00    -0.212 C  
HETATM   14  O   UNL     1      -8.312   9.231  71.276  1.00  0.00    -0.317 OA 
BRANCH  13  15
HETATM   15  C   UNL     1     -10.676   9.361  71.022  1.00  0.00    -0.407 A  
HETATM   16  C   UNL     1     -11.244  10.460  70.351  1.00  0.00    -0.399 A  
HETATM   17  C   UNL     1     -12.542  10.881  70.653  1.00  0.00    -0.435 A  
HETATM   18  C   UNL     1     -13.292  10.211  71.616  1.00  0.00    -0.463 A  
HETATM   19  C   UNL     1     -12.750   9.112  72.278  1.00  0.00    -0.447 A  
HETATM   20  C   UNL     1     -11.437   8.703  71.999  1.00  0.00    -0.367 A  
BRANCH  20  21
HETATM   21  O   UNL     1     -10.957   7.547  72.646  1.00  0.00    -0.278 OA 
BRANCH  21  22
HETATM   22  C   UNL     1     -11.377   6.325  72.127  1.00  0.00    -0.297 C  
HETATM   23  O   UNL     1     -11.728   6.105  70.976  1.00  0.00    -0.281 OA 
HETATM   24  C   UNL     1     -11.235   5.264  73.178  1.00  0.00    -0.382 C  
ENDBRANCH  21  22
ENDBRANCH  20  21
ENDBRANCH  13  15
ENDBRANCH  12  13
ENDBRANCH   9  12
ENDBRANCH   3   6
TORSDOF 6
ENDMDL
MODEL      178
REMARK 921   NORMALIZED FREE ENERGY PREDICTED BY IDOCK:   -3.77 KCAL/MOL
REMARK 922        TOTAL FREE ENERGY PREDICTED BY IDOCK:   -6.56 KCAL/MOL
REMARK 923 INTER-LIGAND FREE ENERGY PREDICTED BY IDOCK:   -5.90 KCAL/MOL
REMARK 924 INTRA-LIGAND FREE ENERGY PREDICTED BY IDOCK:   -0.66 KCAL/MOL
REMARK 927      BINDING AFFINITY PREDICTED BY RF-SCORE:    0.00 PKD
ROOT
HETATM    1  C   UNL     1      -6.799   4.840  63.727  1.00  0.00    -0.043 C  
HETATM    2  C   UNL     1      -7.203   5.517  65.012  1.00  0.00    -0.066 C  
HETATM    3  N   UNL     1      -8.123   6.535  64.813  1.00  0.00    -0.168 N  
HETATM    4  O   UNL     1      -6.730   5.145  66.079  1.00  0.00    -0.051 OA 
HETATM    5  H   UNL     1      -8.416   6.705  63.851  1.00  0.00     0.000 HD 
ENDROOT
BRANCH   3   6
HETATM    6  C   UNL     1      -8.696   7.364  65.806  1.00  0.00    -0.109 A  
HETATM    7  C   UNL     1      -8.147   8.587  66.198  1.00  0.00    -0.105 A  
HETATM    8  C   UNL     1      -8.766   9.382  67.164  1.00  0.00    -0.134 A  
HETATM    9  C   UNL     1      -9.966   8.977  67.738  1.00  0.00    -0.187 A  
HETATM   10  C   UNL     1      -9.881   6.940  66.425  1.00  0.00    -0.101 A  
HETATM   11  C   UNL     1     -10.511   7.738  67.393  1.00  0.00    -0.362 A  
BRANCH   9  12
HETATM   12  O   UNL     1     -10.709   9.758  68.659  1.00  0.00    -0.218 OA 
BRANCH  12  13
HETATM   13  C   UNL     1     -11.523  10.830  68.283  1.00  0.00    -0.280 C  
HETATM   14  O   UNL     1     -11.819  11.167  67.148  1.00  0.00    -0.466 OA 
BRANCH  13  15
HETATM   15  C   UNL     1     -12.049  11.514  69.492  1.00  0.00    -0.351 A  
HETATM   16  C   UNL     1     -12.767  10.792  70.462  1.00  0.00    -0.388 A  
HETATM   17  C   UNL     1     -13.227  11.425  71.621  1.00  0.00    -0.413 A  
HETATM   18  C   UNL     1     -12.969  12.776  71.833  1.00  0.00    -0.400 A  
HETATM   19  C   UNL     1     -12.245  13.501  70.890  1.00  0.00    -0.387 A  
HETATM   20  C   UNL     1     -11.807  12.878  69.712  1.00  0.00    -0.310 A  
BRANCH  20  21
HETATM   21  O   UNL     1     -11.023  13.635  68.819  1.00  0.00    -0.251 OA 
BRANCH  21  22
HETATM   22  C   UNL     1     -11.700  14.558  68.027  1.00  0.00    -0.342 C  
HETATM   23  O   UNL     1     -12.330  14.317  67.005  1.00  0.00    -0.386 OA 
HETATM   24  C   UNL     1     -11.637  15.910  68.673  1.00  0.00    -0.383 C  
ENDBRANCH  21  22
ENDBRANCH  20  21
ENDBRANCH  13  15
ENDBRANCH  12  13
ENDBRANCH   9  12
ENDBRANCH   3   6
TORSDOF 6
ENDMDL
MODEL      179
REMARK 921   NORMALIZED FREE ENERGY PREDICTED BY IDOCK:   -3.75 KCAL/MOL
REMARK 922        TOTAL FREE ENERGY PREDICTED BY IDOCK:   -6.54 KCAL/MOL
REMARK 923 INTER-LIGAND FREE ENERGY PREDICTED BY IDOCK:   -7.58 KCAL/MOL
REMARK 924 INTRA-LIGAND FREE ENERGY PREDICTED BY IDOCK:    1.04 KCAL/MOL
REMARK 927      BINDING AFFINITY PREDICTED BY RF-SCORE:    0.00 PKD
ROOT
HETATM    1  C   UNL     1     -13.478  15.928  73.503  1.00  0.00    -0.384 C  
HETATM    2  C   UNL     1     -12.661  15.567  72.288  1.00  0.00    -0.400 C  
HETATM    3  N   UNL     1     -13.104  14.407  71.672  1.00  0.00    -0.331 N  
HETATM    4  O   UNL     1     -11.726  16.279  71.941  1.00  0.00    -0.491 OA 
HETATM    5  H   UNL     1     -13.908  13.943  72.095  1.00  0.00     0.000 HD 
ENDROOT
BRANCH   3   6
HETATM    6  C   UNL     1     -12.555  13.798  70.519  1.00  0.00    -0.291 A  
HETATM    7  C   UNL     1     -12.410  14.458  69.297  1.00  0.00    -0.188 A  
HETATM    8  C   UNL     1     -11.837  13.821  68.194  1.00  0.00    -0.411 A  
HETATM    9  C   UNL     1     -11.373  12.515  68.305  1.00  0.00    -0.286 A  
HETATM   10  C   UNL     1     -12.130  12.465  70.608  1.00  0.00    -0.317 A  
HETATM   11  C   UNL     1     -11.548  11.822  69.504  1.00  0.00    -0.398 A  
BRANCH   9  12
HETATM   12  O   UNL     1     -10.701  11.821  67.267  1.00  0.00    -0.219 OA 
BRANCH  12  13
HETATM   13  C   UNL     1      -9.566  12.314  66.617  1.00  0.00    -0.223 C  
HETATM   14  O   UNL     1      -8.826  11.704  65.862  1.00  0.00    -0.164 OA 
BRANCH  13  15
HETATM   15  C   UNL     1      -9.387  13.754  66.935  1.00  0.00    -0.267 A  
HETATM   16  C   UNL     1      -8.699  14.145  68.098  1.00  0.00    -0.181 A  
HETATM   17  C   UNL     1      -8.493  15.500  68.379  1.00  0.00    -0.163 A  
HETATM   18  C   UNL     1      -8.958  16.477  67.503  1.00  0.00    -0.201 A  
HETATM   19  C   UNL     1      -9.628  16.106  66.340  1.00  0.00    -0.312 A  
HETATM   20  C   UNL     1      -9.863  14.749  66.069  1.00  0.00    -0.324 A  
BRANCH  20  21
HETATM   21  O   UNL     1     -10.486  14.420  64.849  1.00  0.00    -0.415 OA 
BRANCH  21  22
HETATM   22  C   UNL     1     -11.813  14.816  64.703  1.00  0.00    -0.436 C  
HETATM   23  O   UNL     1     -12.220  15.780  64.068  1.00  0.00    -0.664 OA 
HETATM   24  C   UNL     1     -12.708  13.808  65.361  1.00  0.00    -0.513 C  
ENDBRANCH  21  22
ENDBRANCH  20  21
ENDBRANCH  13  15
ENDBRANCH  12  13
ENDBRANCH   9  12
ENDBRANCH   3   6
TORSDOF 6
ENDMDL
MODEL      180
REMARK 921   NORMALIZED FREE ENERGY PREDICTED BY IDOCK:   -3.73 KCAL/MOL
REMARK 922        TOTAL FREE ENERGY PREDICTED BY IDOCK:   -6.51 KCAL/MOL
REMARK 923 INTER-LIGAND FREE ENERGY PREDICTED BY IDOCK:   -6.03 KCAL/MOL
REMARK 924 INTRA-LIGAND FREE ENERGY PREDICTED BY IDOCK:   -0.48 KCAL/MOL
REMARK 927      BINDING AFFINITY PREDICTED BY RF-SCORE:    0.00 PKD
ROOT
HETATM    1  C   UNL     1     -10.645   8.676  66.996  1.00  0.00    -0.293 C  
HETATM    2  C   UNL     1     -10.449  10.164  67.140  1.00  0.00    -0.246 C  
HETATM    3  N   UNL     1      -9.147  10.502  67.474  1.00  0.00    -0.138 N  
HETATM    4  O   UNL     1     -11.389  10.929  66.957  1.00  0.00    -0.364 OA 
HETATM    5  H   UNL     1      -8.487   9.731  67.578  1.00  0.00     0.000 HD 
ENDROOT
BRANCH   3   6
HETATM    6  C   UNL     1      -8.638  11.805  67.685  1.00  0.00    -0.153 A  
HETATM    7  C   UNL     1      -7.332  12.181  67.362  1.00  0.00    -0.151 A  
HETATM    8  C   UNL     1      -6.885  13.488  67.565  1.00  0.00    -0.156 A  
HETATM    9  C   UNL     1      -7.749  14.452  68.072  1.00  0.00    -0.138 A  
HETATM   10  C   UNL     1      -9.488  12.770  68.242  1.00  0.00    -0.203 A  
HETATM   11  C   UNL     1      -9.045  14.087  68.443  1.00  0.00    -0.191 A  
BRANCH   9  12
HETATM   12  O   UNL     1      -7.409  15.819  68.229  1.00  0.00    -0.115 OA 
BRANCH  12  13
HETATM   13  C   UNL     1      -7.342  16.725  67.166  1.00  0.00    -0.187 C  
HETATM   14  O   UNL     1      -6.533  16.730  66.252  1.00  0.00    -0.211 OA 
BRANCH  13  15
HETATM   15  C   UNL     1      -8.458  17.701  67.263  1.00  0.00    -0.225 A  
HETATM   16  C   UNL     1      -9.559  17.609  66.391  1.00  0.00    -0.285 A  
HETATM   17  C   UNL     1     -10.631  18.500  66.507  1.00  0.00    -0.375 A  
HETATM   18  C   UNL     1     -10.624  19.482  67.494  1.00  0.00    -0.599 A  
HETATM   19  C   UNL     1      -9.549  19.576  68.374  1.00  0.00    -0.473 A  
HETATM   20  C   UNL     1      -8.459  18.703  68.243  1.00  0.00    -0.324 A  
BRANCH  20  21
HETATM   21  O   UNL     1      -7.425  18.793  69.197  1.00  0.00    -0.273 OA 
BRANCH  21  22
HETATM   22  C   UNL     1      -6.683  19.971  69.199  1.00  0.00    -0.291 C  
HETATM   23  O   UNL     1      -6.351  20.622  70.181  1.00  0.00    -0.371 OA 
HETATM   24  C   UNL     1      -6.244  20.284  67.800  1.00  0.00    -0.269 C  
ENDBRANCH  21  22
ENDBRANCH  20  21
ENDBRANCH  13  15
ENDBRANCH  12  13
ENDBRANCH   9  12
ENDBRANCH   3   6
TORSDOF 6
ENDMDL
MODEL      181
REMARK 921   NORMALIZED FREE ENERGY PREDICTED BY IDOCK:   -3.72 KCAL/MOL
REMARK 922        TOTAL FREE ENERGY PREDICTED BY IDOCK:   -6.50 KCAL/MOL
REMARK 923 INTER-LIGAND FREE ENERGY PREDICTED BY IDOCK:   -5.46 KCAL/MOL
REMARK 924 INTRA-LIGAND FREE ENERGY PREDICTED BY IDOCK:   -1.04 KCAL/MOL
REMARK 927      BINDING AFFINITY PREDICTED BY RF-SCORE:    0.00 PKD
ROOT
HETATM    1  C   UNL     1     -12.136  14.842  64.405  1.00  0.00    -0.457 C  
HETATM    2  C   UNL     1     -12.296  13.477  65.026  1.00  0.00    -0.428 C  
HETATM    3  N   UNL     1     -11.203  13.109  65.795  1.00  0.00    -0.284 N  
HETATM    4  O   UNL     1     -13.316  12.827  64.829  1.00  0.00    -0.736 OA 
HETATM    5  H   UNL     1     -10.440  13.783  65.856  1.00  0.00     0.000 HD 
ENDROOT
BRANCH   3   6
HETATM    6  C   UNL     1     -11.037  11.897  66.505  1.00  0.00    -0.306 A  
HETATM    7  C   UNL     1     -10.350  10.794  65.992  1.00  0.00    -0.300 A  
HETATM    8  C   UNL     1     -10.190   9.628  66.743  1.00  0.00    -0.308 A  
HETATM    9  C   UNL     1     -10.693   9.556  68.037  1.00  0.00    -0.212 A  
HETATM   10  C   UNL     1     -11.585  11.798  67.792  1.00  0.00    -0.374 A  
HETATM   11  C   UNL     1     -11.421  10.629  68.553  1.00  0.00    -0.333 A  
BRANCH   9  12
HETATM   12  O   UNL     1     -10.503   8.449  68.902  1.00  0.00    -0.218 OA 
BRANCH  12  13
HETATM   13  C   UNL     1     -10.502   7.121  68.467  1.00  0.00    -0.204 C  
HETATM   14  O   UNL     1     -11.322   6.582  67.742  1.00  0.00    -0.258 OA 
BRANCH  13  15
HETATM   15  C   UNL     1      -9.296   6.422  68.982  1.00  0.00    -0.127 A  
HETATM   16  C   UNL     1      -9.346   5.722  70.202  1.00  0.00    -0.184 A  
HETATM   17  C   UNL     1      -8.225   5.028  70.668  1.00  0.00    -0.102 A  
HETATM   18  C   UNL     1      -7.049   5.014  69.923  1.00  0.00    -0.054 A  
HETATM   19  C   UNL     1      -6.988   5.688  68.707  1.00  0.00    -0.064 A  
HETATM   20  C   UNL     1      -8.101   6.410  68.249  1.00  0.00    -0.113 A  
BRANCH  20  21
HETATM   21  O   UNL     1      -8.013   7.021  66.982  1.00  0.00    -0.112 OA 
BRANCH  21  22
HETATM   22  C   UNL     1      -7.670   6.194  65.916  1.00  0.00    -0.093 C  
HETATM   23  O   UNL     1      -6.583   6.141  65.356  1.00  0.00    -0.041 OA 
HETATM   24  C   UNL     1      -8.817   5.278  65.608  1.00  0.00    -0.152 C  
ENDBRANCH  21  22
ENDBRANCH  20  21
ENDBRANCH  13  15
ENDBRANCH  12  13
ENDBRANCH   9  12
ENDBRANCH   3   6
TORSDOF 6
ENDMDL
MODEL      182
REMARK 921   NORMALIZED FREE ENERGY PREDICTED BY IDOCK:   -3.68 KCAL/MOL
REMARK 922        TOTAL FREE ENERGY PREDICTED BY IDOCK:   -6.45 KCAL/MOL
REMARK 923 INTER-LIGAND FREE ENERGY PREDICTED BY IDOCK:   -6.16 KCAL/MOL
REMARK 924 INTRA-LIGAND FREE ENERGY PREDICTED BY IDOCK:   -0.29 KCAL/MOL
REMARK 927      BINDING AFFINITY PREDICTED BY RF-SCORE:    0.00 PKD
ROOT
HETATM    1  C   UNL     1     -14.403  15.467  72.240  1.00  0.00    -0.556 C  
HETATM    2  C   UNL     1     -13.463  14.458  71.630  1.00  0.00    -0.372 C  
HETATM    3  N   UNL     1     -13.131  14.761  70.319  1.00  0.00    -0.587 N  
HETATM    4  O   UNL     1     -13.074  13.502  72.291  1.00  0.00    -0.392 OA 
HETATM    5  H   UNL     1     -13.543  15.608  69.927  1.00  0.00     0.000 HD 
ENDROOT
BRANCH   3   6
HETATM    6  C   UNL     1     -12.279  14.018  69.467  1.00  0.00    -0.308 A  
HETATM    7  C   UNL     1     -11.623  14.571  68.365  1.00  0.00    -0.356 A  
HETATM    8  C   UNL     1     -10.771  13.802  67.570  1.00  0.00    -0.262 A  
HETATM    9  C   UNL     1     -10.539  12.467  67.883  1.00  0.00    -0.218 A  
HETATM   10  C   UNL     1     -12.079  12.659  69.746  1.00  0.00    -0.301 A  
HETATM   11  C   UNL     1     -11.219  11.883  68.954  1.00  0.00    -0.310 A  
BRANCH   9  12
HETATM   12  O   UNL     1      -9.626  11.636  67.187  1.00  0.00    -0.174 OA 
BRANCH  12  13
HETATM   13  C   UNL     1      -9.983  10.845  66.091  1.00  0.00    -0.233 C  
HETATM   14  O   UNL     1     -10.401  11.230  65.010  1.00  0.00    -0.271 OA 
BRANCH  13  15
HETATM   15  C   UNL     1      -9.735   9.413  66.398  1.00  0.00    -0.315 A  
HETATM   16  C   UNL     1     -10.658   8.682  67.169  1.00  0.00    -0.304 A  
HETATM   17  C   UNL     1     -10.449   7.323  67.425  1.00  0.00    -0.359 A  
HETATM   18  C   UNL     1      -9.329   6.676  66.910  1.00  0.00    -0.171 A  
HETATM   19  C   UNL     1      -8.414   7.382  66.133  1.00  0.00    -0.147 A  
HETATM   20  C   UNL     1      -8.605   8.752  65.897  1.00  0.00    -0.154 A  
BRANCH  20  21
HETATM   21  O   UNL     1      -7.689   9.408  65.051  1.00  0.00    -0.105 OA 
BRANCH  21  22
HETATM   22  C   UNL     1      -7.139   8.647  64.023  1.00  0.00    -0.090 C  
HETATM   23  O   UNL     1      -7.674   8.366  62.958  1.00  0.00    -0.117 OA 
HETATM   24  C   UNL     1      -5.721   8.298  64.365  1.00  0.00    -0.059 C  
ENDBRANCH  21  22
ENDBRANCH  20  21
ENDBRANCH  13  15
ENDBRANCH  12  13
ENDBRANCH   9  12
ENDBRANCH   3   6
TORSDOF 6
ENDMDL
MODEL      183
REMARK 921   NORMALIZED FREE ENERGY PREDICTED BY IDOCK:   -3.67 KCAL/MOL
REMARK 922        TOTAL FREE ENERGY PREDICTED BY IDOCK:   -6.43 KCAL/MOL
REMARK 923 INTER-LIGAND FREE ENERGY PREDICTED BY IDOCK:   -5.41 KCAL/MOL
REMARK 924 INTRA-LIGAND FREE ENERGY PREDICTED BY IDOCK:   -1.02 KCAL/MOL
REMARK 927      BINDING AFFINITY PREDICTED BY RF-SCORE:    0.00 PKD
ROOT
HETATM    1  C   UNL     1     -10.737  17.313  67.959  1.00  0.00    -0.367 C  
HETATM    2  C   UNL     1     -10.739  16.066  68.807  1.00  0.00    -0.282 C  
HETATM    3  N   UNL     1     -10.919  14.913  68.060  1.00  0.00    -0.270 N  
HETATM    4  O   UNL     1     -10.584  16.147  70.020  1.00  0.00    -0.300 OA 
HETATM    5  H   UNL     1     -11.023  15.032  67.052  1.00  0.00     0.000 HD 
ENDROOT
BRANCH   3   6
HETATM    6  C   UNL     1     -10.973  13.586  68.550  1.00  0.00    -0.267 A  
HETATM    7  C   UNL     1     -11.978  13.122  69.401  1.00  0.00    -0.347 A  
HETATM    8  C   UNL     1     -12.002  11.795  69.835  1.00  0.00    -0.405 A  
HETATM    9  C   UNL     1     -11.030  10.900  69.402  1.00  0.00    -0.252 A  
HETATM   10  C   UNL     1      -9.968  12.690  68.158  1.00  0.00    -0.225 A  
HETATM   11  C   UNL     1      -9.991  11.353  68.588  1.00  0.00    -0.209 A  
BRANCH   9  12
HETATM   12  O   UNL     1     -11.024   9.518  69.721  1.00  0.00    -0.231 OA 
BRANCH  12  13
HETATM   13  C   UNL     1     -10.107   8.933  70.598  1.00  0.00    -0.212 C  
HETATM   14  O   UNL     1      -9.553   9.464  71.547  1.00  0.00    -0.250 OA 
BRANCH  13  15
HETATM   15  C   UNL     1      -9.915   7.502  70.247  1.00  0.00    -0.192 A  
HETATM   16  C   UNL     1     -10.730   6.512  70.824  1.00  0.00    -0.290 A  
HETATM   17  C   UNL     1     -10.579   5.170  70.464  1.00  0.00    -0.221 A  
HETATM   18  C   UNL     1      -9.625   4.799  69.520  1.00  0.00    -0.250 A  
HETATM   19  C   UNL     1      -8.821   5.768  68.928  1.00  0.00    -0.110 A  
HETATM   20  C   UNL     1      -8.949   7.113  69.307  1.00  0.00    -0.138 A  
BRANCH  20  21
HETATM   21  O   UNL     1      -8.159   8.066  68.633  1.00  0.00    -0.121 OA 
BRANCH  21  22
HETATM   22  C   UNL     1      -8.119   7.968  67.244  1.00  0.00    -0.121 C  
HETATM   23  O   UNL     1      -7.165   7.608  66.567  1.00  0.00    -0.078 OA 
HETATM   24  C   UNL     1      -9.476   8.275  66.685  1.00  0.00    -0.271 C  
ENDBRANCH  21  22
ENDBRANCH  20  21
ENDBRANCH  13  15
ENDBRANCH  12  13
ENDBRANCH   9  12
ENDBRANCH   3   6
TORSDOF 6
ENDMDL
MODEL      184
REMARK 921   NORMALIZED FREE ENERGY PREDICTED BY IDOCK:   -3.66 KCAL/MOL
REMARK 922        TOTAL FREE ENERGY PREDICTED BY IDOCK:   -6.42 KCAL/MOL
REMARK 923 INTER-LIGAND FREE ENERGY PREDICTED BY IDOCK:   -5.55 KCAL/MOL
REMARK 924 INTRA-LIGAND FREE ENERGY PREDICTED BY IDOCK:   -0.87 KCAL/MOL
REMARK 927      BINDING AFFINITY PREDICTED BY RF-SCORE:    0.00 PKD
ROOT
HETATM    1  C   UNL     1      -9.476   3.468  63.726  1.00  0.00    -0.132 C  
HETATM    2  C   UNL     1      -9.821   4.360  64.892  1.00  0.00    -0.133 C  
HETATM    3  N   UNL     1      -8.720   5.042  65.386  1.00  0.00    -0.142 N  
HETATM    4  O   UNL     1     -10.976   4.428  65.295  1.00  0.00    -0.250 OA 
HETATM    5  H   UNL     1      -7.829   4.871  64.919  1.00  0.00     0.000 HD 
ENDROOT
BRANCH   3   6
HETATM    6  C   UNL     1      -8.702   5.950  66.471  1.00  0.00    -0.126 A  
HETATM    7  C   UNL     1      -8.451   5.565  67.790  1.00  0.00    -0.098 A  
HETATM    8  C   UNL     1      -8.418   6.504  68.823  1.00  0.00    -0.122 A  
HETATM    9  C   UNL     1      -8.610   7.853  68.548  1.00  0.00    -0.128 A  
HETATM   10  C   UNL     1      -8.944   7.305  66.209  1.00  0.00    -0.185 A  
HETATM   11  C   UNL     1      -8.907   8.254  67.244  1.00  0.00    -0.137 A  
BRANCH   9  12
HETATM   12  O   UNL     1      -8.508   8.884  69.516  1.00  0.00    -0.121 OA 
BRANCH  12  13
HETATM   13  C   UNL     1      -9.597   9.367  70.246  1.00  0.00    -0.249 C  
HETATM   14  O   UNL     1     -10.367  10.256  69.919  1.00  0.00    -0.255 OA 
BRANCH  13  15
HETATM   15  C   UNL     1      -9.739   8.600  71.510  1.00  0.00    -0.333 A  
HETATM   16  C   UNL     1      -8.619   8.367  72.330  1.00  0.00    -0.261 A  
HETATM   17  C   UNL     1      -8.757   7.681  73.541  1.00  0.00    -0.267 A  
HETATM   18  C   UNL     1     -10.008   7.230  73.954  1.00  0.00    -0.324 A  
HETATM   19  C   UNL     1     -11.128   7.466  73.161  1.00  0.00    -0.357 A  
HETATM   20  C   UNL     1     -10.990   8.128  71.932  1.00  0.00    -0.275 A  
BRANCH  20  21
HETATM   21  O   UNL     1     -12.161   8.401  71.197  1.00  0.00    -0.289 OA 
BRANCH  21  22
HETATM   22  C   UNL     1     -13.065   9.288  71.776  1.00  0.00    -0.400 C  
HETATM   23  O   UNL     1     -12.890  10.483  71.971  1.00  0.00    -0.429 OA 
HETATM   24  C   UNL     1     -14.359   8.577  72.038  1.00  0.00    -0.537 C  
ENDBRANCH  21  22
ENDBRANCH  20  21
ENDBRANCH  13  15
ENDBRANCH  12  13
ENDBRANCH   9  12
ENDBRANCH   3   6
TORSDOF 6
ENDMDL
MODEL      185
REMARK 921   NORMALIZED FREE ENERGY PREDICTED BY IDOCK:   -3.66 KCAL/MOL
REMARK 922        TOTAL FREE ENERGY PREDICTED BY IDOCK:   -6.41 KCAL/MOL
REMARK 923 INTER-LIGAND FREE ENERGY PREDICTED BY IDOCK:   -5.09 KCAL/MOL
REMARK 924 INTRA-LIGAND FREE ENERGY PREDICTED BY IDOCK:   -1.32 KCAL/MOL
REMARK 927      BINDING AFFINITY PREDICTED BY RF-SCORE:    0.00 PKD
ROOT
HETATM    1  C   UNL     1     -10.964   7.314  73.295  1.00  0.00    -0.355 C  
HETATM    2  C   UNL     1     -11.456   7.888  71.991  1.00  0.00    -0.300 C  
HETATM    3  N   UNL     1     -10.436   8.437  71.230  1.00  0.00    -0.207 N  
HETATM    4  O   UNL     1     -12.646   7.831  71.703  1.00  0.00    -0.314 OA 
HETATM    5  H   UNL     1      -9.496   8.388  71.623  1.00  0.00     0.000 HD 
ENDROOT
BRANCH   3   6
HETATM    6  C   UNL     1     -10.562   9.057  69.964  1.00  0.00    -0.228 A  
HETATM    7  C   UNL     1     -10.478   8.360  68.756  1.00  0.00    -0.202 A  
HETATM    8  C   UNL     1     -10.636   9.014  67.532  1.00  0.00    -0.306 A  
HETATM    9  C   UNL     1     -10.910  10.377  67.498  1.00  0.00    -0.301 A  
HETATM   10  C   UNL     1     -10.788  10.439  69.919  1.00  0.00    -0.353 A  
HETATM   11  C   UNL     1     -10.954  11.100  68.691  1.00  0.00    -0.268 A  
BRANCH   9  12
HETATM   12  O   UNL     1     -11.171  11.105  66.310  1.00  0.00    -0.184 OA 
BRANCH  12  13
HETATM   13  C   UNL     1     -10.200  11.844  65.629  1.00  0.00    -0.245 C  
HETATM   14  O   UNL     1     -10.081  13.059  65.605  1.00  0.00    -0.279 OA 
BRANCH  13  15
HETATM   15  C   UNL     1      -9.256  10.927  64.940  1.00  0.00    -0.230 A  
HETATM   16  C   UNL     1      -9.634  10.282  63.748  1.00  0.00    -0.344 A  
HETATM   17  C   UNL     1      -8.733   9.451  63.075  1.00  0.00    -0.225 A  
HETATM   18  C   UNL     1      -7.447   9.260  63.574  1.00  0.00    -0.101 A  
HETATM   19  C   UNL     1      -7.053   9.902  64.744  1.00  0.00    -0.133 A  
HETATM   20  C   UNL     1      -7.963  10.715  65.438  1.00  0.00    -0.086 A  
BRANCH  20  21
HETATM   21  O   UNL     1      -7.498  11.396  66.581  1.00  0.00    -0.145 OA 
BRANCH  21  22
HETATM   22  C   UNL     1      -7.374  10.643  67.745  1.00  0.00    -0.089 C  
HETATM   23  O   UNL     1      -7.249   9.427  67.816  1.00  0.00    -0.081 OA 
HETATM   24  C   UNL     1      -7.307  11.563  68.928  1.00  0.00    -0.116 C  
ENDBRANCH  21  22
ENDBRANCH  20  21
ENDBRANCH  13  15
ENDBRANCH  12  13
ENDBRANCH   9  12
ENDBRANCH   3   6
TORSDOF 6
ENDMDL
MODEL      186
REMARK 921   NORMALIZED FREE ENERGY PREDICTED BY IDOCK:   -3.65 KCAL/MOL
REMARK 922        TOTAL FREE ENERGY PREDICTED BY IDOCK:   -6.41 KCAL/MOL
REMARK 923 INTER-LIGAND FREE ENERGY PREDICTED BY IDOCK:   -5.12 KCAL/MOL
REMARK 924 INTRA-LIGAND FREE ENERGY PREDICTED BY IDOCK:   -1.29 KCAL/MOL
REMARK 927      BINDING AFFINITY PREDICTED BY RF-SCORE:    0.00 PKD
ROOT
HETATM    1  C   UNL     1     -13.155  11.635  71.757  1.00  0.00    -0.487 C  
HETATM    2  C   UNL     1     -13.063  10.138  71.910  1.00  0.00    -0.466 C  
HETATM    3  N   UNL     1     -11.816   9.642  71.566  1.00  0.00    -0.390 N  
HETATM    4  O   UNL     1     -14.030   9.500  72.308  1.00  0.00    -0.371 OA 
HETATM    5  H   UNL     1     -11.120  10.323  71.262  1.00  0.00     0.000 HD 
ENDROOT
BRANCH   3   6
HETATM    6  C   UNL     1     -11.406   8.288  71.594  1.00  0.00    -0.272 A  
HETATM    7  C   UNL     1     -11.527   7.426  70.501  1.00  0.00    -0.281 A  
HETATM    8  C   UNL     1     -11.082   6.104  70.570  1.00  0.00    -0.405 A  
HETATM    9  C   UNL     1     -10.481   5.628  71.730  1.00  0.00    -0.228 A  
HETATM   10  C   UNL     1     -10.844   7.786  72.777  1.00  0.00    -0.438 A  
HETATM   11  C   UNL     1     -10.391   6.459  72.849  1.00  0.00    -0.229 A  
BRANCH   9  12
HETATM   12  O   UNL     1      -9.923   4.331  71.861  1.00  0.00    -0.174 OA 
BRANCH  12  13
HETATM   13  C   UNL     1      -8.621   4.009  71.472  1.00  0.00    -0.104 C  
HETATM   14  O   UNL     1      -7.661   3.813  72.201  1.00  0.00    -0.059 OA 
BRANCH  13  15
HETATM   15  C   UNL     1      -8.552   3.882  69.993  1.00  0.00    -0.105 A  
HETATM   16  C   UNL     1      -9.253   2.856  69.335  1.00  0.00    -0.212 A  
HETATM   17  C   UNL     1      -9.224   2.759  67.940  1.00  0.00    -0.251 A  
HETATM   18  C   UNL     1      -8.508   3.685  67.187  1.00  0.00    -0.103 A  
HETATM   19  C   UNL     1      -7.821   4.715  67.822  1.00  0.00    -0.086 A  
HETATM   20  C   UNL     1      -7.823   4.800  69.223  1.00  0.00    -0.070 A  
BRANCH  20  21
HETATM   21  O   UNL     1      -7.169   5.897  69.817  1.00  0.00    -0.066 OA 
BRANCH  21  22
HETATM   22  C   UNL     1      -7.789   7.137  69.684  1.00  0.00    -0.118 C  
HETATM   23  O   UNL     1      -8.486   7.505  68.748  1.00  0.00    -0.128 OA 
HETATM   24  C   UNL     1      -7.565   7.942  70.930  1.00  0.00    -0.078 C  
ENDBRANCH  21  22
ENDBRANCH  20  21
ENDBRANCH  13  15
ENDBRANCH  12  13
ENDBRANCH   9  12
ENDBRANCH   3   6
TORSDOF 6
ENDMDL
MODEL      187
REMARK 921   NORMALIZED FREE ENERGY PREDICTED BY IDOCK:   -3.63 KCAL/MOL
REMARK 922        TOTAL FREE ENERGY PREDICTED BY IDOCK:   -6.38 KCAL/MOL
REMARK 923 INTER-LIGAND FREE ENERGY PREDICTED BY IDOCK:   -5.58 KCAL/MOL
REMARK 924 INTRA-LIGAND FREE ENERGY PREDICTED BY IDOCK:   -0.80 KCAL/MOL
REMARK 927      BINDING AFFINITY PREDICTED BY RF-SCORE:    0.00 PKD
ROOT
HETATM    1  C   UNL     1     -11.406   5.016  73.427  1.00  0.00    -0.345 C  
HETATM    2  C   UNL     1     -10.847   5.220  72.042  1.00  0.00    -0.163 C  
HETATM    3  N   UNL     1     -11.309   6.382  71.445  1.00  0.00    -0.289 N  
HETATM    4  O   UNL     1     -10.066   4.404  71.567  1.00  0.00    -0.188 OA 
HETATM    5  H   UNL     1     -11.953   6.953  71.994  1.00  0.00     0.000 HD 
ENDROOT
BRANCH   3   6
HETATM    6  C   UNL     1     -10.982   6.860  70.154  1.00  0.00    -0.281 A  
HETATM    7  C   UNL     1     -10.670   8.195  69.885  1.00  0.00    -0.241 A  
HETATM    8  C   UNL     1     -10.327   8.611  68.597  1.00  0.00    -0.219 A  
HETATM    9  C   UNL     1     -10.263   7.690  67.558  1.00  0.00    -0.227 A  
HETATM   10  C   UNL     1     -10.963   5.946  69.091  1.00  0.00    -0.382 A  
HETATM   11  C   UNL     1     -10.613   6.359  67.795  1.00  0.00    -0.331 A  
BRANCH   9  12
HETATM   12  O   UNL     1      -9.840   8.005  66.242  1.00  0.00    -0.195 OA 
BRANCH  12  13
HETATM   13  C   UNL     1      -8.777   8.866  65.958  1.00  0.00    -0.160 C  
HETATM   14  O   UNL     1      -7.684   8.891  66.501  1.00  0.00    -0.097 OA 
BRANCH  13  15
HETATM   15  C   UNL     1      -9.139   9.762  64.829  1.00  0.00    -0.290 A  
HETATM   16  C   UNL     1      -8.747   9.444  63.516  1.00  0.00    -0.221 A  
HETATM   17  C   UNL     1      -9.122  10.262  62.446  1.00  0.00    -0.311 A  
HETATM   18  C   UNL     1      -9.897  11.397  62.668  1.00  0.00    -0.066 A  
HETATM   19  C   UNL     1     -10.306  11.717  63.960  1.00  0.00    -0.401 A  
HETATM   20  C   UNL     1      -9.908  10.915  65.040  1.00  0.00    -0.281 A  
BRANCH  20  21
HETATM   21  O   UNL     1     -10.400  11.242  66.319  1.00  0.00    -0.232 OA 
BRANCH  21  22
HETATM   22  C   UNL     1      -9.950  12.438  66.872  1.00  0.00    -0.215 C  
HETATM   23  O   UNL     1     -10.616  13.445  67.071  1.00  0.00    -0.262 OA 
HETATM   24  C   UNL     1      -8.520  12.282  67.298  1.00  0.00    -0.181 C  
ENDBRANCH  21  22
ENDBRANCH  20  21
ENDBRANCH  13  15
ENDBRANCH  12  13
ENDBRANCH   9  12
ENDBRANCH   3   6
TORSDOF 6
ENDMDL
MODEL      188
REMARK 921   NORMALIZED FREE ENERGY PREDICTED BY IDOCK:   -3.61 KCAL/MOL
REMARK 922        TOTAL FREE ENERGY PREDICTED BY IDOCK:   -6.35 KCAL/MOL
REMARK 923 INTER-LIGAND FREE ENERGY PREDICTED BY IDOCK:   -6.20 KCAL/MOL
REMARK 924 INTRA-LIGAND FREE ENERGY PREDICTED BY IDOCK:   -0.15 KCAL/MOL
REMARK 927      BINDING AFFINITY PREDICTED BY RF-SCORE:    0.00 PKD
ROOT
HETATM    1  C   UNL     1     -10.753   6.480  73.335  1.00  0.00    -0.295 C  
HETATM    2  C   UNL     1     -11.448   7.312  72.287  1.00  0.00    -0.278 C  
HETATM    3  N   UNL     1     -10.728   8.444  71.939  1.00  0.00    -0.278 N  
HETATM    4  O   UNL     1     -12.529   6.954  71.834  1.00  0.00    -0.336 OA 
HETATM    5  H   UNL     1      -9.835   8.582  72.414  1.00  0.00     0.000 HD 
ENDROOT
BRANCH   3   6
HETATM    6  C   UNL     1     -11.101   9.429  70.995  1.00  0.00    -0.344 A  
HETATM    7  C   UNL     1     -10.650   9.436  69.673  1.00  0.00    -0.239 A  
HETATM    8  C   UNL     1     -11.070  10.415  68.771  1.00  0.00    -0.298 A  
HETATM    9  C   UNL     1     -11.973  11.394  69.171  1.00  0.00    -0.328 A  
HETATM   10  C   UNL     1     -11.973  10.448  71.404  1.00  0.00    -0.379 A  
HETATM   11  C   UNL     1     -12.402  11.432  70.499  1.00  0.00    -0.439 A  
BRANCH   9  12
HETATM   12  O   UNL     1     -12.520  12.373  68.304  1.00  0.00    -0.003 OA 
BRANCH  12  13
HETATM   13  C   UNL     1     -11.949  12.722  67.077  1.00  0.00    -0.295 C  
HETATM   14  O   UNL     1     -12.293  12.342  65.969  1.00  0.00    -0.627 OA 
BRANCH  13  15
HETATM   15  C   UNL     1     -10.848  13.696  67.291  1.00  0.00    -0.292 A  
HETATM   16  C   UNL     1     -10.995  14.743  68.219  1.00  0.00    -0.264 A  
HETATM   17  C   UNL     1      -9.945  15.637  68.453  1.00  0.00    -0.210 A  
HETATM   18  C   UNL     1      -8.737  15.493  67.777  1.00  0.00    -0.170 A  
HETATM   19  C   UNL     1      -8.569  14.452  66.867  1.00  0.00    -0.191 A  
HETATM   20  C   UNL     1      -9.630  13.571  66.607  1.00  0.00    -0.278 A  
BRANCH  20  21
HETATM   21  O   UNL     1      -9.392  12.495  65.728  1.00  0.00    -0.129 OA 
BRANCH  21  22
HETATM   22  C   UNL     1      -9.033  11.283  66.312  1.00  0.00    -0.197 C  
HETATM   23  O   UNL     1      -9.595  10.207  66.159  1.00  0.00    -0.180 OA 
HETATM   24  C   UNL     1      -7.766  11.463  67.094  1.00  0.00    -0.152 C  
ENDBRANCH  21  22
ENDBRANCH  20  21
ENDBRANCH  13  15
ENDBRANCH  12  13
ENDBRANCH   9  12
ENDBRANCH   3   6
TORSDOF 6
ENDMDL
MODEL      189
REMARK 921   NORMALIZED FREE ENERGY PREDICTED BY IDOCK:   -3.59 KCAL/MOL
REMARK 922        TOTAL FREE ENERGY PREDICTED BY IDOCK:   -6.33 KCAL/MOL
REMARK 923 INTER-LIGAND FREE ENERGY PREDICTED BY IDOCK:   -5.44 KCAL/MOL
REMARK 924 INTRA-LIGAND FREE ENERGY PREDICTED BY IDOCK:   -0.89 KCAL/MOL
REMARK 927      BINDING AFFINITY PREDICTED BY RF-SCORE:    0.00 PKD
ROOT
HETATM    1  C   UNL     1     -10.461  20.195  66.371  1.00  0.00    -0.443 C  
HETATM    2  C   UNL     1     -10.170  18.715  66.395  1.00  0.00    -0.425 C  
HETATM    3  N   UNL     1      -9.367  18.346  67.462  1.00  0.00    -0.264 N  
HETATM    4  O   UNL     1     -10.637  17.982  65.531  1.00  0.00    -0.639 OA 
HETATM    5  H   UNL     1      -9.075  19.092  68.094  1.00  0.00     0.000 HD 
ENDROOT
BRANCH   3   6
HETATM    6  C   UNL     1      -8.910  17.042  67.767  1.00  0.00    -0.223 A  
HETATM    7  C   UNL     1      -9.372  16.301  68.857  1.00  0.00    -0.248 A  
HETATM    8  C   UNL     1      -8.909  15.007  69.100  1.00  0.00    -0.184 A  
HETATM    9  C   UNL     1      -7.991  14.419  68.236  1.00  0.00    -0.140 A  
HETATM   10  C   UNL     1      -7.948  16.461  66.929  1.00  0.00    -0.269 A  
HETATM   11  C   UNL     1      -7.483  15.157  67.166  1.00  0.00    -0.176 A  
BRANCH   9  12
HETATM   12  O   UNL     1      -7.533  13.082  68.354  1.00  0.00    -0.114 OA 
BRANCH  12  13
HETATM   13  C   UNL     1      -8.106  12.007  67.670  1.00  0.00    -0.155 C  
HETATM   14  O   UNL     1      -7.814  11.602  66.556  1.00  0.00    -0.123 OA 
BRANCH  13  15
HETATM   15  C   UNL     1      -9.131  11.353  68.524  1.00  0.00    -0.169 A  
HETATM   16  C   UNL     1     -10.431  11.886  68.607  1.00  0.00    -0.231 A  
HETATM   17  C   UNL     1     -11.410  11.250  69.376  1.00  0.00    -0.360 A  
HETATM   18  C   UNL     1     -11.111  10.074  70.060  1.00  0.00    -0.350 A  
HETATM   19  C   UNL     1      -9.835   9.526  69.975  1.00  0.00    -0.269 A  
HETATM   20  C   UNL     1      -8.841  10.176  69.228  1.00  0.00    -0.183 A  
BRANCH  20  21
HETATM   21  O   UNL     1      -7.584   9.549  69.118  1.00  0.00    -0.071 OA 
BRANCH  21  22
HETATM   22  C   UNL     1      -6.565  10.055  69.922  1.00  0.00    -0.089 C  
HETATM   23  O   UNL     1      -6.688  10.517  71.048  1.00  0.00    -0.280 OA 
HETATM   24  C   UNL     1      -5.245   9.851  69.239  1.00  0.00    -0.035 C  
ENDBRANCH  21  22
ENDBRANCH  20  21
ENDBRANCH  13  15
ENDBRANCH  12  13
ENDBRANCH   9  12
ENDBRANCH   3   6
TORSDOF 6
ENDMDL
MODEL      190
REMARK 921   NORMALIZED FREE ENERGY PREDICTED BY IDOCK:   -3.59 KCAL/MOL
REMARK 922        TOTAL FREE ENERGY PREDICTED BY IDOCK:   -6.32 KCAL/MOL
REMARK 923 INTER-LIGAND FREE ENERGY PREDICTED BY IDOCK:   -5.15 KCAL/MOL
REMARK 924 INTRA-LIGAND FREE ENERGY PREDICTED BY IDOCK:   -1.17 KCAL/MOL
REMARK 927      BINDING AFFINITY PREDICTED BY RF-SCORE:    0.00 PKD
ROOT
HETATM    1  C   UNL     1     -11.418   1.751  73.677  1.00  0.00    -0.307 C  
HETATM    2  C   UNL     1     -10.773   3.049  73.263  1.00  0.00    -0.182 C  
HETATM    3  N   UNL     1     -11.621   4.136  73.403  1.00  0.00    -0.164 N  
HETATM    4  O   UNL     1      -9.615   3.061  72.863  1.00  0.00    -0.097 OA 
HETATM    5  H   UNL     1     -12.556   3.943  73.762  1.00  0.00     0.000 HD 
ENDROOT
BRANCH   3   6
HETATM    6  C   UNL     1     -11.326   5.486  73.099  1.00  0.00    -0.225 A  
HETATM    7  C   UNL     1     -10.294   6.203  73.710  1.00  0.00    -0.288 A  
HETATM    8  C   UNL     1     -10.025   7.526  73.356  1.00  0.00    -0.378 A  
HETATM    9  C   UNL     1     -10.770   8.149  72.361  1.00  0.00    -0.334 A  
HETATM   10  C   UNL     1     -12.105   6.138  72.132  1.00  0.00    -0.263 A  
HETATM   11  C   UNL     1     -11.835   7.466  71.769  1.00  0.00    -0.327 A  
BRANCH   9  12
HETATM   12  O   UNL     1     -10.513   9.457  71.877  1.00  0.00    -0.217 OA 
BRANCH  12  13
HETATM   13  C   UNL     1     -10.454   9.779  70.518  1.00  0.00    -0.301 C  
HETATM   14  O   UNL     1     -11.248  10.459  69.887  1.00  0.00    -0.263 OA 
BRANCH  13  15
HETATM   15  C   UNL     1      -9.225   9.203  69.914  1.00  0.00    -0.194 A  
HETATM   16  C   UNL     1      -7.955   9.610  70.363  1.00  0.00    -0.191 A  
HETATM   17  C   UNL     1      -6.797   9.039  69.826  1.00  0.00    -0.050 A  
HETATM   18  C   UNL     1      -6.889   8.053  68.847  1.00  0.00    -0.061 A  
HETATM   19  C   UNL     1      -8.138   7.629  68.403  1.00  0.00    -0.124 A  
HETATM   20  C   UNL     1      -9.303   8.219  68.918  1.00  0.00    -0.147 A  
BRANCH  20  21
HETATM   21  O   UNL     1     -10.544   7.710  68.487  1.00  0.00    -0.192 OA 
BRANCH  21  22
HETATM   22  C   UNL     1     -10.628   6.330  68.326  1.00  0.00    -0.258 C  
HETATM   23  O   UNL     1     -10.512   5.486  69.204  1.00  0.00    -0.238 OA 
HETATM   24  C   UNL     1     -10.996   6.016  66.906  1.00  0.00    -0.350 C  
ENDBRANCH  21  22
ENDBRANCH  20  21
ENDBRANCH  13  15
ENDBRANCH  12  13
ENDBRANCH   9  12
ENDBRANCH   3   6
TORSDOF 6
ENDMDL
MODEL      191
REMARK 921   NORMALIZED FREE ENERGY PREDICTED BY IDOCK:   -3.56 KCAL/MOL
REMARK 922        TOTAL FREE ENERGY PREDICTED BY IDOCK:   -6.28 KCAL/MOL
REMARK 923 INTER-LIGAND FREE ENERGY PREDICTED BY IDOCK:   -5.31 KCAL/MOL
REMARK 924 INTRA-LIGAND FREE ENERGY PREDICTED BY IDOCK:   -0.97 KCAL/MOL
REMARK 927      BINDING AFFINITY PREDICTED BY RF-SCORE:    0.00 PKD
ROOT
HETATM    1  C   UNL     1      -7.391  14.940  68.714  1.00  0.00    -0.127 C  
HETATM    2  C   UNL     1      -7.396  13.534  68.168  1.00  0.00    -0.121 C  
HETATM    3  N   UNL     1      -8.488  12.798  68.599  1.00  0.00    -0.351 N  
HETATM    4  O   UNL     1      -6.497  13.160  67.423  1.00  0.00    -0.180 OA 
HETATM    5  H   UNL     1      -9.147  13.275  69.214  1.00  0.00     0.000 HD 
ENDROOT
BRANCH   3   6
HETATM    6  C   UNL     1      -8.784  11.453  68.274  1.00  0.00    -0.160 A  
HETATM    7  C   UNL     1      -9.642  11.084  67.235  1.00  0.00    -0.183 A  
HETATM    8  C   UNL     1      -9.881   9.742  66.936  1.00  0.00    -0.256 A  
HETATM    9  C   UNL     1      -9.242   8.740  67.658  1.00  0.00    -0.134 A  
HETATM   10  C   UNL     1      -8.182  10.437  69.029  1.00  0.00    -0.141 A  
HETATM   11  C   UNL     1      -8.415   9.085  68.730  1.00  0.00    -0.131 A  
BRANCH   9  12
HETATM   12  O   UNL     1      -9.356   7.357  67.370  1.00  0.00    -0.129 OA 
BRANCH  12  13
HETATM   13  C   UNL     1     -10.506   6.606  67.632  1.00  0.00    -0.227 C  
HETATM   14  O   UNL     1     -11.523   6.559  66.959  1.00  0.00    -0.223 OA 
BRANCH  13  15
HETATM   15  C   UNL     1     -10.313   5.798  68.863  1.00  0.00    -0.295 A  
HETATM   16  C   UNL     1      -9.647   4.560  68.805  1.00  0.00    -0.227 A  
HETATM   17  C   UNL     1      -9.427   3.817  69.968  1.00  0.00    -0.264 A  
HETATM   18  C   UNL     1      -9.857   4.301  71.201  1.00  0.00    -0.250 A  
HETATM   19  C   UNL     1     -10.503   5.531  71.279  1.00  0.00    -0.306 A  
HETATM   20  C   UNL     1     -10.752   6.267  70.110  1.00  0.00    -0.286 A  
BRANCH  20  21
HETATM   21  O   UNL     1     -11.350   7.536  70.246  1.00  0.00    -0.268 OA 
BRANCH  21  22
HETATM   22  C   UNL     1     -12.365   7.646  71.192  1.00  0.00    -0.267 C  
HETATM   23  O   UNL     1     -13.391   6.979  71.240  1.00  0.00    -0.346 OA 
HETATM   24  C   UNL     1     -11.969   8.649  72.233  1.00  0.00    -0.438 C  
ENDBRANCH  21  22
ENDBRANCH  20  21
ENDBRANCH  13  15
ENDBRANCH  12  13
ENDBRANCH   9  12
ENDBRANCH   3   6
TORSDOF 6
ENDMDL
MODEL      192
REMARK 921   NORMALIZED FREE ENERGY PREDICTED BY IDOCK:   -3.55 KCAL/MOL
REMARK 922        TOTAL FREE ENERGY PREDICTED BY IDOCK:   -6.27 KCAL/MOL
REMARK 923 INTER-LIGAND FREE ENERGY PREDICTED BY IDOCK:   -5.44 KCAL/MOL
REMARK 924 INTRA-LIGAND FREE ENERGY PREDICTED BY IDOCK:   -0.83 KCAL/MOL
REMARK 927      BINDING AFFINITY PREDICTED BY RF-SCORE:    0.00 PKD
ROOT
HETATM    1  C   UNL     1     -12.478  14.939  64.007  1.00  0.00     0.026 C  
HETATM    2  C   UNL     1     -12.289  13.731  64.889  1.00  0.00    -0.405 C  
HETATM    3  N   UNL     1     -11.225  13.873  65.767  1.00  0.00    -0.300 N  
HETATM    4  O   UNL     1     -13.041  12.769  64.786  1.00  0.00    -0.813 OA 
HETATM    5  H   UNL     1     -10.709  14.751  65.721  1.00  0.00     0.000 HD 
ENDROOT
BRANCH   3   6
HETATM    6  C   UNL     1     -10.781  12.925  66.719  1.00  0.00    -0.261 A  
HETATM    7  C   UNL     1      -9.696  12.072  66.506  1.00  0.00    -0.230 A  
HETATM    8  C   UNL     1      -9.280  11.172  67.489  1.00  0.00    -0.155 A  
HETATM    9  C   UNL     1      -9.929  11.130  68.718  1.00  0.00    -0.198 A  
HETATM   10  C   UNL     1     -11.461  12.841  67.942  1.00  0.00    -0.365 A  
HETATM   11  C   UNL     1     -11.043  11.942  68.936  1.00  0.00    -0.299 A  
BRANCH   9  12
HETATM   12  O   UNL     1      -9.522  10.313  69.803  1.00  0.00    -0.191 OA 
BRANCH  12  13
HETATM   13  C   UNL     1      -9.562   8.916  69.775  1.00  0.00    -0.171 C  
HETATM   14  O   UNL     1      -9.414   8.194  68.801  1.00  0.00    -0.147 OA 
BRANCH  13  15
HETATM   15  C   UNL     1      -9.771   8.388  71.148  1.00  0.00    -0.236 A  
HETATM   16  C   UNL     1     -11.072   8.240  71.662  1.00  0.00    -0.326 A  
HETATM   17  C   UNL     1     -11.273   7.705  72.938  1.00  0.00    -0.426 A  
HETATM   18  C   UNL     1     -10.187   7.301  73.710  1.00  0.00    -0.370 A  
HETATM   19  C   UNL     1      -8.894   7.426  73.208  1.00  0.00    -0.201 A  
HETATM   20  C   UNL     1      -8.685   7.990  71.940  1.00  0.00    -0.138 A  
BRANCH  20  21
HETATM   21  O   UNL     1      -7.365   8.035  71.450  1.00  0.00    -0.062 OA 
BRANCH  21  22
HETATM   22  C   UNL     1      -6.661   6.834  71.448  1.00  0.00    -0.061 C  
HETATM   23  O   UNL     1      -5.788   6.501  72.239  1.00  0.00    -0.037 OA 
HETATM   24  C   UNL     1      -7.210   5.937  70.379  1.00  0.00    -0.072 C  
ENDBRANCH  21  22
ENDBRANCH  20  21
ENDBRANCH  13  15
ENDBRANCH  12  13
ENDBRANCH   9  12
ENDBRANCH   3   6
TORSDOF 6
ENDMDL
MODEL      193
REMARK 921   NORMALIZED FREE ENERGY PREDICTED BY IDOCK:   -3.53 KCAL/MOL
REMARK 922        TOTAL FREE ENERGY PREDICTED BY IDOCK:   -6.25 KCAL/MOL
REMARK 923 INTER-LIGAND FREE ENERGY PREDICTED BY IDOCK:   -4.87 KCAL/MOL
REMARK 924 INTRA-LIGAND FREE ENERGY PREDICTED BY IDOCK:   -1.38 KCAL/MOL
REMARK 927      BINDING AFFINITY PREDICTED BY RF-SCORE:    0.00 PKD
ROOT
HETATM    1  C   UNL     1      -9.160   9.726  63.506  1.00  0.00    -0.263 C  
HETATM    2  C   UNL     1      -9.684  10.024  64.888  1.00  0.00    -0.307 C  
HETATM    3  N   UNL     1      -9.192   9.151  65.846  1.00  0.00    -0.210 N  
HETATM    4  O   UNL     1     -10.453  10.962  65.066  1.00  0.00    -0.295 OA 
HETATM    5  H   UNL     1      -8.549   8.430  65.519  1.00  0.00     0.000 HD 
ENDROOT
BRANCH   3   6
HETATM    6  C   UNL     1      -9.489   9.156  67.229  1.00  0.00    -0.148 A  
HETATM    7  C   UNL     1     -10.512   8.393  67.798  1.00  0.00    -0.284 A  
HETATM    8  C   UNL     1     -10.748   8.412  69.174  1.00  0.00    -0.123 A  
HETATM    9  C   UNL     1      -9.944   9.178  70.011  1.00  0.00    -0.199 A  
HETATM   10  C   UNL     1      -8.715   9.964  68.074  1.00  0.00    -0.125 A  
HETATM   11  C   UNL     1      -8.945   9.983  69.459  1.00  0.00    -0.220 A  
BRANCH   9  12
HETATM   12  O   UNL     1     -10.055   9.191  71.424  1.00  0.00    -0.305 OA 
BRANCH  12  13
HETATM   13  C   UNL     1      -9.208   8.470  72.271  1.00  0.00    -0.272 C  
HETATM   14  O   UNL     1      -8.243   8.897  72.886  1.00  0.00    -0.382 OA 
BRANCH  13  15
HETATM   15  C   UNL     1      -9.675   7.064  72.375  1.00  0.00    -0.171 A  
HETATM   16  C   UNL     1     -10.907   6.767  72.985  1.00  0.00    -0.314 A  
HETATM   17  C   UNL     1     -11.369   5.449  73.047  1.00  0.00    -0.355 A  
HETATM   18  C   UNL     1     -10.617   4.415  72.495  1.00  0.00    -0.203 A  
HETATM   19  C   UNL     1      -9.402   4.694  71.874  1.00  0.00    -0.185 A  
HETATM   20  C   UNL     1      -8.922   6.012  71.835  1.00  0.00    -0.138 A  
BRANCH  20  21
HETATM   21  O   UNL     1      -7.721   6.253  71.138  1.00  0.00    -0.098 OA 
BRANCH  21  22
HETATM   22  C   UNL     1      -7.795   6.241  69.748  1.00  0.00    -0.110 C  
HETATM   23  O   UNL     1      -8.684   5.740  69.071  1.00  0.00    -0.112 OA 
HETATM   24  C   UNL     1      -6.660   7.041  69.182  1.00  0.00    -0.048 C  
ENDBRANCH  21  22
ENDBRANCH  20  21
ENDBRANCH  13  15
ENDBRANCH  12  13
ENDBRANCH   9  12
ENDBRANCH   3   6
TORSDOF 6
ENDMDL
MODEL      194
REMARK 921   NORMALIZED FREE ENERGY PREDICTED BY IDOCK:   -3.53 KCAL/MOL
REMARK 922        TOTAL FREE ENERGY PREDICTED BY IDOCK:   -6.24 KCAL/MOL
REMARK 923 INTER-LIGAND FREE ENERGY PREDICTED BY IDOCK:   -5.98 KCAL/MOL
REMARK 924 INTRA-LIGAND FREE ENERGY PREDICTED BY IDOCK:   -0.27 KCAL/MOL
REMARK 927      BINDING AFFINITY PREDICTED BY RF-SCORE:    0.00 PKD
ROOT
HETATM    1  C   UNL     1      -9.513   3.196  69.237  1.00  0.00    -0.179 C  
HETATM    2  C   UNL     1      -9.120   4.649  69.151  1.00  0.00    -0.117 C  
HETATM    3  N   UNL     1     -10.212   5.490  69.006  1.00  0.00    -0.211 N  
HETATM    4  O   UNL     1      -7.940   4.972  69.218  1.00  0.00    -0.078 OA 
HETATM    5  H   UNL     1     -11.130   5.046  68.977  1.00  0.00     0.000 HD 
ENDROOT
BRANCH   3   6
HETATM    6  C   UNL     1     -10.186   6.900  68.892  1.00  0.00    -0.177 A  
HETATM    7  C   UNL     1      -9.787   7.570  67.734  1.00  0.00    -0.191 A  
HETATM    8  C   UNL     1      -9.805   8.964  67.662  1.00  0.00    -0.229 A  
HETATM    9  C   UNL     1     -10.250   9.714  68.745  1.00  0.00    -0.196 A  
HETATM   10  C   UNL     1     -10.588   7.665  69.997  1.00  0.00    -0.240 A  
HETATM   11  C   UNL     1     -10.613   9.067  69.928  1.00  0.00    -0.240 A  
BRANCH   9  12
HETATM   12  O   UNL     1     -10.385  11.126  68.732  1.00  0.00    -0.191 OA 
BRANCH  12  13
HETATM   13  C   UNL     1     -11.504  11.789  68.221  1.00  0.00    -0.307 C  
HETATM   14  O   UNL     1     -12.257  11.397  67.344  1.00  0.00    -0.321 OA 
BRANCH  13  15
HETATM   15  C   UNL     1     -11.703  13.073  68.941  1.00  0.00    -0.371 A  
HETATM   16  C   UNL     1     -11.741  14.288  68.232  1.00  0.00    -0.377 A  
HETATM   17  C   UNL     1     -11.970  15.493  68.902  1.00  0.00    -0.306 A  
HETATM   18  C   UNL     1     -12.173  15.504  70.279  1.00  0.00    -0.432 A  
HETATM   19  C   UNL     1     -12.154  14.309  70.994  1.00  0.00    -0.416 A  
HETATM   20  C   UNL     1     -11.895  13.100  70.330  1.00  0.00    -0.224 A  
BRANCH  20  21
HETATM   21  O   UNL     1     -11.951  11.910  71.083  1.00  0.00    -0.051 OA 
BRANCH  21  22
HETATM   22  C   UNL     1     -13.142  11.658  71.760  1.00  0.00    -0.382 C  
HETATM   23  O   UNL     1     -13.947  12.493  72.151  1.00  0.00    -0.234 OA 
HETATM   24  C   UNL     1     -13.358  10.177  71.852  1.00  0.00    -0.505 C  
ENDBRANCH  21  22
ENDBRANCH  20  21
ENDBRANCH  13  15
ENDBRANCH  12  13
ENDBRANCH   9  12
ENDBRANCH   3   6
TORSDOF 6
ENDMDL
MODEL      195
REMARK 921   NORMALIZED FREE ENERGY PREDICTED BY IDOCK:   -3.52 KCAL/MOL
REMARK 922        TOTAL FREE ENERGY PREDICTED BY IDOCK:   -6.24 KCAL/MOL
REMARK 923 INTER-LIGAND FREE ENERGY PREDICTED BY IDOCK:   -6.21 KCAL/MOL
REMARK 924 INTRA-LIGAND FREE ENERGY PREDICTED BY IDOCK:   -0.02 KCAL/MOL
REMARK 927      BINDING AFFINITY PREDICTED BY RF-SCORE:    0.00 PKD
ROOT
HETATM    1  C   UNL     1     -14.173   8.896  72.379  1.00  0.00    -0.452 C  
HETATM    2  C   UNL     1     -13.276   9.945  71.772  1.00  0.00    -0.434 C  
HETATM    3  N   UNL     1     -12.628   9.498  70.631  1.00  0.00    -0.507 N  
HETATM    4  O   UNL     1     -13.188  11.053  72.288  1.00  0.00    -0.405 OA 
HETATM    5  H   UNL     1     -12.827   8.541  70.338  1.00  0.00     0.000 HD 
ENDROOT
BRANCH   3   6
HETATM    6  C   UNL     1     -11.719  10.230  69.831  1.00  0.00    -0.225 A  
HETATM    7  C   UNL     1     -12.106  11.277  68.991  1.00  0.00    -0.325 A  
HETATM    8  C   UNL     1     -11.166  11.987  68.242  1.00  0.00    -0.315 A  
HETATM    9  C   UNL     1      -9.814  11.678  68.341  1.00  0.00    -0.202 A  
HETATM   10  C   UNL     1     -10.359   9.892  69.889  1.00  0.00    -0.298 A  
HETATM   11  C   UNL     1      -9.410  10.607  69.141  1.00  0.00    -0.174 A  
BRANCH   9  12
HETATM   12  O   UNL     1      -8.784  12.400  67.687  1.00  0.00    -0.159 OA 
BRANCH  12  13
HETATM   13  C   UNL     1      -9.020  13.338  66.678  1.00  0.00    -0.126 C  
HETATM   14  O   UNL     1      -8.846  13.190  65.479  1.00  0.00     0.742 OA 
BRANCH  13  15
HETATM   15  C   UNL     1      -9.581  14.582  67.265  1.00  0.00    -0.226 A  
HETATM   16  C   UNL     1      -9.233  14.970  68.572  1.00  0.00    -0.192 A  
HETATM   17  C   UNL     1      -9.726  16.162  69.112  1.00  0.00    -0.248 A  
HETATM   18  C   UNL     1     -10.559  16.983  68.357  1.00  0.00    -0.375 A  
HETATM   19  C   UNL     1     -10.900  16.621  67.057  1.00  0.00    -0.091 A  
HETATM   20  C   UNL     1     -10.431  15.412  66.521  1.00  0.00    -0.294 A  
BRANCH  20  21
HETATM   21  O   UNL     1     -10.748  15.120  65.179  1.00  0.00    -0.362 OA 
BRANCH  21  22
HETATM   22  C   UNL     1     -12.083  14.833  64.905  1.00  0.00    -0.333 C  
HETATM   23  O   UNL     1     -12.694  15.120  63.883  1.00  0.00    -0.759 OA 
HETATM   24  C   UNL     1     -12.655  14.011  66.020  1.00  0.00    -0.452 C  
ENDBRANCH  21  22
ENDBRANCH  20  21
ENDBRANCH  13  15
ENDBRANCH  12  13
ENDBRANCH   9  12
ENDBRANCH   3   6
TORSDOF 6
ENDMDL
MODEL      196
REMARK 921   NORMALIZED FREE ENERGY PREDICTED BY IDOCK:   -3.52 KCAL/MOL
REMARK 922        TOTAL FREE ENERGY PREDICTED BY IDOCK:   -6.23 KCAL/MOL
REMARK 923 INTER-LIGAND FREE ENERGY PREDICTED BY IDOCK:   -5.02 KCAL/MOL
REMARK 924 INTRA-LIGAND FREE ENERGY PREDICTED BY IDOCK:   -1.20 KCAL/MOL
REMARK 927      BINDING AFFINITY PREDICTED BY RF-SCORE:    0.00 PKD
ROOT
HETATM    1  C   UNL     1     -12.537  12.401  64.213  1.00  0.00    -0.494 C  
HETATM    2  C   UNL     1     -12.001  13.676  64.816  1.00  0.00    -0.396 C  
HETATM    3  N   UNL     1     -11.416  13.476  66.056  1.00  0.00    -0.317 N  
HETATM    4  O   UNL     1     -12.104  14.735  64.207  1.00  0.00    -0.474 OA 
HETATM    5  H   UNL     1     -11.411  12.519  66.410  1.00  0.00     0.000 HD 
ENDROOT
BRANCH   3   6
HETATM    6  C   UNL     1     -10.826  14.460  66.883  1.00  0.00    -0.301 A  
HETATM    7  C   UNL     1      -9.500  14.880  66.752  1.00  0.00    -0.269 A  
HETATM    8  C   UNL     1      -8.972  15.876  67.576  1.00  0.00    -0.201 A  
HETATM    9  C   UNL     1      -9.773  16.490  68.532  1.00  0.00    -0.239 A  
HETATM   10  C   UNL     1     -11.613  15.049  67.883  1.00  0.00    -0.350 A  
HETATM   11  C   UNL     1     -11.088  16.055  68.711  1.00  0.00    -0.338 A  
BRANCH   9  12
HETATM   12  O   UNL     1      -9.348  17.566  69.352  1.00  0.00     0.057 OA 
BRANCH  12  13
HETATM   13  C   UNL     1      -9.884  18.854  69.272  1.00  0.00    -0.129 C  
HETATM   14  O   UNL     1     -10.282  19.545  70.197  1.00  0.00     0.249 OA 
BRANCH  13  15
HETATM   15  C   UNL     1      -9.868  19.323  67.862  1.00  0.00    -0.441 A  
HETATM   16  C   UNL     1     -11.033  19.254  67.077  1.00  0.00    -0.413 A  
HETATM   17  C   UNL     1     -11.032  19.732  65.763  1.00  0.00    -0.252 A  
HETATM   18  C   UNL     1      -9.878  20.292  65.221  1.00  0.00     0.472 A  
HETATM   19  C   UNL     1      -8.721  20.382  65.990  1.00  0.00     0.012 A  
HETATM   20  C   UNL     1      -8.709  19.877  67.299  1.00  0.00    -0.333 A  
BRANCH  20  21
HETATM   21  O   UNL     1      -7.536  20.050  68.061  1.00  0.00    -0.298 OA 
BRANCH  21  22
HETATM   22  C   UNL     1      -6.402  19.374  67.617  1.00  0.00    -0.207 C  
HETATM   23  O   UNL     1      -6.245  18.160  67.582  1.00  0.00    -0.167 OA 
HETATM   24  C   UNL     1      -5.414  20.363  67.074  1.00  0.00    -0.195 C  
ENDBRANCH  21  22
ENDBRANCH  20  21
ENDBRANCH  13  15
ENDBRANCH  12  13
ENDBRANCH   9  12
ENDBRANCH   3   6
TORSDOF 6
ENDMDL
MODEL      197
REMARK 921   NORMALIZED FREE ENERGY PREDICTED BY IDOCK:   -3.52 KCAL/MOL
REMARK 922        TOTAL FREE ENERGY PREDICTED BY IDOCK:   -6.23 KCAL/MOL
REMARK 923 INTER-LIGAND FREE ENERGY PREDICTED BY IDOCK:   -5.21 KCAL/MOL
REMARK 924 INTRA-LIGAND FREE ENERGY PREDICTED BY IDOCK:   -1.02 KCAL/MOL
REMARK 927      BINDING AFFINITY PREDICTED BY RF-SCORE:    0.00 PKD
ROOT
HETATM    1  C   UNL     1      -5.549   7.679  68.688  1.00  0.00    -0.027 C  
HETATM    2  C   UNL     1      -6.468   8.852  68.460  1.00  0.00    -0.055 C  
HETATM    3  N   UNL     1      -7.805   8.490  68.452  1.00  0.00    -0.104 N  
HETATM    4  O   UNL     1      -6.004   9.977  68.314  1.00  0.00    -0.042 OA 
HETATM    5  H   UNL     1      -8.012   7.502  68.600  1.00  0.00     0.000 HD 
ENDROOT
BRANCH   3   6
HETATM    6  C   UNL     1      -8.914   9.347  68.260  1.00  0.00    -0.128 A  
HETATM    7  C   UNL     1      -9.092  10.542  68.961  1.00  0.00    -0.188 A  
HETATM    8  C   UNL     1     -10.190  11.368  68.716  1.00  0.00    -0.209 A  
HETATM    9  C   UNL     1     -11.120  11.023  67.741  1.00  0.00    -0.295 A  
HETATM   10  C   UNL     1      -9.883   8.982  67.314  1.00  0.00    -0.252 A  
HETATM   11  C   UNL     1     -10.986   9.812  67.060  1.00  0.00    -0.059 A  
BRANCH   9  12
HETATM   12  O   UNL     1     -12.216  11.840  67.364  1.00  0.00    -0.501 OA 
BRANCH  12  13
HETATM   13  C   UNL     1     -12.248  12.594  66.188  1.00  0.00    -0.209 C  
HETATM   14  O   UNL     1     -12.884  12.351  65.174  1.00  0.00    -0.609 OA 
BRANCH  13  15
HETATM   15  C   UNL     1     -11.410  13.811  66.344  1.00  0.00    -0.327 A  
HETATM   16  C   UNL     1     -11.589  14.660  67.451  1.00  0.00    -0.408 A  
HETATM   17  C   UNL     1     -10.774  15.783  67.623  1.00  0.00    -0.310 A  
HETATM   18  C   UNL     1      -9.768  16.067  66.703  1.00  0.00    -0.261 A  
HETATM   19  C   UNL     1      -9.568  15.228  65.611  1.00  0.00    -0.313 A  
HETATM   20  C   UNL     1     -10.402  14.116  65.419  1.00  0.00    -0.365 A  
BRANCH  20  21
HETATM   21  O   UNL     1     -10.119  13.261  64.335  1.00  0.00    -0.340 OA 
BRANCH  21  22
HETATM   22  C   UNL     1      -9.472  12.066  64.640  1.00  0.00     0.129 C  
HETATM   23  O   UNL     1      -8.714  11.868  65.580  1.00  0.00     0.078 OA 
HETATM   24  C   UNL     1      -9.927  10.998  63.691  1.00  0.00    -0.415 C  
ENDBRANCH  21  22
ENDBRANCH  20  21
ENDBRANCH  13  15
ENDBRANCH  12  13
ENDBRANCH   9  12
ENDBRANCH   3   6
TORSDOF 6
ENDMDL
MODEL      198
REMARK 921   NORMALIZED FREE ENERGY PREDICTED BY IDOCK:   -3.52 KCAL/MOL
REMARK 922        TOTAL FREE ENERGY PREDICTED BY IDOCK:   -6.23 KCAL/MOL
REMARK 923 INTER-LIGAND FREE ENERGY PREDICTED BY IDOCK:   -5.28 KCAL/MOL
REMARK 924 INTRA-LIGAND FREE ENERGY PREDICTED BY IDOCK:   -0.94 KCAL/MOL
REMARK 927      BINDING AFFINITY PREDICTED BY RF-SCORE:    0.00 PKD
ROOT
HETATM    1  C   UNL     1     -10.659  19.530  66.927  1.00  0.00    -0.602 C  
HETATM    2  C   UNL     1     -10.488  18.127  66.400  1.00  0.00    -0.350 C  
HETATM    3  N   UNL     1     -10.174  17.217  67.397  1.00  0.00    -0.312 N  
HETATM    4  O   UNL     1     -10.636  17.896  65.206  1.00  0.00    -0.637 OA 
HETATM    5  H   UNL     1     -10.099  17.585  68.345  1.00  0.00     0.000 HD 
ENDROOT
BRANCH   3   6
HETATM    6  C   UNL     1      -9.947  15.829  67.236  1.00  0.00    -0.238 A  
HETATM    7  C   UNL     1     -10.968  14.906  66.999  1.00  0.00    -0.327 A  
HETATM    8  C   UNL     1     -10.689  13.550  66.820  1.00  0.00    -0.278 A  
HETATM    9  C   UNL     1      -9.375  13.097  66.849  1.00  0.00    -0.246 A  
HETATM   10  C   UNL     1      -8.629  15.357  67.313  1.00  0.00    -0.216 A  
HETATM   11  C   UNL     1      -8.343  13.995  67.128  1.00  0.00    -0.174 A  
BRANCH   9  12
HETATM   12  O   UNL     1      -8.991  11.756  66.591  1.00  0.00    -0.186 OA 
BRANCH  12  13
HETATM   13  C   UNL     1      -8.589  10.864  67.589  1.00  0.00    -0.124 C  
HETATM   14  O   UNL     1      -8.720  10.999  68.795  1.00  0.00    -0.157 OA 
BRANCH  13  15
HETATM   15  C   UNL     1      -7.996   9.649  66.972  1.00  0.00    -0.109 A  
HETATM   16  C   UNL     1      -6.665   9.662  66.515  1.00  0.00    -0.079 A  
HETATM   17  C   UNL     1      -6.091   8.508  65.972  1.00  0.00    -0.048 A  
HETATM   18  C   UNL     1      -6.828   7.330  65.887  1.00  0.00    -0.057 A  
HETATM   19  C   UNL     1      -8.141   7.297  66.349  1.00  0.00    -0.119 A  
HETATM   20  C   UNL     1      -8.731   8.460  66.868  1.00  0.00    -0.130 A  
BRANCH  20  21
HETATM   21  O   UNL     1     -10.039   8.361  67.383  1.00  0.00    -0.195 OA 
BRANCH  21  22
HETATM   22  C   UNL     1     -10.188   7.643  68.566  1.00  0.00    -0.199 C  
HETATM   23  O   UNL     1      -9.730   7.941  69.661  1.00  0.00    -0.171 OA 
HETATM   24  C   UNL     1     -11.101   6.477  68.329  1.00  0.00    -0.332 C  
ENDBRANCH  21  22
ENDBRANCH  20  21
ENDBRANCH  13  15
ENDBRANCH  12  13
ENDBRANCH   9  12
ENDBRANCH   3   6
TORSDOF 6
ENDMDL
MODEL      199
REMARK 921   NORMALIZED FREE ENERGY PREDICTED BY IDOCK:   -3.48 KCAL/MOL
REMARK 922        TOTAL FREE ENERGY PREDICTED BY IDOCK:   -6.18 KCAL/MOL
REMARK 923 INTER-LIGAND FREE ENERGY PREDICTED BY IDOCK:   -5.21 KCAL/MOL
REMARK 924 INTRA-LIGAND FREE ENERGY PREDICTED BY IDOCK:   -0.97 KCAL/MOL
REMARK 927      BINDING AFFINITY PREDICTED BY RF-SCORE:    0.00 PKD
ROOT
HETATM    1  C   UNL     1     -11.985  14.721  64.508  1.00  0.00    -0.451 C  
HETATM    2  C   UNL     1     -11.620  13.275  64.282  1.00  0.00    -0.400 C  
HETATM    3  N   UNL     1     -10.801  12.769  65.278  1.00  0.00    -0.285 N  
HETATM    4  O   UNL     1     -12.049  12.679  63.301  1.00  0.00    -0.521 OA 
HETATM    5  H   UNL     1     -10.547  13.410  66.031  1.00  0.00     0.000 HD 
ENDROOT
BRANCH   3   6
HETATM    6  C   UNL     1     -10.279  11.456  65.361  1.00  0.00    -0.270 A  
HETATM    7  C   UNL     1      -9.328  10.950  64.472  1.00  0.00    -0.256 A  
HETATM    8  C   UNL     1      -8.824   9.656  64.612  1.00  0.00    -0.253 A  
HETATM    9  C   UNL     1      -9.246   8.851  65.665  1.00  0.00    -0.204 A  
HETATM   10  C   UNL     1     -10.736  10.622  66.391  1.00  0.00    -0.198 A  
HETATM   11  C   UNL     1     -10.228   9.321  66.539  1.00  0.00    -0.316 A  
BRANCH   9  12
HETATM   12  O   UNL     1      -8.726   7.560  65.936  1.00  0.00    -0.157 OA 
BRANCH  12  13
HETATM   13  C   UNL     1      -7.995   7.248  67.085  1.00  0.00    -0.110 C  
HETATM   14  O   UNL     1      -7.248   7.988  67.706  1.00  0.00    -0.087 OA 
BRANCH  13  15
HETATM   15  C   UNL     1      -8.286   5.854  67.507  1.00  0.00    -0.105 A  
HETATM   16  C   UNL     1      -7.315   4.847  67.354  1.00  0.00    -0.078 A  
HETATM   17  C   UNL     1      -7.571   3.543  67.789  1.00  0.00    -0.069 A  
HETATM   18  C   UNL     1      -8.788   3.229  68.388  1.00  0.00    -0.162 A  
HETATM   19  C   UNL     1      -9.753   4.218  68.560  1.00  0.00    -0.164 A  
HETATM   20  C   UNL     1      -9.512   5.521  68.100  1.00  0.00    -0.114 A  
BRANCH  20  21
HETATM   21  O   UNL     1     -10.492   6.501  68.356  1.00  0.00    -0.177 OA 
BRANCH  21  22
HETATM   22  C   UNL     1     -10.807   6.730  69.693  1.00  0.00    -0.271 C  
HETATM   23  O   UNL     1     -11.831   6.388  70.268  1.00  0.00    -0.396 OA 
HETATM   24  C   UNL     1      -9.640   7.380  70.375  1.00  0.00    -0.165 C  
ENDBRANCH  21  22
ENDBRANCH  20  21
ENDBRANCH  13  15
ENDBRANCH  12  13
ENDBRANCH   9  12
ENDBRANCH   3   6
TORSDOF 6
ENDMDL
MODEL      200
REMARK 921   NORMALIZED FREE ENERGY PREDICTED BY IDOCK:   -3.48 KCAL/MOL
REMARK 922        TOTAL FREE ENERGY PREDICTED BY IDOCK:   -6.18 KCAL/MOL
REMARK 923 INTER-LIGAND FREE ENERGY PREDICTED BY IDOCK:   -5.77 KCAL/MOL
REMARK 924 INTRA-LIGAND FREE ENERGY PREDICTED BY IDOCK:   -0.41 KCAL/MOL
REMARK 927      BINDING AFFINITY PREDICTED BY RF-SCORE:    0.00 PKD
ROOT
HETATM    1  C   UNL     1     -10.668   3.395  63.881  1.00  0.00    -0.221 C  
HETATM    2  C   UNL     1      -9.972   4.263  64.899  1.00  0.00    -0.168 C  
HETATM    3  N   UNL     1     -10.850   5.087  65.587  1.00  0.00    -0.702 N  
HETATM    4  O   UNL     1      -8.759   4.185  65.049  1.00  0.00    -0.117 OA 
HETATM    5  H   UNL     1     -11.836   5.014  65.338  1.00  0.00     0.000 HD 
ENDROOT
BRANCH   3   6
HETATM    6  C   UNL     1     -10.519   6.019  66.599  1.00  0.00    -0.228 A  
HETATM    7  C   UNL     1      -9.592   7.049  66.422  1.00  0.00    -0.159 A  
HETATM    8  C   UNL     1      -9.320   7.960  67.444  1.00  0.00    -0.169 A  
HETATM    9  C   UNL     1      -9.995   7.873  68.657  1.00  0.00    -0.191 A  
HETATM   10  C   UNL     1     -11.159   5.908  67.842  1.00  0.00    -0.097 A  
HETATM   11  C   UNL     1     -10.893   6.825  68.871  1.00  0.00    -0.288 A  
BRANCH   9  12
HETATM   12  O   UNL     1      -9.848   8.804  69.716  1.00  0.00    -0.180 OA 
BRANCH  12  13
HETATM   13  C   UNL     1      -9.081   8.558  70.858  1.00  0.00    -0.172 C  
HETATM   14  O   UNL     1      -8.202   9.266  71.322  1.00  0.00    -0.324 OA 
BRANCH  13  15
HETATM   15  C   UNL     1      -9.518   7.290  71.498  1.00  0.00    -0.160 A  
HETATM   16  C   UNL     1      -8.756   6.117  71.344  1.00  0.00    -0.135 A  
HETATM   17  C   UNL     1      -9.142   4.932  71.979  1.00  0.00    -0.156 A  
HETATM   18  C   UNL     1     -10.281   4.904  72.779  1.00  0.00    -0.227 A  
HETATM   19  C   UNL     1     -11.037   6.060  72.954  1.00  0.00    -0.290 A  
HETATM   20  C   UNL     1     -10.670   7.244  72.296  1.00  0.00    -0.231 A  
BRANCH  20  21
HETATM   21  O   UNL     1     -11.428   8.403  72.555  1.00  0.00    -0.380 OA 
BRANCH  21  22
HETATM   22  C   UNL     1     -12.605   8.551  71.827  1.00  0.00    -0.346 C  
HETATM   23  O   UNL     1     -13.485   7.712  71.686  1.00  0.00    -0.354 OA 
HETATM   24  C   UNL     1     -12.698   9.957  71.313  1.00  0.00    -0.482 C  
ENDBRANCH  21  22
ENDBRANCH  20  21
ENDBRANCH  13  15
ENDBRANCH  12  13
ENDBRANCH   9  12
ENDBRANCH   3   6
TORSDOF 6
ENDMDL
MODEL      201
REMARK 921   NORMALIZED FREE ENERGY PREDICTED BY IDOCK:   -3.47 KCAL/MOL
REMARK 922        TOTAL FREE ENERGY PREDICTED BY IDOCK:   -6.17 KCAL/MOL
REMARK 923 INTER-LIGAND FREE ENERGY PREDICTED BY IDOCK:   -5.52 KCAL/MOL
REMARK 924 INTRA-LIGAND FREE ENERGY PREDICTED BY IDOCK:   -0.65 KCAL/MOL
REMARK 927      BINDING AFFINITY PREDICTED BY RF-SCORE:    0.00 PKD
ROOT
HETATM    1  C   UNL     1     -10.124  16.486  67.885  1.00  0.00    -0.256 C  
HETATM    2  C   UNL     1     -10.332  15.272  68.755  1.00  0.00    -0.232 C  
HETATM    3  N   UNL     1     -10.432  14.100  68.021  1.00  0.00    -0.236 N  
HETATM    4  O   UNL     1     -10.390  15.391  69.973  1.00  0.00    -0.294 OA 
HETATM    5  H   UNL     1     -10.352  14.187  67.008  1.00  0.00     0.000 HD 
ENDROOT
BRANCH   3   6
HETATM    6  C   UNL     1     -10.633  12.796  68.532  1.00  0.00    -0.252 A  
HETATM    7  C   UNL     1     -11.798  12.401  69.194  1.00  0.00    -0.352 A  
HETATM    8  C   UNL     1     -11.959  11.094  69.656  1.00  0.00    -0.429 A  
HETATM    9  C   UNL     1     -10.964  10.147  69.438  1.00  0.00    -0.245 A  
HETATM   10  C   UNL     1      -9.614  11.849  68.360  1.00  0.00    -0.196 A  
HETATM   11  C   UNL     1      -9.773  10.531  68.818  1.00  0.00    -0.187 A  
BRANCH   9  12
HETATM   12  O   UNL     1     -11.078   8.780  69.793  1.00  0.00    -0.192 OA 
BRANCH  12  13
HETATM   13  C   UNL     1     -11.675   8.336  70.976  1.00  0.00    -0.270 C  
HETATM   14  O   UNL     1     -12.830   8.516  71.331  1.00  0.00    -0.310 OA 
BRANCH  13  15
HETATM   15  C   UNL     1     -10.702   7.540  71.767  1.00  0.00    -0.243 A  
HETATM   16  C   UNL     1     -10.284   7.985  73.035  1.00  0.00    -0.357 A  
HETATM   17  C   UNL     1      -9.401   7.217  73.800  1.00  0.00    -0.296 A  
HETATM   18  C   UNL     1      -8.932   5.998  73.318  1.00  0.00    -0.130 A  
HETATM   19  C   UNL     1      -9.348   5.537  72.072  1.00  0.00    -0.164 A  
HETATM   20  C   UNL     1     -10.212   6.317  71.289  1.00  0.00    -0.200 A  
BRANCH  20  21
HETATM   21  O   UNL     1     -10.657   5.779  70.065  1.00  0.00    -0.255 OA 
BRANCH  21  22
HETATM   22  C   UNL     1      -9.748   5.800  69.010  1.00  0.00    -0.140 C  
HETATM   23  O   UNL     1      -8.908   6.662  68.790  1.00  0.00    -0.127 OA 
HETATM   24  C   UNL     1      -9.874   4.532  68.220  1.00  0.00    -0.153 C  
ENDBRANCH  21  22
ENDBRANCH  20  21
ENDBRANCH  13  15
ENDBRANCH  12  13
ENDBRANCH   9  12
ENDBRANCH   3   6
TORSDOF 6
ENDMDL
MODEL      202
REMARK 921   NORMALIZED FREE ENERGY PREDICTED BY IDOCK:   -3.46 KCAL/MOL
REMARK 922        TOTAL FREE ENERGY PREDICTED BY IDOCK:   -6.15 KCAL/MOL
REMARK 923 INTER-LIGAND FREE ENERGY PREDICTED BY IDOCK:   -4.96 KCAL/MOL
REMARK 924 INTRA-LIGAND FREE ENERGY PREDICTED BY IDOCK:   -1.19 KCAL/MOL
REMARK 927      BINDING AFFINITY PREDICTED BY RF-SCORE:    0.00 PKD
ROOT
HETATM    1  C   UNL     1     -10.422  10.656  64.688  1.00  0.00    -0.275 C  
HETATM    2  C   UNL     1     -10.394  10.035  66.062  1.00  0.00    -0.152 C  
HETATM    3  N   UNL     1     -10.124   8.676  66.028  1.00  0.00    -0.421 N  
HETATM    4  O   UNL     1     -10.593  10.726  67.054  1.00  0.00    -0.235 OA 
HETATM    5  H   UNL     1      -9.974   8.262  65.108  1.00  0.00     0.000 HD 
ENDROOT
BRANCH   3   6
HETATM    6  C   UNL     1     -10.032   7.803  67.138  1.00  0.00    -0.230 A  
HETATM    7  C   UNL     1      -8.834   7.520  67.797  1.00  0.00    -0.132 A  
HETATM    8  C   UNL     1      -8.800   6.672  68.905  1.00  0.00    -0.131 A  
HETATM    9  C   UNL     1      -9.975   6.111  69.392  1.00  0.00    -0.166 A  
HETATM   10  C   UNL     1     -11.206   7.194  67.604  1.00  0.00     0.008 A  
HETATM   11  C   UNL     1     -11.178   6.344  68.722  1.00  0.00    -0.358 A  
BRANCH   9  12
HETATM   12  O   UNL     1     -10.049   5.310  70.560  1.00  0.00    -0.209 OA 
BRANCH  12  13
HETATM   13  C   UNL     1     -10.594   5.756  71.767  1.00  0.00    -0.238 C  
HETATM   14  O   UNL     1     -11.776   5.915  72.029  1.00  0.00    -0.279 OA 
BRANCH  13  15
HETATM   15  C   UNL     1      -9.510   5.979  72.759  1.00  0.00    -0.154 A  
HETATM   16  C   UNL     1      -8.616   4.941  73.080  1.00  0.00    -0.110 A  
HETATM   17  C   UNL     1      -7.569   5.160  73.981  1.00  0.00    -0.094 A  
HETATM   18  C   UNL     1      -7.394   6.413  74.563  1.00  0.00    -0.099 A  
HETATM   19  C   UNL     1      -8.261   7.455  74.243  1.00  0.00    -0.220 A  
HETATM   20  C   UNL     1      -9.330   7.232  73.362  1.00  0.00    -0.197 A  
BRANCH  20  21
HETATM   21  O   UNL     1     -10.140   8.332  73.019  1.00  0.00    -0.271 OA 
BRANCH  21  22
HETATM   22  C   UNL     1      -9.858   8.958  71.807  1.00  0.00    -0.315 C  
HETATM   23  O   UNL     1      -8.749   9.146  71.326  1.00  0.00    -0.270 OA 
HETATM   24  C   UNL     1     -11.142   9.282  71.104  1.00  0.00    -0.411 C  
ENDBRANCH  21  22
ENDBRANCH  20  21
ENDBRANCH  13  15
ENDBRANCH  12  13
ENDBRANCH   9  12
ENDBRANCH   3   6
TORSDOF 6
ENDMDL
MODEL      203
REMARK 921   NORMALIZED FREE ENERGY PREDICTED BY IDOCK:   -3.46 KCAL/MOL
REMARK 922        TOTAL FREE ENERGY PREDICTED BY IDOCK:   -6.15 KCAL/MOL
REMARK 923 INTER-LIGAND FREE ENERGY PREDICTED BY IDOCK:   -5.78 KCAL/MOL
REMARK 924 INTRA-LIGAND FREE ENERGY PREDICTED BY IDOCK:   -0.37 KCAL/MOL
REMARK 927      BINDING AFFINITY PREDICTED BY RF-SCORE:    0.00 PKD
ROOT
HETATM    1  C   UNL     1      -9.284   4.451  65.118  1.00  0.00    -0.156 C  
HETATM    2  C   UNL     1      -9.747   5.694  65.835  1.00  0.00     0.013 C  
HETATM    3  N   UNL     1      -8.935   6.789  65.584  1.00  0.00    -0.358 N  
HETATM    4  O   UNL     1     -10.748   5.661  66.540  1.00  0.00    -0.288 OA 
HETATM    5  H   UNL     1      -8.143   6.637  64.960  1.00  0.00     0.000 HD 
ENDROOT
BRANCH   3   6
HETATM    6  C   UNL     1      -9.091   8.096  66.103  1.00  0.00    -0.183 A  
HETATM    7  C   UNL     1      -9.192   9.235  65.300  1.00  0.00    -0.275 A  
HETATM    8  C   UNL     1      -9.372  10.500  65.861  1.00  0.00    -0.220 A  
HETATM    9  C   UNL     1      -9.482  10.646  67.239  1.00  0.00    -0.158 A  
HETATM   10  C   UNL     1      -9.153   8.257  67.494  1.00  0.00    -0.148 A  
HETATM   11  C   UNL     1      -9.339   9.527  68.063  1.00  0.00    -0.143 A  
BRANCH   9  12
HETATM   12  O   UNL     1      -9.752  11.877  67.889  1.00  0.00    -0.181 OA 
BRANCH  12  13
HETATM   13  C   UNL     1     -11.002  12.501  67.871  1.00  0.00    -0.227 C  
HETATM   14  O   UNL     1     -12.086  11.974  67.679  1.00  0.00    -0.547 OA 
BRANCH  13  15
HETATM   15  C   UNL     1     -10.850  13.947  68.174  1.00  0.00    -0.262 A  
HETATM   16  C   UNL     1     -10.459  14.848  67.166  1.00  0.00    -0.271 A  
HETATM   17  C   UNL     1     -10.355  16.215  67.439  1.00  0.00    -0.294 A  
HETATM   18  C   UNL     1     -10.648  16.702  68.710  1.00  0.00    -0.340 A  
HETATM   19  C   UNL     1     -11.050  15.826  69.714  1.00  0.00    -0.322 A  
HETATM   20  C   UNL     1     -11.128  14.450  69.453  1.00  0.00    -0.261 A  
BRANCH  20  21
HETATM   21  O   UNL     1     -11.603  13.611  70.481  1.00  0.00    -0.155 OA 
BRANCH  21  22
HETATM   22  C   UNL     1     -12.829  13.954  71.046  1.00  0.00    -0.324 C  
HETATM   23  O   UNL     1     -13.645  14.745  70.591  1.00  0.00    -0.222 OA 
HETATM   24  C   UNL     1     -13.065  13.118  72.269  1.00  0.00    -0.458 C  
ENDBRANCH  21  22
ENDBRANCH  20  21
ENDBRANCH  13  15
ENDBRANCH  12  13
ENDBRANCH   9  12
ENDBRANCH   3   6
TORSDOF 6
ENDMDL
MODEL      204
REMARK 921   NORMALIZED FREE ENERGY PREDICTED BY IDOCK:   -3.46 KCAL/MOL
REMARK 922        TOTAL FREE ENERGY PREDICTED BY IDOCK:   -6.15 KCAL/MOL
REMARK 923 INTER-LIGAND FREE ENERGY PREDICTED BY IDOCK:   -5.62 KCAL/MOL
REMARK 924 INTRA-LIGAND FREE ENERGY PREDICTED BY IDOCK:   -0.53 KCAL/MOL
REMARK 927      BINDING AFFINITY PREDICTED BY RF-SCORE:    0.00 PKD
ROOT
HETATM    1  C   UNL     1     -10.028  17.736  66.247  1.00  0.00    -0.322 C  
HETATM    2  C   UNL     1      -9.757  16.279  66.527  1.00  0.00    -0.263 C  
HETATM    3  N   UNL     1     -10.789  15.454  66.110  1.00  0.00    -0.323 N  
HETATM    4  O   UNL     1      -8.707  15.941  67.062  1.00  0.00    -0.192 OA 
HETATM    5  H   UNL     1     -11.590  15.909  65.672  1.00  0.00     0.000 HD 
ENDROOT
BRANCH   3   6
HETATM    6  C   UNL     1     -10.848  14.045  66.229  1.00  0.00    -0.291 A  
HETATM    7  C   UNL     1     -10.210  13.172  65.344  1.00  0.00    -0.301 A  
HETATM    8  C   UNL     1     -10.276  11.789  65.521  1.00  0.00    -0.291 A  
HETATM    9  C   UNL     1     -10.962  11.254  66.605  1.00  0.00    -0.268 A  
HETATM   10  C   UNL     1     -11.579  13.496  67.292  1.00  0.00    -0.398 A  
HETATM   11  C   UNL     1     -11.644  12.106  67.476  1.00  0.00    -0.413 A  
BRANCH   9  12
HETATM   12  O   UNL     1     -11.009   9.870  66.912  1.00  0.00    -0.134 OA 
BRANCH  12  13
HETATM   13  C   UNL     1     -10.142   8.927  66.354  1.00  0.00    -0.263 C  
HETATM   14  O   UNL     1      -9.564   9.001  65.281  1.00  0.00    -0.142 OA 
BRANCH  13  15
HETATM   15  C   UNL     1      -9.964   7.788  67.291  1.00  0.00    -0.277 A  
HETATM   16  C   UNL     1     -10.761   6.635  67.168  1.00  0.00    -0.440 A  
HETATM   17  C   UNL     1     -10.568   5.545  68.022  1.00  0.00    -0.213 A  
HETATM   18  C   UNL     1      -9.575   5.584  68.998  1.00  0.00    -0.180 A  
HETATM   19  C   UNL     1      -8.768   6.712  69.122  1.00  0.00    -0.130 A  
HETATM   20  C   UNL     1      -8.977   7.820  68.286  1.00  0.00    -0.131 A  
BRANCH  20  21
HETATM   21  O   UNL     1      -8.093   8.910  68.406  1.00  0.00    -0.107 OA 
BRANCH  21  22
HETATM   22  C   UNL     1      -8.328   9.787  69.462  1.00  0.00    -0.161 C  
HETATM   23  O   UNL     1      -9.330   9.831  70.163  1.00  0.00    -0.234 OA 
HETATM   24  C   UNL     1      -7.105  10.624  69.694  1.00  0.00    -0.143 C  
ENDBRANCH  21  22
ENDBRANCH  20  21
ENDBRANCH  13  15
ENDBRANCH  12  13
ENDBRANCH   9  12
ENDBRANCH   3   6
TORSDOF 6
ENDMDL
MODEL      205
REMARK 921   NORMALIZED FREE ENERGY PREDICTED BY IDOCK:   -3.42 KCAL/MOL
REMARK 922        TOTAL FREE ENERGY PREDICTED BY IDOCK:   -6.10 KCAL/MOL
REMARK 923 INTER-LIGAND FREE ENERGY PREDICTED BY IDOCK:   -4.65 KCAL/MOL
REMARK 924 INTRA-LIGAND FREE ENERGY PREDICTED BY IDOCK:   -1.44 KCAL/MOL
REMARK 927      BINDING AFFINITY PREDICTED BY RF-SCORE:    0.00 PKD
ROOT
HETATM    1  C   UNL     1     -11.746  11.745  68.910  1.00  0.00    -0.384 C  
HETATM    2  C   UNL     1     -11.333  10.446  69.554  1.00  0.00    -0.265 C  
HETATM    3  N   UNL     1     -10.429   9.732  68.783  1.00  0.00    -0.210 N  
HETATM    4  O   UNL     1     -11.787  10.129  70.647  1.00  0.00    -0.293 OA 
HETATM    5  H   UNL     1     -10.150  10.154  67.897  1.00  0.00     0.000 HD 
ENDROOT
BRANCH   3   6
HETATM    6  C   UNL     1      -9.851   8.479  69.098  1.00  0.00    -0.186 A  
HETATM    7  C   UNL     1      -8.548   8.333  69.580  1.00  0.00    -0.129 A  
HETATM    8  C   UNL     1      -8.034   7.076  69.902  1.00  0.00    -0.123 A  
HETATM    9  C   UNL     1      -8.826   5.941  69.771  1.00  0.00    -0.128 A  
HETATM   10  C   UNL     1     -10.627   7.325  68.922  1.00  0.00    -0.207 A  
HETATM   11  C   UNL     1     -10.116   6.059  69.249  1.00  0.00    -0.235 A  
BRANCH   9  12
HETATM   12  O   UNL     1      -8.418   4.639  70.155  1.00  0.00    -0.073 OA 
BRANCH  12  13
HETATM   13  C   UNL     1      -8.066   4.294  71.463  1.00  0.00    -0.087 C  
HETATM   14  O   UNL     1      -6.996   4.494  72.015  1.00  0.00    -0.051 OA 
BRANCH  13  15
HETATM   15  C   UNL     1      -9.225   3.666  72.149  1.00  0.00    -0.167 A  
HETATM   16  C   UNL     1      -9.589   2.339  71.859  1.00  0.00    -0.201 A  
HETATM   17  C   UNL     1     -10.652   1.731  72.534  1.00  0.00    -0.211 A  
HETATM   18  C   UNL     1     -11.357   2.432  73.509  1.00  0.00    -0.302 A  
HETATM   19  C   UNL     1     -10.999   3.742  73.819  1.00  0.00    -0.312 A  
HETATM   20  C   UNL     1      -9.951   4.365  73.124  1.00  0.00    -0.145 A  
BRANCH  20  21
HETATM   21  O   UNL     1      -9.584   5.667  73.518  1.00  0.00    -0.138 OA 
BRANCH  21  22
HETATM   22  C   UNL     1     -10.338   6.712  72.989  1.00  0.00    -0.222 C  
HETATM   23  O   UNL     1     -11.450   6.625  72.485  1.00  0.00    -0.265 OA 
HETATM   24  C   UNL     1      -9.624   8.009  73.226  1.00  0.00    -0.322 C  
ENDBRANCH  21  22
ENDBRANCH  20  21
ENDBRANCH  13  15
ENDBRANCH  12  13
ENDBRANCH   9  12
ENDBRANCH   3   6
TORSDOF 6
ENDMDL
MODEL      206
REMARK 921   NORMALIZED FREE ENERGY PREDICTED BY IDOCK:   -3.42 KCAL/MOL
REMARK 922        TOTAL FREE ENERGY PREDICTED BY IDOCK:   -6.09 KCAL/MOL
REMARK 923 INTER-LIGAND FREE ENERGY PREDICTED BY IDOCK:   -6.01 KCAL/MOL
REMARK 924 INTRA-LIGAND FREE ENERGY PREDICTED BY IDOCK:   -0.08 KCAL/MOL
REMARK 927      BINDING AFFINITY PREDICTED BY RF-SCORE:    0.00 PKD
ROOT
HETATM    1  C   UNL     1     -13.730  15.754  72.893  1.00  0.00    -0.631 C  
HETATM    2  C   UNL     1     -12.747  14.747  72.354  1.00  0.00    -0.349 C  
HETATM    3  N   UNL     1     -13.358  13.744  71.617  1.00  0.00    -0.357 N  
HETATM    4  O   UNL     1     -11.549  14.875  72.579  1.00  0.00    -0.296 OA 
HETATM    5  H   UNL     1     -14.372  13.800  71.524  1.00  0.00     0.000 HD 
ENDROOT
BRANCH   3   6
HETATM    6  C   UNL     1     -12.722  12.651  70.983  1.00  0.00    -0.226 A  
HETATM    7  C   UNL     1     -11.882  12.789  69.875  1.00  0.00    -0.371 A  
HETATM    8  C   UNL     1     -11.256  11.681  69.301  1.00  0.00    -0.328 A  
HETATM    9  C   UNL     1     -11.439  10.414  69.844  1.00  0.00    -0.297 A  
HETATM   10  C   UNL     1     -12.941  11.364  71.494  1.00  0.00    -0.505 A  
HETATM   11  C   UNL     1     -12.310  10.248  70.923  1.00  0.00    -0.471 A  
BRANCH   9  12
HETATM   12  O   UNL     1     -10.778   9.248  69.382  1.00  0.00    -0.225 OA 
BRANCH  12  13
HETATM   13  C   UNL     1     -10.618   8.095  70.155  1.00  0.00    -0.237 C  
HETATM   14  O   UNL     1     -10.855   7.966  71.345  1.00  0.00    -0.223 OA 
BRANCH  13  15
HETATM   15  C   UNL     1     -10.147   6.975  69.299  1.00  0.00    -0.178 A  
HETATM   16  C   UNL     1     -10.931   6.525  68.221  1.00  0.00    -0.362 A  
HETATM   17  C   UNL     1     -10.471   5.500  67.389  1.00  0.00    -0.284 A  
HETATM   18  C   UNL     1      -9.226   4.919  67.613  1.00  0.00    -0.138 A  
HETATM   19  C   UNL     1      -8.431   5.363  68.667  1.00  0.00    -0.093 A  
HETATM   20  C   UNL     1      -8.901   6.372  69.522  1.00  0.00    -0.136 A  
BRANCH  20  21
HETATM   21  O   UNL     1      -8.034   6.833  70.533  1.00  0.00    -0.110 OA 
BRANCH  21  22
HETATM   22  C   UNL     1      -7.267   7.955  70.230  1.00  0.00    -0.057 C  
HETATM   23  O   UNL     1      -6.909   8.312  69.115  1.00  0.00    -0.050 OA 
HETATM   24  C   UNL     1      -7.021   8.743  71.481  1.00  0.00    -0.091 C  
ENDBRANCH  21  22
ENDBRANCH  20  21
ENDBRANCH  13  15
ENDBRANCH  12  13
ENDBRANCH   9  12
ENDBRANCH   3   6
TORSDOF 6
ENDMDL
MODEL      207
REMARK 921   NORMALIZED FREE ENERGY PREDICTED BY IDOCK:   -3.38 KCAL/MOL
REMARK 922        TOTAL FREE ENERGY PREDICTED BY IDOCK:   -6.04 KCAL/MOL
REMARK 923 INTER-LIGAND FREE ENERGY PREDICTED BY IDOCK:   -5.20 KCAL/MOL
REMARK 924 INTRA-LIGAND FREE ENERGY PREDICTED BY IDOCK:   -0.84 KCAL/MOL
REMARK 927      BINDING AFFINITY PREDICTED BY RF-SCORE:    0.00 PKD
ROOT
HETATM    1  C   UNL     1      -9.382   3.352  68.944  1.00  0.00    -0.237 C  
HETATM    2  C   UNL     1      -8.794   4.486  68.142  1.00  0.00    -0.107 C  
HETATM    3  N   UNL     1      -9.479   5.677  68.321  1.00  0.00    -0.111 N  
HETATM    4  O   UNL     1      -7.810   4.295  67.437  1.00  0.00    -0.090 OA 
HETATM    5  H   UNL     1     -10.276   5.656  68.957  1.00  0.00     0.000 HD 
ENDROOT
BRANCH   3   6
HETATM    6  C   UNL     1      -9.187   6.921  67.712  1.00  0.00    -0.119 A  
HETATM    7  C   UNL     1     -10.020   7.530  66.771  1.00  0.00    -0.307 A  
HETATM    8  C   UNL     1      -9.701   8.772  66.219  1.00  0.00    -0.342 A  
HETATM    9  C   UNL     1      -8.551   9.442  66.622  1.00  0.00    -0.130 A  
HETATM   10  C   UNL     1      -8.004   7.580  68.077  1.00  0.00    -0.123 A  
HETATM   11  C   UNL     1      -7.682   8.832  67.529  1.00  0.00    -0.101 A  
BRANCH   9  12
HETATM   12  O   UNL     1      -8.193  10.741  66.182  1.00  0.00    -0.154 OA 
BRANCH  12  13
HETATM   13  C   UNL     1      -8.145  11.855  67.025  1.00  0.00    -0.167 C  
HETATM   14  O   UNL     1      -7.185  12.578  67.236  1.00  0.00    -0.147 OA 
BRANCH  13  15
HETATM   15  C   UNL     1      -9.483  12.092  67.627  1.00  0.00    -0.185 A  
HETATM   16  C   UNL     1      -9.854  11.435  68.815  1.00  0.00    -0.175 A  
HETATM   17  C   UNL     1     -11.095  11.688  69.406  1.00  0.00    -0.268 A  
HETATM   18  C   UNL     1     -11.975  12.601  68.830  1.00  0.00    -0.284 A  
HETATM   19  C   UNL     1     -11.616  13.271  67.664  1.00  0.00    -0.386 A  
HETATM   20  C   UNL     1     -10.383  12.999  67.051  1.00  0.00    -0.247 A  
BRANCH  20  21
HETATM   21  O   UNL     1     -10.037  13.749  65.909  1.00  0.00    -0.299 OA 
BRANCH  21  22
HETATM   22  C   UNL     1     -10.653  13.383  64.715  1.00  0.00    -0.405 C  
HETATM   23  O   UNL     1     -10.330  12.457  63.983  1.00  0.00    -0.363 OA 
HETATM   24  C   UNL     1     -11.865  14.240  64.498  1.00  0.00    -0.456 C  
ENDBRANCH  21  22
ENDBRANCH  20  21
ENDBRANCH  13  15
ENDBRANCH  12  13
ENDBRANCH   9  12
ENDBRANCH   3   6
TORSDOF 6
ENDMDL
MODEL      208
REMARK 921   NORMALIZED FREE ENERGY PREDICTED BY IDOCK:   -3.38 KCAL/MOL
REMARK 922        TOTAL FREE ENERGY PREDICTED BY IDOCK:   -6.04 KCAL/MOL
REMARK 923 INTER-LIGAND FREE ENERGY PREDICTED BY IDOCK:   -5.30 KCAL/MOL
REMARK 924 INTRA-LIGAND FREE ENERGY PREDICTED BY IDOCK:   -0.74 KCAL/MOL
REMARK 927      BINDING AFFINITY PREDICTED BY RF-SCORE:    0.00 PKD
ROOT
HETATM    1  C   UNL     1      -9.964  18.808  66.301  1.00  0.00    -0.418 C  
HETATM    2  C   UNL     1      -9.633  17.337  66.265  1.00  0.00    -0.248 C  
HETATM    3  N   UNL     1     -10.764  16.537  66.228  1.00  0.00    -0.210 N  
HETATM    4  O   UNL     1      -8.465  16.969  66.263  1.00  0.00    -0.288 OA 
HETATM    5  H   UNL     1     -11.664  17.017  66.227  1.00  0.00     0.000 HD 
ENDROOT
BRANCH   3   6
HETATM    6  C   UNL     1     -10.800  15.123  66.193  1.00  0.00    -0.330 A  
HETATM    7  C   UNL     1     -10.560  14.377  65.037  1.00  0.00    -0.452 A  
HETATM    8  C   UNL     1     -10.580  12.981  65.060  1.00  0.00    -0.336 A  
HETATM    9  C   UNL     1     -10.816  12.304  66.251  1.00  0.00    -0.278 A  
HETATM   10  C   UNL     1     -11.087  14.434  67.380  1.00  0.00    -0.317 A  
HETATM   11  C   UNL     1     -11.103  13.030  67.409  1.00  0.00    -0.302 A  
BRANCH   9  12
HETATM   12  O   UNL     1     -10.770  10.894  66.387  1.00  0.00    -0.249 OA 
BRANCH  12  13
HETATM   13  C   UNL     1      -9.762  10.098  65.836  1.00  0.00    -0.232 C  
HETATM   14  O   UNL     1      -9.741   9.602  64.720  1.00  0.00    -0.237 OA 
BRANCH  13  15
HETATM   15  C   UNL     1      -8.641   9.962  66.801  1.00  0.00    -0.133 A  
HETATM   16  C   UNL     1      -7.463  10.713  66.634  1.00  0.00    -0.129 A  
HETATM   17  C   UNL     1      -6.424  10.618  67.564  1.00  0.00    -0.058 A  
HETATM   18  C   UNL     1      -6.548   9.785  68.673  1.00  0.00    -0.051 A  
HETATM   19  C   UNL     1      -7.713   9.047  68.861  1.00  0.00    -0.094 A  
HETATM   20  C   UNL     1      -8.747   9.117  67.915  1.00  0.00    -0.128 A  
BRANCH  20  21
HETATM   21  O   UNL     1      -9.932   8.403  68.182  1.00  0.00    -0.177 OA 
BRANCH  21  22
HETATM   22  C   UNL     1     -10.078   7.178  67.537  1.00  0.00    -0.188 C  
HETATM   23  O   UNL     1     -11.012   6.838  66.822  1.00  0.00    -0.337 OA 
HETATM   24  C   UNL     1      -8.849   6.348  67.762  1.00  0.00    -0.112 C  
ENDBRANCH  21  22
ENDBRANCH  20  21
ENDBRANCH  13  15
ENDBRANCH  12  13
ENDBRANCH   9  12
ENDBRANCH   3   6
TORSDOF 6
ENDMDL
MODEL      209
REMARK 921   NORMALIZED FREE ENERGY PREDICTED BY IDOCK:   -3.37 KCAL/MOL
REMARK 922        TOTAL FREE ENERGY PREDICTED BY IDOCK:   -6.03 KCAL/MOL
REMARK 923 INTER-LIGAND FREE ENERGY PREDICTED BY IDOCK:   -4.89 KCAL/MOL
REMARK 924 INTRA-LIGAND FREE ENERGY PREDICTED BY IDOCK:   -1.14 KCAL/MOL
REMARK 927      BINDING AFFINITY PREDICTED BY RF-SCORE:    0.00 PKD
ROOT
HETATM    1  C   UNL     1     -11.035   2.516  63.086  1.00  0.00    -0.230 C  
HETATM    2  C   UNL     1      -9.984   2.988  64.058  1.00  0.00    -0.162 C  
HETATM    3  N   UNL     1     -10.511   3.761  65.081  1.00  0.00    -0.459 N  
HETATM    4  O   UNL     1      -8.810   2.672  63.898  1.00  0.00    -0.089 OA 
HETATM    5  H   UNL     1     -11.519   3.916  65.063  1.00  0.00     0.000 HD 
ENDROOT
BRANCH   3   6
HETATM    6  C   UNL     1      -9.796   4.357  66.147  1.00  0.00    -0.231 A  
HETATM    7  C   UNL     1      -9.427   5.704  66.166  1.00  0.00    -0.157 A  
HETATM    8  C   UNL     1      -8.746   6.251  67.255  1.00  0.00    -0.105 A  
HETATM    9  C   UNL     1      -8.444   5.463  68.359  1.00  0.00    -0.096 A  
HETATM   10  C   UNL     1      -9.444   3.557  67.243  1.00  0.00    -0.228 A  
HETATM   11  C   UNL     1      -8.764   4.104  68.342  1.00  0.00    -0.122 A  
BRANCH   9  12
HETATM   12  O   UNL     1      -7.834   5.952  69.542  1.00  0.00    -0.094 OA 
BRANCH  12  13
HETATM   13  C   UNL     1      -8.326   7.038  70.271  1.00  0.00    -0.133 C  
HETATM   14  O   UNL     1      -7.801   8.132  70.409  1.00  0.00    -0.085 OA 
BRANCH  13  15
HETATM   15  C   UNL     1      -9.652   6.700  70.849  1.00  0.00    -0.183 A  
HETATM   16  C   UNL     1      -9.750   5.799  71.926  1.00  0.00    -0.184 A  
HETATM   17  C   UNL     1     -10.992   5.511  72.498  1.00  0.00    -0.316 A  
HETATM   18  C   UNL     1     -12.147   6.122  72.015  1.00  0.00    -0.256 A  
HETATM   19  C   UNL     1     -12.065   7.027  70.961  1.00  0.00    -0.413 A  
HETATM   20  C   UNL     1     -10.824   7.297  70.364  1.00  0.00    -0.246 A  
BRANCH  20  21
HETATM   21  O   UNL     1     -10.782   8.269  69.344  1.00  0.00    -0.221 OA 
BRANCH  21  22
HETATM   22  C   UNL     1     -10.925   9.596  69.744  1.00  0.00    -0.240 C  
HETATM   23  O   UNL     1     -10.807  10.029  70.882  1.00  0.00    -0.319 OA 
HETATM   24  C   UNL     1     -11.145  10.458  68.537  1.00  0.00    -0.318 C  
ENDBRANCH  21  22
ENDBRANCH  20  21
ENDBRANCH  13  15
ENDBRANCH  12  13
ENDBRANCH   9  12
ENDBRANCH   3   6
TORSDOF 6
ENDMDL
MODEL      210
REMARK 921   NORMALIZED FREE ENERGY PREDICTED BY IDOCK:   -3.35 KCAL/MOL
REMARK 922        TOTAL FREE ENERGY PREDICTED BY IDOCK:   -6.00 KCAL/MOL
REMARK 923 INTER-LIGAND FREE ENERGY PREDICTED BY IDOCK:   -5.29 KCAL/MOL
REMARK 924 INTRA-LIGAND FREE ENERGY PREDICTED BY IDOCK:   -0.71 KCAL/MOL
REMARK 927      BINDING AFFINITY PREDICTED BY RF-SCORE:    0.00 PKD
ROOT
HETATM    1  C   UNL     1     -10.516  17.987  66.632  1.00  0.00    -0.332 C  
HETATM    2  C   UNL     1     -10.085  16.660  67.203  1.00  0.00    -0.276 C  
HETATM    3  N   UNL     1     -10.627  15.583  66.519  1.00  0.00    -0.304 N  
HETATM    4  O   UNL     1      -9.328  16.621  68.166  1.00  0.00    -0.216 OA 
HETATM    5  H   UNL     1     -11.234  15.801  65.730  1.00  0.00     0.000 HD 
ENDROOT
BRANCH   3   6
HETATM    6  C   UNL     1     -10.425  14.211  66.803  1.00  0.00    -0.277 A  
HETATM    7  C   UNL     1      -9.495  13.416  66.129  1.00  0.00    -0.156 A  
HETATM    8  C   UNL     1      -9.314  12.073  66.464  1.00  0.00    -0.226 A  
HETATM    9  C   UNL     1     -10.044  11.507  67.503  1.00  0.00    -0.183 A  
HETATM   10  C   UNL     1     -11.193  13.620  67.816  1.00  0.00    -0.310 A  
HETATM   11  C   UNL     1     -11.011  12.271  68.160  1.00  0.00    -0.269 A  
BRANCH   9  12
HETATM   12  O   UNL     1      -9.866  10.180  67.969  1.00  0.00    -0.145 OA 
BRANCH  12  13
HETATM   13  C   UNL     1      -8.951   9.829  68.966  1.00  0.00    -0.154 C  
HETATM   14  O   UNL     1      -8.194  10.575  69.567  1.00  0.00    -0.151 OA 
BRANCH  13  15
HETATM   15  C   UNL     1      -9.050   8.375  69.253  1.00  0.00    -0.150 A  
HETATM   16  C   UNL     1      -7.917   7.549  69.137  1.00  0.00    -0.121 A  
HETATM   17  C   UNL     1      -7.997   6.188  69.447  1.00  0.00    -0.104 A  
HETATM   18  C   UNL     1      -9.199   5.637  69.885  1.00  0.00    -0.173 A  
HETATM   19  C   UNL     1     -10.325   6.444  70.019  1.00  0.00    -0.245 A  
HETATM   20  C   UNL     1     -10.257   7.804  69.682  1.00  0.00    -0.206 A  
BRANCH  20  21
HETATM   21  O   UNL     1     -11.404   8.594  69.897  1.00  0.00    -0.119 OA 
BRANCH  21  22
HETATM   22  C   UNL     1     -11.573   9.108  71.180  1.00  0.00    -0.317 C  
HETATM   23  O   UNL     1     -11.065   8.681  72.208  1.00  0.00    -0.354 OA 
HETATM   24  C   UNL     1     -12.402  10.356  71.110  1.00  0.00    -0.505 C  
ENDBRANCH  21  22
ENDBRANCH  20  21
ENDBRANCH  13  15
ENDBRANCH  12  13
ENDBRANCH   9  12
ENDBRANCH   3   6
TORSDOF 6
ENDMDL
MODEL      211
REMARK 921   NORMALIZED FREE ENERGY PREDICTED BY IDOCK:   -3.34 KCAL/MOL
REMARK 922        TOTAL FREE ENERGY PREDICTED BY IDOCK:   -5.99 KCAL/MOL
REMARK 923 INTER-LIGAND FREE ENERGY PREDICTED BY IDOCK:   -5.71 KCAL/MOL
REMARK 924 INTRA-LIGAND FREE ENERGY PREDICTED BY IDOCK:   -0.29 KCAL/MOL
REMARK 927      BINDING AFFINITY PREDICTED BY RF-SCORE:    0.00 PKD
ROOT
HETATM    1  C   UNL     1      -5.304  10.752  70.815  1.00  0.00    -0.105 C  
HETATM    2  C   UNL     1      -6.157  11.764  70.092  1.00  0.00    -0.147 C  
HETATM    3  N   UNL     1      -7.031  11.178  69.190  1.00  0.00    -0.098 N  
HETATM    4  O   UNL     1      -6.035  12.959  70.337  1.00  0.00    -0.162 OA 
HETATM    5  H   UNL     1      -7.003  10.161  69.121  1.00  0.00     0.000 HD 
ENDROOT
BRANCH   3   6
HETATM    6  C   UNL     1      -7.958  11.845  68.354  1.00  0.00    -0.154 A  
HETATM    7  C   UNL     1      -9.214  11.325  68.032  1.00  0.00    -0.160 A  
HETATM    8  C   UNL     1     -10.105  12.035  67.224  1.00  0.00    -0.208 A  
HETATM    9  C   UNL     1      -9.763  13.294  66.745  1.00  0.00    -0.258 A  
HETATM   10  C   UNL     1      -7.602  13.094  67.826  1.00  0.00    -0.155 A  
HETATM   11  C   UNL     1      -8.496  13.814  67.018  1.00  0.00    -0.150 A  
BRANCH   9  12
HETATM   12  O   UNL     1     -10.635  14.122  65.993  1.00  0.00    -0.286 OA 
BRANCH  12  13
HETATM   13  C   UNL     1     -10.887  15.460  66.304  1.00  0.00    -0.301 C  
HETATM   14  O   UNL     1     -10.967  16.396  65.524  1.00  0.00    -0.239 OA 
BRANCH  13  15
HETATM   15  C   UNL     1     -11.104  15.608  67.766  1.00  0.00    -0.311 A  
HETATM   16  C   UNL     1     -11.950  14.717  68.453  1.00  0.00    -0.289 A  
HETATM   17  C   UNL     1     -12.123  14.827  69.836  1.00  0.00    -0.381 A  
HETATM   18  C   UNL     1     -11.451  15.815  70.551  1.00  0.00    -0.401 A  
HETATM   19  C   UNL     1     -10.599  16.694  69.889  1.00  0.00    -0.168 A  
HETATM   20  C   UNL     1     -10.445  16.606  68.497  1.00  0.00    -0.319 A  
BRANCH  20  21
HETATM   21  O   UNL     1      -9.522  17.475  67.881  1.00  0.00    -0.266 OA 
BRANCH  21  22
HETATM   22  C   UNL     1      -9.852  18.828  67.873  1.00  0.00    -0.341 C  
HETATM   23  O   UNL     1     -10.916  19.315  67.512  1.00  0.00    -0.465 OA 
HETATM   24  C   UNL     1      -8.732  19.617  68.482  1.00  0.00    -0.344 C  
ENDBRANCH  21  22
ENDBRANCH  20  21
ENDBRANCH  13  15
ENDBRANCH  12  13
ENDBRANCH   9  12
ENDBRANCH   3   6
TORSDOF 6
ENDMDL
MODEL      212
REMARK 921   NORMALIZED FREE ENERGY PREDICTED BY IDOCK:   -3.32 KCAL/MOL
REMARK 922        TOTAL FREE ENERGY PREDICTED BY IDOCK:   -5.96 KCAL/MOL
REMARK 923 INTER-LIGAND FREE ENERGY PREDICTED BY IDOCK:   -5.07 KCAL/MOL
REMARK 924 INTRA-LIGAND FREE ENERGY PREDICTED BY IDOCK:   -0.88 KCAL/MOL
REMARK 927      BINDING AFFINITY PREDICTED BY RF-SCORE:    0.00 PKD
ROOT
HETATM    1  C   UNL     1     -11.509  15.967  68.469  1.00  0.00    -0.357 C  
HETATM    2  C   UNL     1     -11.608  14.516  68.072  1.00  0.00    -0.336 C  
HETATM    3  N   UNL     1     -10.912  13.679  68.930  1.00  0.00    -0.249 N  
HETATM    4  O   UNL     1     -12.261  14.190  67.088  1.00  0.00    -0.421 OA 
HETATM    5  H   UNL     1     -10.428  14.124  69.710  1.00  0.00     0.000 HD 
ENDROOT
BRANCH   3   6
HETATM    6  C   UNL     1     -10.801  12.271  68.836  1.00  0.00    -0.196 A  
HETATM    7  C   UNL     1     -11.300  11.396  69.803  1.00  0.00    -0.332 A  
HETATM    8  C   UNL     1     -11.190  10.012  69.651  1.00  0.00    -0.285 A  
HETATM    9  C   UNL     1     -10.599   9.479  68.511  1.00  0.00    -0.212 A  
HETATM   10  C   UNL     1     -10.163  11.727  67.713  1.00  0.00    -0.205 A  
HETATM   11  C   UNL     1     -10.054  10.336  67.553  1.00  0.00    -0.239 A  
BRANCH   9  12
HETATM   12  O   UNL     1     -10.522   8.091  68.232  1.00  0.00    -0.204 OA 
BRANCH  12  13
HETATM   13  C   UNL     1      -9.327   7.366  68.250  1.00  0.00    -0.140 C  
HETATM   14  O   UNL     1      -8.881   6.658  67.361  1.00  0.00    -0.117 OA 
BRANCH  13  15
HETATM   15  C   UNL     1      -8.608   7.609  69.527  1.00  0.00    -0.132 A  
HETATM   16  C   UNL     1      -7.713   8.688  69.644  1.00  0.00    -0.089 A  
HETATM   17  C   UNL     1      -7.066   8.944  70.857  1.00  0.00    -0.085 A  
HETATM   18  C   UNL     1      -7.310   8.139  71.967  1.00  0.00    -0.105 A  
HETATM   19  C   UNL     1      -8.204   7.077  71.871  1.00  0.00    -0.102 A  
HETATM   20  C   UNL     1      -8.834   6.798  70.649  1.00  0.00    -0.151 A  
BRANCH  20  21
HETATM   21  O   UNL     1      -9.780   5.754  70.618  1.00  0.00    -0.169 OA 
BRANCH  21  22
HETATM   22  C   UNL     1     -11.014   6.016  71.208  1.00  0.00    -0.278 C  
HETATM   23  O   UNL     1     -11.941   6.639  70.709  1.00  0.00    -0.382 OA 
HETATM   24  C   UNL     1     -11.088   5.321  72.535  1.00  0.00    -0.289 C  
ENDBRANCH  21  22
ENDBRANCH  20  21
ENDBRANCH  13  15
ENDBRANCH  12  13
ENDBRANCH   9  12
ENDBRANCH   3   6
TORSDOF 6
ENDMDL
MODEL      213
REMARK 921   NORMALIZED FREE ENERGY PREDICTED BY IDOCK:   -3.28 KCAL/MOL
REMARK 922        TOTAL FREE ENERGY PREDICTED BY IDOCK:   -5.90 KCAL/MOL
REMARK 923 INTER-LIGAND FREE ENERGY PREDICTED BY IDOCK:   -4.83 KCAL/MOL
REMARK 924 INTRA-LIGAND FREE ENERGY PREDICTED BY IDOCK:   -1.07 KCAL/MOL
REMARK 927      BINDING AFFINITY PREDICTED BY RF-SCORE:    0.00 PKD
ROOT
HETATM    1  C   UNL     1     -10.584   3.486  74.536  1.00  0.00    -0.177 C  
HETATM    2  C   UNL     1     -10.320   4.175  73.221  1.00  0.00    -0.164 C  
HETATM    3  N   UNL     1     -10.882   5.440  73.159  1.00  0.00    -0.262 N  
HETATM    4  O   UNL     1      -9.663   3.613  72.352  1.00  0.00    -0.135 OA 
HETATM    5  H   UNL     1     -11.392   5.755  73.984  1.00  0.00     0.000 HD 
ENDROOT
BRANCH   3   6
HETATM    6  C   UNL     1     -10.822   6.342  72.069  1.00  0.00    -0.245 A  
HETATM    7  C   UNL     1      -9.990   7.464  72.045  1.00  0.00    -0.196 A  
HETATM    8  C   UNL     1      -9.948   8.308  70.934  1.00  0.00    -0.223 A  
HETATM    9  C   UNL     1     -10.720   8.028  69.813  1.00  0.00    -0.231 A  
HETATM   10  C   UNL     1     -11.635   6.093  70.954  1.00  0.00    -0.259 A  
HETATM   11  C   UNL     1     -11.591   6.937  69.832  1.00  0.00    -0.255 A  
BRANCH   9  12
HETATM   12  O   UNL     1     -10.676   8.778  68.610  1.00  0.00    -0.175 OA 
BRANCH  12  13
HETATM   13  C   UNL     1     -10.582  10.171  68.573  1.00  0.00    -0.216 C  
HETATM   14  O   UNL     1     -11.384  10.976  69.019  1.00  0.00    -0.228 OA 
BRANCH  13  15
HETATM   15  C   UNL     1      -9.302  10.575  67.936  1.00  0.00    -0.150 A  
HETATM   16  C   UNL     1      -8.158  10.808  68.722  1.00  0.00    -0.143 A  
HETATM   17  C   UNL     1      -6.942  11.146  68.121  1.00  0.00    -0.069 A  
HETATM   18  C   UNL     1      -6.847  11.247  66.736  1.00  0.00    -0.140 A  
HETATM   19  C   UNL     1      -7.965  11.004  65.943  1.00  0.00    -0.054 A  
HETATM   20  C   UNL     1      -9.195  10.692  66.542  1.00  0.00    -0.166 A  
BRANCH  20  21
HETATM   21  O   UNL     1     -10.281  10.391  65.697  1.00  0.00    -0.267 OA 
BRANCH  21  22
HETATM   22  C   UNL     1     -10.731  11.419  64.873  1.00  0.00    -0.286 C  
HETATM   23  O   UNL     1     -10.483  11.560  63.683  1.00  0.00    -0.348 OA 
HETATM   24  C   UNL     1     -11.673  12.296  65.643  1.00  0.00    -0.440 C  
ENDBRANCH  21  22
ENDBRANCH  20  21
ENDBRANCH  13  15
ENDBRANCH  12  13
ENDBRANCH   9  12
ENDBRANCH   3   6
TORSDOF 6
ENDMDL
MODEL      214
REMARK 921   NORMALIZED FREE ENERGY PREDICTED BY IDOCK:   -3.27 KCAL/MOL
REMARK 922        TOTAL FREE ENERGY PREDICTED BY IDOCK:   -5.90 KCAL/MOL
REMARK 923 INTER-LIGAND FREE ENERGY PREDICTED BY IDOCK:   -5.22 KCAL/MOL
REMARK 924 INTRA-LIGAND FREE ENERGY PREDICTED BY IDOCK:   -0.68 KCAL/MOL
REMARK 927      BINDING AFFINITY PREDICTED BY RF-SCORE:    0.00 PKD
ROOT
HETATM    1  C   UNL     1     -10.162   7.808  67.035  1.00  0.00    -0.375 C  
HETATM    2  C   UNL     1     -10.277   9.309  67.122  1.00  0.00    -0.257 C  
HETATM    3  N   UNL     1      -9.209   9.888  67.789  1.00  0.00    -0.131 N  
HETATM    4  O   UNL     1     -11.239   9.882  66.624  1.00  0.00     0.177 OA 
HETATM    5  H   UNL     1      -8.487   9.256  68.132  1.00  0.00     0.000 HD 
ENDROOT
BRANCH   3   6
HETATM    6  C   UNL     1      -9.017  11.267  68.043  1.00  0.00    -0.156 A  
HETATM    7  C   UNL     1      -7.849  11.955  67.707  1.00  0.00    -0.138 A  
HETATM    8  C   UNL     1      -7.719  13.323  67.955  1.00  0.00    -0.152 A  
HETATM    9  C   UNL     1      -8.770  14.034  68.521  1.00  0.00    -0.156 A  
HETATM   10  C   UNL     1     -10.054  11.982  68.660  1.00  0.00    -0.170 A  
HETATM   11  C   UNL     1      -9.930  13.358  68.906  1.00  0.00     0.032 A  
BRANCH   9  12
HETATM   12  O   UNL     1      -8.760  15.437  68.728  1.00  0.00    -0.169 OA 
BRANCH  12  13
HETATM   13  C   UNL     1      -8.053  16.331  67.920  1.00  0.00    -0.146 C  
HETATM   14  O   UNL     1      -6.923  16.190  67.479  1.00  0.00    -0.136 OA 
BRANCH  13  15
HETATM   15  C   UNL     1      -8.901  17.510  67.609  1.00  0.00    -0.228 A  
HETATM   16  C   UNL     1      -8.803  18.681  68.384  1.00  0.00    -0.367 A  
HETATM   17  C   UNL     1      -9.569  19.807  68.068  1.00  0.00    -0.489 A  
HETATM   18  C   UNL     1     -10.431  19.785  66.974  1.00  0.00    -0.595 A  
HETATM   19  C   UNL     1     -10.527  18.640  66.188  1.00  0.00    -0.473 A  
HETATM   20  C   UNL     1      -9.782  17.498  66.519  1.00  0.00    -0.295 A  
BRANCH  20  21
HETATM   21  O   UNL     1      -9.863  16.387  65.656  1.00  0.00    -0.484 OA 
BRANCH  21  22
HETATM   22  C   UNL     1     -11.049  15.656  65.693  1.00  0.00    -0.194 C  
HETATM   23  O   UNL     1     -11.669  15.327  66.695  1.00  0.00    -0.140 OA 
HETATM   24  C   UNL     1     -11.528  15.414  64.293  1.00  0.00    -0.178 C  
ENDBRANCH  21  22
ENDBRANCH  20  21
ENDBRANCH  13  15
ENDBRANCH  12  13
ENDBRANCH   9  12
ENDBRANCH   3   6
TORSDOF 6
ENDMDL
MODEL      215
REMARK 921   NORMALIZED FREE ENERGY PREDICTED BY IDOCK:   -3.27 KCAL/MOL
REMARK 922        TOTAL FREE ENERGY PREDICTED BY IDOCK:   -5.89 KCAL/MOL
REMARK 923 INTER-LIGAND FREE ENERGY PREDICTED BY IDOCK:   -4.94 KCAL/MOL
REMARK 924 INTRA-LIGAND FREE ENERGY PREDICTED BY IDOCK:   -0.95 KCAL/MOL
REMARK 927      BINDING AFFINITY PREDICTED BY RF-SCORE:    0.00 PKD
ROOT
HETATM    1  C   UNL     1      -7.340   3.358  63.153  1.00  0.00    -0.053 C  
HETATM    2  C   UNL     1      -8.152   4.523  63.659  1.00  0.00    -0.098 C  
HETATM    3  N   UNL     1      -7.456   5.721  63.607  1.00  0.00    -0.063 N  
HETATM    4  O   UNL     1      -9.300   4.350  64.050  1.00  0.00    -0.153 OA 
HETATM    5  H   UNL     1      -6.505   5.682  63.242  1.00  0.00     0.000 HD 
ENDROOT
BRANCH   3   6
HETATM    6  C   UNL     1      -7.928   6.993  64.010  1.00  0.00    -0.075 A  
HETATM    7  C   UNL     1      -8.154   8.045  63.119  1.00  0.00    -0.114 A  
HETATM    8  C   UNL     1      -8.647   9.274  63.563  1.00  0.00    -0.201 A  
HETATM    9  C   UNL     1      -8.949   9.463  64.907  1.00  0.00    -0.209 A  
HETATM   10  C   UNL     1      -8.188   7.207  65.371  1.00  0.00    -0.137 A  
HETATM   11  C   UNL     1      -8.689   8.439  65.821  1.00  0.00    -0.199 A  
BRANCH   9  12
HETATM   12  O   UNL     1      -9.533  10.643  65.432  1.00  0.00    -0.189 OA 
BRANCH  12  13
HETATM   13  C   UNL     1      -8.988  11.365  66.497  1.00  0.00    -0.189 C  
HETATM   14  O   UNL     1      -7.851  11.800  66.588  1.00  0.00    -0.132 OA 
BRANCH  13  15
HETATM   15  C   UNL     1     -10.026  11.593  67.536  1.00  0.00    -0.202 A  
HETATM   16  C   UNL     1     -10.170  10.691  68.606  1.00  0.00    -0.196 A  
HETATM   17  C   UNL     1     -11.117  10.924  69.608  1.00  0.00    -0.328 A  
HETATM   18  C   UNL     1     -11.921  12.059  69.563  1.00  0.00    -0.346 A  
HETATM   19  C   UNL     1     -11.781  12.970  68.519  1.00  0.00    -0.377 A  
HETATM   20  C   UNL     1     -10.852  12.725  67.496  1.00  0.00    -0.239 A  
BRANCH  20  21
HETATM   21  O   UNL     1     -10.699  13.707  66.497  1.00  0.00    -0.282 OA 
BRANCH  21  22
HETATM   22  C   UNL     1     -11.675  13.739  65.503  1.00  0.00    -0.346 C  
HETATM   23  O   UNL     1     -12.484  12.857  65.248  1.00  0.00    -0.481 OA 
HETATM   24  C   UNL     1     -11.666  15.085  64.841  1.00  0.00    -0.336 C  
ENDBRANCH  21  22
ENDBRANCH  20  21
ENDBRANCH  13  15
ENDBRANCH  12  13
ENDBRANCH   9  12
ENDBRANCH   3   6
TORSDOF 6
ENDMDL
MODEL      216
REMARK 921   NORMALIZED FREE ENERGY PREDICTED BY IDOCK:   -3.26 KCAL/MOL
REMARK 922        TOTAL FREE ENERGY PREDICTED BY IDOCK:   -5.88 KCAL/MOL
REMARK 923 INTER-LIGAND FREE ENERGY PREDICTED BY IDOCK:   -5.24 KCAL/MOL
REMARK 924 INTRA-LIGAND FREE ENERGY PREDICTED BY IDOCK:   -0.64 KCAL/MOL
REMARK 927      BINDING AFFINITY PREDICTED BY RF-SCORE:    0.00 PKD
ROOT
HETATM    1  C   UNL     1     -14.142   8.912  72.376  1.00  0.00    -0.493 C  
HETATM    2  C   UNL     1     -13.251   9.951  71.744  1.00  0.00    -0.434 C  
HETATM    3  N   UNL     1     -12.644   9.499  70.583  1.00  0.00    -0.507 N  
HETATM    4  O   UNL     1     -13.133  11.057  72.260  1.00  0.00    -0.377 OA 
HETATM    5  H   UNL     1     -12.864   8.546  70.294  1.00  0.00     0.000 HD 
ENDROOT
BRANCH   3   6
HETATM    6  C   UNL     1     -11.751  10.222  69.758  1.00  0.00    -0.191 A  
HETATM    7  C   UNL     1     -12.153  11.265  68.919  1.00  0.00    -0.292 A  
HETATM    8  C   UNL     1     -11.228  11.966  68.143  1.00  0.00    -0.316 A  
HETATM    9  C   UNL     1      -9.875  11.652  68.214  1.00  0.00    -0.199 A  
HETATM   10  C   UNL     1     -10.392   9.878  69.785  1.00  0.00    -0.278 A  
HETATM   11  C   UNL     1      -9.457  10.584  69.011  1.00  0.00    -0.211 A  
BRANCH   9  12
HETATM   12  O   UNL     1      -8.857  12.364  67.531  1.00  0.00    -0.165 OA 
BRANCH  12  13
HETATM   13  C   UNL     1      -8.077  11.809  66.512  1.00  0.00    -0.035 C  
HETATM   14  O   UNL     1      -6.903  11.483  66.578  1.00  0.00    -0.111 OA 
BRANCH  13  15
HETATM   15  C   UNL     1      -8.904  11.612  65.293  1.00  0.00     0.231 A  
HETATM   16  C   UNL     1      -9.834  12.590  64.899  1.00  0.00    -0.095 A  
HETATM   17  C   UNL     1     -10.583  12.426  63.730  1.00  0.00    -0.486 A  
HETATM   18  C   UNL     1     -10.408  11.296  62.937  1.00  0.00    -0.138 A  
HETATM   19  C   UNL     1      -9.480  10.325  63.305  1.00  0.00    -0.342 A  
HETATM   20  C   UNL     1      -8.747  10.472  64.492  1.00  0.00    -0.180 A  
BRANCH  20  21
HETATM   21  O   UNL     1      -7.773   9.497  64.789  1.00  0.00    -0.110 OA 
BRANCH  21  22
HETATM   22  C   UNL     1      -8.244   8.259  65.219  1.00  0.00    -0.148 C  
HETATM   23  O   UNL     1      -7.743   7.168  64.983  1.00  0.00    -0.100 OA 
HETATM   24  C   UNL     1      -9.422   8.463  66.124  1.00  0.00    -0.263 C  
ENDBRANCH  21  22
ENDBRANCH  20  21
ENDBRANCH  13  15
ENDBRANCH  12  13
ENDBRANCH   9  12
ENDBRANCH   3   6
TORSDOF 6
ENDMDL
MODEL      217
REMARK 921   NORMALIZED FREE ENERGY PREDICTED BY IDOCK:   -3.25 KCAL/MOL
REMARK 922        TOTAL FREE ENERGY PREDICTED BY IDOCK:   -5.87 KCAL/MOL
REMARK 923 INTER-LIGAND FREE ENERGY PREDICTED BY IDOCK:   -4.89 KCAL/MOL
REMARK 924 INTRA-LIGAND FREE ENERGY PREDICTED BY IDOCK:   -0.98 KCAL/MOL
REMARK 927      BINDING AFFINITY PREDICTED BY RF-SCORE:    0.00 PKD
ROOT
HETATM    1  C   UNL     1     -10.568  20.301  66.141  1.00  0.00    -0.243 C  
HETATM    2  C   UNL     1     -10.418  18.801  66.184  1.00  0.00    -0.446 C  
HETATM    3  N   UNL     1      -9.812  18.358  67.349  1.00  0.00    -0.303 N  
HETATM    4  O   UNL     1     -10.821  18.115  65.252  1.00  0.00    -0.628 OA 
HETATM    5  H   UNL     1      -9.547  19.074  68.027  1.00  0.00     0.000 HD 
ENDROOT
BRANCH   3   6
HETATM    6  C   UNL     1      -9.522  17.018  67.697  1.00  0.00    -0.236 A  
HETATM    7  C   UNL     1     -10.475  16.133  68.207  1.00  0.00    -0.276 A  
HETATM    8  C   UNL     1     -10.145  14.811  68.510  1.00  0.00    -0.230 A  
HETATM    9  C   UNL     1      -8.857  14.342  68.281  1.00  0.00    -0.185 A  
HETATM   10  C   UNL     1      -8.212  16.551  67.516  1.00  0.00    -0.170 A  
HETATM   11  C   UNL     1      -7.877  15.220  67.814  1.00  0.00    -0.161 A  
BRANCH   9  12
HETATM   12  O   UNL     1      -8.455  12.996  68.476  1.00  0.00    -0.138 OA 
BRANCH  12  13
HETATM   13  C   UNL     1      -7.817  12.231  67.496  1.00  0.00    -0.166 C  
HETATM   14  O   UNL     1      -6.621  12.001  67.403  1.00  0.00    -0.105 OA 
BRANCH  13  15
HETATM   15  C   UNL     1      -8.823  11.667  66.560  1.00  0.00    -0.188 A  
HETATM   16  C   UNL     1      -9.457  12.493  65.615  1.00  0.00    -0.014 A  
HETATM   17  C   UNL     1     -10.374  11.956  64.705  1.00  0.00    -0.323 A  
HETATM   18  C   UNL     1     -10.661  10.594  64.719  1.00  0.00    -0.184 A  
HETATM   19  C   UNL     1     -10.030   9.760  65.638  1.00  0.00    -0.352 A  
HETATM   20  C   UNL     1      -9.132  10.299  66.572  1.00  0.00    -0.148 A  
BRANCH  20  21
HETATM   21  O   UNL     1      -8.469   9.407  67.438  1.00  0.00    -0.124 OA 
BRANCH  21  22
HETATM   22  C   UNL     1      -7.845   8.312  66.845  1.00  0.00    -0.096 C  
HETATM   23  O   UNL     1      -8.261   7.161  66.821  1.00  0.00    -0.110 OA 
HETATM   24  C   UNL     1      -6.611   8.772  66.128  1.00  0.00    -0.065 C  
ENDBRANCH  21  22
ENDBRANCH  20  21
ENDBRANCH  13  15
ENDBRANCH  12  13
ENDBRANCH   9  12
ENDBRANCH   3   6
TORSDOF 6
ENDMDL
MODEL      218
REMARK 921   NORMALIZED FREE ENERGY PREDICTED BY IDOCK:   -3.23 KCAL/MOL
REMARK 922        TOTAL FREE ENERGY PREDICTED BY IDOCK:   -5.84 KCAL/MOL
REMARK 923 INTER-LIGAND FREE ENERGY PREDICTED BY IDOCK:   -4.70 KCAL/MOL
REMARK 924 INTRA-LIGAND FREE ENERGY PREDICTED BY IDOCK:   -1.14 KCAL/MOL
REMARK 927      BINDING AFFINITY PREDICTED BY RF-SCORE:    0.00 PKD
ROOT
HETATM    1  C   UNL     1     -11.027   2.517  63.009  1.00  0.00    -0.222 C  
HETATM    2  C   UNL     1      -9.982   3.060  63.951  1.00  0.00    -0.164 C  
HETATM    3  N   UNL     1     -10.518   3.897  64.917  1.00  0.00    -0.454 N  
HETATM    4  O   UNL     1      -8.806   2.743  63.815  1.00  0.00    -0.092 OA 
HETATM    5  H   UNL     1     -11.527   4.044  64.886  1.00  0.00     0.000 HD 
ENDROOT
BRANCH   3   6
HETATM    6  C   UNL     1      -9.811   4.569  65.943  1.00  0.00    -0.226 A  
HETATM    7  C   UNL     1      -9.084   5.743  65.733  1.00  0.00    -0.122 A  
HETATM    8  C   UNL     1      -8.425   6.383  66.784  1.00  0.00    -0.112 A  
HETATM    9  C   UNL     1      -8.504   5.871  68.074  1.00  0.00    -0.110 A  
HETATM   10  C   UNL     1      -9.845   4.031  67.237  1.00  0.00    -0.132 A  
HETATM   11  C   UNL     1      -9.188   4.674  68.299  1.00  0.00    -0.166 A  
BRANCH   9  12
HETATM   12  O   UNL     1      -7.942   6.499  69.214  1.00  0.00    -0.108 OA 
BRANCH  12  13
HETATM   13  C   UNL     1      -8.704   7.007  70.270  1.00  0.00    -0.144 C  
HETATM   14  O   UNL     1      -8.819   6.535  71.390  1.00  0.00    -0.137 OA 
BRANCH  13  15
HETATM   15  C   UNL     1      -9.352   8.279  69.859  1.00  0.00    -0.159 A  
HETATM   16  C   UNL     1      -8.590   9.311  69.281  1.00  0.00    -0.139 A  
HETATM   17  C   UNL     1      -9.204  10.493  68.856  1.00  0.00    -0.188 A  
HETATM   18  C   UNL     1     -10.580  10.657  68.990  1.00  0.00    -0.249 A  
HETATM   19  C   UNL     1     -11.350   9.639  69.545  1.00  0.00    -0.080 A  
HETATM   20  C   UNL     1     -10.735   8.463  70.000  1.00  0.00    -0.236 A  
BRANCH  20  21
HETATM   21  O   UNL     1     -11.563   7.436  70.494  1.00  0.00    -0.283 OA 
BRANCH  21  22
HETATM   22  C   UNL     1     -12.208   7.684  71.704  1.00  0.00    -0.317 C  
HETATM   23  O   UNL     1     -11.689   8.095  72.733  1.00  0.00    -0.403 OA 
HETATM   24  C   UNL     1     -13.682   7.473  71.534  1.00  0.00    -0.460 C  
ENDBRANCH  21  22
ENDBRANCH  20  21
ENDBRANCH  13  15
ENDBRANCH  12  13
ENDBRANCH   9  12
ENDBRANCH   3   6
TORSDOF 6
ENDMDL
MODEL      219
REMARK 921   NORMALIZED FREE ENERGY PREDICTED BY IDOCK:   -3.22 KCAL/MOL
REMARK 922        TOTAL FREE ENERGY PREDICTED BY IDOCK:   -5.83 KCAL/MOL
REMARK 923 INTER-LIGAND FREE ENERGY PREDICTED BY IDOCK:   -4.62 KCAL/MOL
REMARK 924 INTRA-LIGAND FREE ENERGY PREDICTED BY IDOCK:   -1.21 KCAL/MOL
REMARK 927      BINDING AFFINITY PREDICTED BY RF-SCORE:    0.00 PKD
ROOT
HETATM    1  C   UNL     1      -5.704  10.588  65.080  1.00  0.00    -0.137 C  
HETATM    2  C   UNL     1      -6.549  10.060  66.212  1.00  0.00    -0.085 C  
HETATM    3  N   UNL     1      -7.484   9.128  65.790  1.00  0.00    -0.090 N  
HETATM    4  O   UNL     1      -6.362  10.456  67.357  1.00  0.00    -0.057 OA 
HETATM    5  H   UNL     1      -7.494   8.909  64.794  1.00  0.00     0.000 HD 
ENDROOT
BRANCH   3   6
HETATM    6  C   UNL     1      -8.427   8.449  66.597  1.00  0.00    -0.111 A  
HETATM    7  C   UNL     1      -9.693   8.960  66.894  1.00  0.00    -0.263 A  
HETATM    8  C   UNL     1     -10.599   8.238  67.674  1.00  0.00    -0.264 A  
HETATM    9  C   UNL     1     -10.262   6.976  68.150  1.00  0.00    -0.181 A  
HETATM   10  C   UNL     1      -8.076   7.198  67.123  1.00  0.00    -0.114 A  
HETATM   11  C   UNL     1      -8.986   6.466  67.903  1.00  0.00    -0.114 A  
BRANCH   9  12
HETATM   12  O   UNL     1     -11.147   6.138  68.874  1.00  0.00    -0.349 OA 
BRANCH  12  13
HETATM   13  C   UNL     1     -11.385   6.268  70.245  1.00  0.00    -0.388 C  
HETATM   14  O   UNL     1     -12.300   6.874  70.779  1.00  0.00    -0.376 OA 
BRANCH  13  15
HETATM   15  C   UNL     1     -10.367   5.503  71.010  1.00  0.00    -0.307 A  
HETATM   16  C   UNL     1     -10.008   4.202  70.611  1.00  0.00    -0.185 A  
HETATM   17  C   UNL     1      -9.020   3.495  71.304  1.00  0.00    -0.158 A  
HETATM   18  C   UNL     1      -8.373   4.077  72.391  1.00  0.00    -0.099 A  
HETATM   19  C   UNL     1      -8.705   5.369  72.788  1.00  0.00    -0.123 A  
HETATM   20  C   UNL     1      -9.716   6.071  72.114  1.00  0.00    -0.154 A  
BRANCH  20  21
HETATM   21  O   UNL     1      -9.971   7.399  72.510  1.00  0.00    -0.168 OA 
BRANCH  21  22
HETATM   22  C   UNL     1      -8.913   8.297  72.393  1.00  0.00    -0.228 C  
HETATM   23  O   UNL     1      -8.129   8.617  73.277  1.00  0.00    -0.408 OA 
HETATM   24  C   UNL     1      -8.800   8.748  70.968  1.00  0.00    -0.260 C  
ENDBRANCH  21  22
ENDBRANCH  20  21
ENDBRANCH  13  15
ENDBRANCH  12  13
ENDBRANCH   9  12
ENDBRANCH   3   6
TORSDOF 6
ENDMDL
MODEL      220
REMARK 921   NORMALIZED FREE ENERGY PREDICTED BY IDOCK:   -3.20 KCAL/MOL
REMARK 922        TOTAL FREE ENERGY PREDICTED BY IDOCK:   -5.80 KCAL/MOL
REMARK 923 INTER-LIGAND FREE ENERGY PREDICTED BY IDOCK:   -5.52 KCAL/MOL
REMARK 924 INTRA-LIGAND FREE ENERGY PREDICTED BY IDOCK:   -0.27 KCAL/MOL
REMARK 927      BINDING AFFINITY PREDICTED BY RF-SCORE:    0.00 PKD
ROOT
HETATM    1  C   UNL     1     -11.975  15.448  64.421  1.00  0.00    -0.235 C  
HETATM    2  C   UNL     1     -11.941  13.945  64.532  1.00  0.00    -0.437 C  
HETATM    3  N   UNL     1     -10.768  13.479  65.105  1.00  0.00    -0.323 N  
HETATM    4  O   UNL     1     -12.890  13.277  64.140  1.00  0.00    -0.640 OA 
HETATM    5  H   UNL     1     -10.084  14.182  65.383  1.00  0.00     0.000 HD 
ENDROOT
BRANCH   3   6
HETATM    6  C   UNL     1     -10.422  12.128  65.346  1.00  0.00    -0.270 A  
HETATM    7  C   UNL     1      -9.751  11.330  64.417  1.00  0.00    -0.293 A  
HETATM    8  C   UNL     1      -9.407  10.009  64.712  1.00  0.00    -0.330 A  
HETATM    9  C   UNL     1      -9.707   9.471  65.959  1.00  0.00    -0.272 A  
HETATM   10  C   UNL     1     -10.765  11.562  66.582  1.00  0.00    -0.311 A  
HETATM   11  C   UNL     1     -10.416  10.237  66.886  1.00  0.00    -0.291 A  
BRANCH   9  12
HETATM   12  O   UNL     1      -9.321   8.172  66.377  1.00  0.00    -0.187 OA 
BRANCH  12  13
HETATM   13  C   UNL     1      -9.477   7.705  67.685  1.00  0.00    -0.142 C  
HETATM   14  O   UNL     1     -10.292   6.888  68.083  1.00  0.00    -0.170 OA 
BRANCH  13  15
HETATM   15  C   UNL     1      -8.450   8.318  68.567  1.00  0.00    -0.126 A  
HETATM   16  C   UNL     1      -7.267   8.847  68.019  1.00  0.00    -0.083 A  
HETATM   17  C   UNL     1      -6.318   9.462  68.842  1.00  0.00    -0.043 A  
HETATM   18  C   UNL     1      -6.539   9.566  70.212  1.00  0.00    -0.077 A  
HETATM   19  C   UNL     1      -7.712   9.061  70.768  1.00  0.00    -0.144 A  
HETATM   20  C   UNL     1      -8.654   8.417  69.950  1.00  0.00    -0.131 A  
BRANCH  20  21
HETATM   21  O   UNL     1      -9.853   7.981  70.547  1.00  0.00    -0.181 OA 
BRANCH  21  22
HETATM   22  C   UNL     1     -10.530   8.910  71.334  1.00  0.00    -0.305 C  
HETATM   23  O   UNL     1     -11.036   9.957  70.951  1.00  0.00    -0.319 OA 
HETATM   24  C   UNL     1     -10.646   8.385  72.733  1.00  0.00    -0.212 C  
ENDBRANCH  21  22
ENDBRANCH  20  21
ENDBRANCH  13  15
ENDBRANCH  12  13
ENDBRANCH   9  12
ENDBRANCH   3   6
TORSDOF 6
ENDMDL
MODEL      221
REMARK 921   NORMALIZED FREE ENERGY PREDICTED BY IDOCK:   -3.19 KCAL/MOL
REMARK 922        TOTAL FREE ENERGY PREDICTED BY IDOCK:   -5.78 KCAL/MOL
REMARK 923 INTER-LIGAND FREE ENERGY PREDICTED BY IDOCK:   -5.19 KCAL/MOL
REMARK 924 INTRA-LIGAND FREE ENERGY PREDICTED BY IDOCK:   -0.59 KCAL/MOL
REMARK 927      BINDING AFFINITY PREDICTED BY RF-SCORE:    0.00 PKD
ROOT
HETATM    1  C   UNL     1      -9.803  19.869  68.180  1.00  0.00    -0.524 C  
HETATM    2  C   UNL     1     -10.257  18.627  67.455  1.00  0.00    -0.384 C  
HETATM    3  N   UNL     1      -9.726  17.468  67.998  1.00  0.00    -0.277 N  
HETATM    4  O   UNL     1     -11.020  18.717  66.500  1.00  0.00    -0.160 OA 
HETATM    5  H   UNL     1      -9.111  17.580  68.804  1.00  0.00     0.000 HD 
ENDROOT
BRANCH   3   6
HETATM    6  C   UNL     1      -9.949  16.144  67.550  1.00  0.00    -0.243 A  
HETATM    7  C   UNL     1     -10.369  15.110  68.390  1.00  0.00    -0.229 A  
HETATM    8  C   UNL     1     -10.601  13.826  67.895  1.00  0.00    -0.257 A  
HETATM    9  C   UNL     1     -10.442  13.559  66.540  1.00  0.00    -0.284 A  
HETATM   10  C   UNL     1      -9.743  15.856  66.194  1.00  0.00    -0.351 A  
HETATM   11  C   UNL     1      -9.980  14.567  65.690  1.00  0.00    -0.376 A  
BRANCH   9  12
HETATM   12  O   UNL     1     -10.738  12.312  65.935  1.00  0.00    -0.246 OA 
BRANCH  12  13
HETATM   13  C   UNL     1      -9.769  11.480  65.367  1.00  0.00    -0.233 C  
HETATM   14  O   UNL     1      -9.688  11.132  64.200  1.00  0.00    -0.240 OA 
BRANCH  13  15
HETATM   15  C   UNL     1      -8.772  11.089  66.397  1.00  0.00    -0.174 A  
HETATM   16  C   UNL     1      -7.547  11.774  66.498  1.00  0.00     0.072 A  
HETATM   17  C   UNL     1      -6.625  11.436  67.493  1.00  0.00    -0.078 A  
HETATM   18  C   UNL     1      -6.914  10.423  68.403  1.00  0.00    -0.069 A  
HETATM   19  C   UNL     1      -8.128   9.746  68.327  1.00  0.00    -0.104 A  
HETATM   20  C   UNL     1      -9.044  10.062  67.312  1.00  0.00    -0.138 A  
BRANCH  20  21
HETATM   21  O   UNL     1     -10.286   9.395  67.316  1.00  0.00    -0.212 OA 
BRANCH  21  22
HETATM   22  C   UNL     1     -10.502   8.491  68.352  1.00  0.00    -0.171 C  
HETATM   23  O   UNL     1     -10.726   8.766  69.523  1.00  0.00    -0.228 OA 
HETATM   24  C   UNL     1     -10.527   7.097  67.798  1.00  0.00    -0.284 C  
ENDBRANCH  21  22
ENDBRANCH  20  21
ENDBRANCH  13  15
ENDBRANCH  12  13
ENDBRANCH   9  12
ENDBRANCH   3   6
TORSDOF 6
ENDMDL
MODEL      222
REMARK 921   NORMALIZED FREE ENERGY PREDICTED BY IDOCK:   -3.13 KCAL/MOL
REMARK 922        TOTAL FREE ENERGY PREDICTED BY IDOCK:   -5.70 KCAL/MOL
REMARK 923 INTER-LIGAND FREE ENERGY PREDICTED BY IDOCK:   -4.86 KCAL/MOL
REMARK 924 INTRA-LIGAND FREE ENERGY PREDICTED BY IDOCK:   -0.84 KCAL/MOL
REMARK 927      BINDING AFFINITY PREDICTED BY RF-SCORE:    0.00 PKD
ROOT
HETATM    1  C   UNL     1      -9.192  19.297  67.396  1.00  0.00    -0.356 C  
HETATM    2  C   UNL     1      -8.984  17.861  66.985  1.00  0.00    -0.250 C  
HETATM    3  N   UNL     1      -9.342  16.964  67.978  1.00  0.00    -0.234 N  
HETATM    4  O   UNL     1      -8.548  17.597  65.870  1.00  0.00    -0.526 OA 
HETATM    5  H   UNL     1      -9.698  17.362  68.847  1.00  0.00     0.000 HD 
ENDROOT
BRANCH   3   6
HETATM    6  C   UNL     1      -9.266  15.552  67.912  1.00  0.00    -0.187 A  
HETATM    7  C   UNL     1     -10.388  14.726  67.814  1.00  0.00    -0.244 A  
HETATM    8  C   UNL     1     -10.258  13.339  67.725  1.00  0.00    -0.228 A  
HETATM    9  C   UNL     1      -8.997  12.754  67.705  1.00  0.00    -0.190 A  
HETATM   10  C   UNL     1      -7.999  14.952  67.942  1.00  0.00    -0.145 A  
HETATM   11  C   UNL     1      -7.863  13.558  67.847  1.00  0.00    -0.159 A  
BRANCH   9  12
HETATM   12  O   UNL     1      -8.767  11.366  67.530  1.00  0.00    -0.135 OA 
BRANCH  12  13
HETATM   13  C   UNL     1      -9.750  10.469  67.101  1.00  0.00    -0.171 C  
HETATM   14  O   UNL     1     -10.611   9.939  67.784  1.00  0.00    -0.226 OA 
BRANCH  13  15
HETATM   15  C   UNL     1      -9.643  10.266  65.633  1.00  0.00    -0.289 A  
HETATM   16  C   UNL     1     -10.241  11.178  64.744  1.00  0.00    -0.365 A  
HETATM   17  C   UNL     1     -10.106  11.013  63.362  1.00  0.00    -0.424 A  
HETATM   18  C   UNL     1      -9.369   9.948  62.851  1.00  0.00    -0.232 A  
HETATM   19  C   UNL     1      -8.759   9.046  63.718  1.00  0.00    -0.100 A  
HETATM   20  C   UNL     1      -8.915   9.191  65.105  1.00  0.00    -0.189 A  
BRANCH  20  21
HETATM   21  O   UNL     1      -8.224   8.292  65.942  1.00  0.00    -0.106 OA 
BRANCH  21  22
HETATM   22  C   UNL     1      -8.254   6.950  65.572  1.00  0.00    -0.135 C  
HETATM   23  O   UNL     1      -9.253   6.259  65.418  1.00  0.00     0.077 OA 
HETATM   24  C   UNL     1      -6.859   6.485  65.277  1.00  0.00    -0.047 C  
ENDBRANCH  21  22
ENDBRANCH  20  21
ENDBRANCH  13  15
ENDBRANCH  12  13
ENDBRANCH   9  12
ENDBRANCH   3   6
TORSDOF 6
ENDMDL
MODEL      223
REMARK 921   NORMALIZED FREE ENERGY PREDICTED BY IDOCK:   -3.12 KCAL/MOL
REMARK 922        TOTAL FREE ENERGY PREDICTED BY IDOCK:   -5.70 KCAL/MOL
REMARK 923 INTER-LIGAND FREE ENERGY PREDICTED BY IDOCK:   -6.08 KCAL/MOL
REMARK 924 INTRA-LIGAND FREE ENERGY PREDICTED BY IDOCK:    0.38 KCAL/MOL
REMARK 927      BINDING AFFINITY PREDICTED BY RF-SCORE:    0.00 PKD
ROOT
HETATM    1  C   UNL     1     -12.503  11.846  63.153  1.00  0.00    -0.363 C  
HETATM    2  C   UNL     1     -12.320  12.619  64.435  1.00  0.00    -0.446 C  
HETATM    3  N   UNL     1     -10.986  12.830  64.745  1.00  0.00    -0.292 N  
HETATM    4  O   UNL     1     -13.297  12.993  65.073  1.00  0.00    -0.671 OA 
HETATM    5  H   UNL     1     -10.299  12.454  64.090  1.00  0.00     0.000 HD 
ENDROOT
BRANCH   3   6
HETATM    6  C   UNL     1     -10.477  13.514  65.874  1.00  0.00    -0.292 A  
HETATM    7  C   UNL     1      -9.970  12.863  67.002  1.00  0.00    -0.244 A  
HETATM    8  C   UNL     1      -9.453  13.583  68.080  1.00  0.00    -0.214 A  
HETATM    9  C   UNL     1      -9.410  14.972  68.038  1.00  0.00    -0.185 A  
HETATM   10  C   UNL     1     -10.475  14.916  65.860  1.00  0.00    -0.327 A  
HETATM   11  C   UNL     1      -9.952  15.644  66.941  1.00  0.00    -0.252 A  
BRANCH   9  12
HETATM   12  O   UNL     1      -8.826  15.779  69.046  1.00  0.00    -0.202 OA 
BRANCH  12  13
HETATM   13  C   UNL     1      -7.446  15.934  69.208  1.00  0.00    -0.219 C  
HETATM   14  O   UNL     1      -6.707  15.263  69.910  1.00  0.00    -0.173 OA 
BRANCH  13  15
HETATM   15  C   UNL     1      -6.957  17.039  68.344  1.00  0.00    -0.180 A  
HETATM   16  C   UNL     1      -5.646  17.016  67.834  1.00  0.00    -0.130 A  
HETATM   17  C   UNL     1      -5.196  18.033  66.986  1.00  0.00    -0.144 A  
HETATM   18  C   UNL     1      -6.046  19.076  66.630  1.00  0.00    -0.179 A  
HETATM   19  C   UNL     1      -7.351  19.106  67.113  1.00  0.00    -0.227 A  
HETATM   20  C   UNL     1      -7.798  18.103  67.987  1.00  0.00    -0.261 A  
BRANCH  20  21
HETATM   21  O   UNL     1      -9.145  18.140  68.398  1.00  0.00    -0.294 OA 
BRANCH  21  22
HETATM   22  C   UNL     1      -9.692  19.401  68.622  1.00  0.00    -0.433 C  
HETATM   23  O   UNL     1      -9.344  20.204  69.477  1.00  0.00     0.184 OA 
HETATM   24  C   UNL     1     -10.724  19.689  67.572  1.00  0.00    -0.537 C  
ENDBRANCH  21  22
ENDBRANCH  20  21
ENDBRANCH  13  15
ENDBRANCH  12  13
ENDBRANCH   9  12
ENDBRANCH   3   6
TORSDOF 6
ENDMDL
MODEL      224
REMARK 921   NORMALIZED FREE ENERGY PREDICTED BY IDOCK:   -3.12 KCAL/MOL
REMARK 922        TOTAL FREE ENERGY PREDICTED BY IDOCK:   -5.69 KCAL/MOL
REMARK 923 INTER-LIGAND FREE ENERGY PREDICTED BY IDOCK:   -4.59 KCAL/MOL
REMARK 924 INTRA-LIGAND FREE ENERGY PREDICTED BY IDOCK:   -1.10 KCAL/MOL
REMARK 927      BINDING AFFINITY PREDICTED BY RF-SCORE:    0.00 PKD
ROOT
HETATM    1  C   UNL     1     -10.706  16.332  68.780  1.00  0.00    -0.309 C  
HETATM    2  C   UNL     1     -10.106  14.998  68.418  1.00  0.00    -0.225 C  
HETATM    3  N   UNL     1     -11.045  13.979  68.394  1.00  0.00    -0.243 N  
HETATM    4  O   UNL     1      -8.908  14.907  68.176  1.00  0.00    -0.165 OA 
HETATM    5  H   UNL     1     -12.007  14.238  68.613  1.00  0.00     0.000 HD 
ENDROOT
BRANCH   3   6
HETATM    6  C   UNL     1     -10.809  12.616  68.096  1.00  0.00    -0.227 A  
HETATM    7  C   UNL     1     -10.283  11.708  69.018  1.00  0.00    -0.077 A  
HETATM    8  C   UNL     1     -10.094  10.366  68.684  1.00  0.00    -0.188 A  
HETATM    9  C   UNL     1     -10.453   9.901  67.424  1.00  0.00    -0.267 A  
HETATM   10  C   UNL     1     -11.122  12.150  66.811  1.00  0.00    -0.349 A  
HETATM   11  C   UNL     1     -10.939  10.800  66.472  1.00  0.00    -0.143 A  
BRANCH   9  12
HETATM   12  O   UNL     1     -10.378   8.542  67.026  1.00  0.00    -0.275 OA 
BRANCH  12  13
HETATM   13  C   UNL     1      -9.177   7.838  66.909  1.00  0.00    -0.152 C  
HETATM   14  O   UNL     1      -8.095   8.280  66.556  1.00  0.00    -0.101 OA 
BRANCH  13  15
HETATM   15  C   UNL     1      -9.374   6.428  67.333  1.00  0.00    -0.119 A  
HETATM   16  C   UNL     1      -9.504   5.409  66.371  1.00  0.00    -0.164 A  
HETATM   17  C   UNL     1      -9.648   4.075  66.767  1.00  0.00    -0.234 A  
HETATM   18  C   UNL     1      -9.654   3.740  68.118  1.00  0.00    -0.176 A  
HETATM   19  C   UNL     1      -9.511   4.735  69.081  1.00  0.00    -0.215 A  
HETATM   20  C   UNL     1      -9.395   6.078  68.690  1.00  0.00    -0.117 A  
BRANCH  20  21
HETATM   21  O   UNL     1      -9.186   7.041  69.698  1.00  0.00    -0.147 OA 
BRANCH  21  22
HETATM   22  C   UNL     1     -10.304   7.419  70.437  1.00  0.00    -0.209 C  
HETATM   23  O   UNL     1     -11.475   7.236  70.130  1.00  0.00    -0.248 OA 
HETATM   24  C   UNL     1      -9.861   8.003  71.745  1.00  0.00    -0.240 C  
ENDBRANCH  21  22
ENDBRANCH  20  21
ENDBRANCH  13  15
ENDBRANCH  12  13
ENDBRANCH   9  12
ENDBRANCH   3   6
TORSDOF 6
ENDMDL
MODEL      225
REMARK 921   NORMALIZED FREE ENERGY PREDICTED BY IDOCK:   -3.12 KCAL/MOL
REMARK 922        TOTAL FREE ENERGY PREDICTED BY IDOCK:   -5.69 KCAL/MOL
REMARK 923 INTER-LIGAND FREE ENERGY PREDICTED BY IDOCK:   -5.49 KCAL/MOL
REMARK 924 INTRA-LIGAND FREE ENERGY PREDICTED BY IDOCK:   -0.20 KCAL/MOL
REMARK 927      BINDING AFFINITY PREDICTED BY RF-SCORE:    0.00 PKD
ROOT
HETATM    1  C   UNL     1     -10.596   4.490  74.470  1.00  0.00    -0.236 C  
HETATM    2  C   UNL     1     -10.096   5.366  73.349  1.00  0.00    -0.183 C  
HETATM    3  N   UNL     1     -10.657   6.633  73.370  1.00  0.00    -0.292 N  
HETATM    4  O   UNL     1      -9.274   4.932  72.550  1.00  0.00    -0.131 OA 
HETATM    5  H   UNL     1     -11.322   6.826  74.119  1.00  0.00     0.000 HD 
ENDROOT
BRANCH   3   6
HETATM    6  C   UNL     1     -10.404   7.686  72.459  1.00  0.00    -0.255 A  
HETATM    7  C   UNL     1      -9.130   7.998  71.981  1.00  0.00    -0.217 A  
HETATM    8  C   UNL     1      -8.935   9.031  71.062  1.00  0.00    -0.304 A  
HETATM    9  C   UNL     1     -10.022   9.755  70.583  1.00  0.00    -0.146 A  
HETATM   10  C   UNL     1     -11.488   8.453  72.010  1.00  0.00    -0.418 A  
HETATM   11  C   UNL     1     -11.299   9.489  71.082  1.00  0.00    -0.440 A  
BRANCH   9  12
HETATM   12  O   UNL     1      -9.930  10.760  69.587  1.00  0.00    -0.130 OA 
BRANCH  12  13
HETATM   13  C   UNL     1     -11.043  11.325  68.957  1.00  0.00    -0.244 C  
HETATM   14  O   UNL     1     -11.943  10.734  68.382  1.00  0.00    -0.508 OA 
BRANCH  13  15
HETATM   15  C   UNL     1     -11.020  12.801  69.120  1.00  0.00    -0.185 A  
HETATM   16  C   UNL     1     -11.936  13.436  69.980  1.00  0.00    -0.407 A  
HETATM   17  C   UNL     1     -11.890  14.820  70.167  1.00  0.00    -0.360 A  
HETATM   18  C   UNL     1     -10.929  15.586  69.513  1.00  0.00    -0.273 A  
HETATM   19  C   UNL     1     -10.005  14.972  68.672  1.00  0.00    -0.220 A  
HETATM   20  C   UNL     1     -10.066  13.586  68.458  1.00  0.00    -0.215 A  
BRANCH  20  21
HETATM   21  O   UNL     1      -9.070  13.001  67.650  1.00  0.00    -0.179 OA 
BRANCH  21  22
HETATM   22  C   UNL     1      -7.771  13.026  68.150  1.00  0.00    -0.143 C  
HETATM   23  O   UNL     1      -7.427  13.395  69.266  1.00  0.00     0.071 OA 
HETATM   24  C   UNL     1      -6.838  12.424  67.142  1.00  0.00    -0.077 C  
ENDBRANCH  21  22
ENDBRANCH  20  21
ENDBRANCH  13  15
ENDBRANCH  12  13
ENDBRANCH   9  12
ENDBRANCH   3   6
TORSDOF 6
ENDMDL
MODEL      226
REMARK 921   NORMALIZED FREE ENERGY PREDICTED BY IDOCK:   -3.11 KCAL/MOL
REMARK 922        TOTAL FREE ENERGY PREDICTED BY IDOCK:   -5.68 KCAL/MOL
REMARK 923 INTER-LIGAND FREE ENERGY PREDICTED BY IDOCK:   -4.71 KCAL/MOL
REMARK 924 INTRA-LIGAND FREE ENERGY PREDICTED BY IDOCK:   -0.97 KCAL/MOL
REMARK 927      BINDING AFFINITY PREDICTED BY RF-SCORE:    0.00 PKD
ROOT
HETATM    1  C   UNL     1     -10.471  17.371  68.452  1.00  0.00    -0.384 C  
HETATM    2  C   UNL     1     -10.576  15.960  68.971  1.00  0.00    -0.247 C  
HETATM    3  N   UNL     1     -10.435  15.011  67.970  1.00  0.00    -0.240 N  
HETATM    4  O   UNL     1     -10.761  15.755  70.165  1.00  0.00    -0.308 OA 
HETATM    5  H   UNL     1     -10.277  15.363  67.026  1.00  0.00     0.000 HD 
ENDROOT
BRANCH   3   6
HETATM    6  C   UNL     1     -10.488  13.605  68.122  1.00  0.00    -0.247 A  
HETATM    7  C   UNL     1     -11.630  12.920  68.543  1.00  0.00    -0.358 A  
HETATM    8  C   UNL     1     -11.639  11.528  68.651  1.00  0.00    -0.375 A  
HETATM    9  C   UNL     1     -10.508  10.793  68.313  1.00  0.00    -0.181 A  
HETATM   10  C   UNL     1      -9.336  12.860  67.831  1.00  0.00    -0.208 A  
HETATM   11  C   UNL     1      -9.342  11.460  67.934  1.00  0.00    -0.164 A  
BRANCH   9  12
HETATM   12  O   UNL     1     -10.454   9.376  68.309  1.00  0.00    -0.204 OA 
BRANCH  12  13
HETATM   13  C   UNL     1     -10.360   8.604  69.470  1.00  0.00    -0.214 C  
HETATM   14  O   UNL     1     -11.234   8.414  70.301  1.00  0.00    -0.245 OA 
BRANCH  13  15
HETATM   15  C   UNL     1      -9.017   7.974  69.551  1.00  0.00    -0.148 A  
HETATM   16  C   UNL     1      -7.984   8.595  70.277  1.00  0.00    -0.106 A  
HETATM   17  C   UNL     1      -6.731   7.984  70.390  1.00  0.00    -0.037 A  
HETATM   18  C   UNL     1      -6.496   6.748  69.794  1.00  0.00    -0.044 A  
HETATM   19  C   UNL     1      -7.513   6.113  69.085  1.00  0.00    -0.090 A  
HETATM   20  C   UNL     1      -8.763   6.736  68.945  1.00  0.00    -0.129 A  
BRANCH  20  21
HETATM   21  O   UNL     1      -9.780   6.026  68.276  1.00  0.00    -0.119 OA 
BRANCH  21  22
HETATM   22  C   UNL     1      -9.865   6.212  66.898  1.00  0.00    -0.159 C  
HETATM   23  O   UNL     1      -9.347   7.113  66.252  1.00  0.00    -0.167 OA 
HETATM   24  C   UNL     1     -10.612   5.065  66.287  1.00  0.00    -0.332 C  
ENDBRANCH  21  22
ENDBRANCH  20  21
ENDBRANCH  13  15
ENDBRANCH  12  13
ENDBRANCH   9  12
ENDBRANCH   3   6
TORSDOF 6
ENDMDL
MODEL      227
REMARK 921   NORMALIZED FREE ENERGY PREDICTED BY IDOCK:   -3.11 KCAL/MOL
REMARK 922        TOTAL FREE ENERGY PREDICTED BY IDOCK:   -5.68 KCAL/MOL
REMARK 923 INTER-LIGAND FREE ENERGY PREDICTED BY IDOCK:   -4.43 KCAL/MOL
REMARK 924 INTRA-LIGAND FREE ENERGY PREDICTED BY IDOCK:   -1.25 KCAL/MOL
REMARK 927      BINDING AFFINITY PREDICTED BY RF-SCORE:    0.00 PKD
ROOT
HETATM    1  C   UNL     1     -13.869   9.104  72.132  1.00  0.00    -0.508 C  
HETATM    2  C   UNL     1     -12.831   9.858  71.340  1.00  0.00    -0.405 C  
HETATM    3  N   UNL     1     -11.961   9.018  70.663  1.00  0.00    -0.469 N  
HETATM    4  O   UNL     1     -12.827  11.084  71.341  1.00  0.00    -0.400 OA 
HETATM    5  H   UNL     1     -12.118   8.016  70.770  1.00  0.00     0.000 HD 
ENDROOT
BRANCH   3   6
HETATM    6  C   UNL     1     -10.878   9.406  69.839  1.00  0.00    -0.236 A  
HETATM    7  C   UNL     1     -11.018   9.723  68.485  1.00  0.00    -0.195 A  
HETATM    8  C   UNL     1      -9.922  10.126  67.721  1.00  0.00    -0.198 A  
HETATM    9  C   UNL     1      -8.667  10.247  68.307  1.00  0.00    -0.126 A  
HETATM   10  C   UNL     1      -9.600   9.482  70.410  1.00  0.00    -0.326 A  
HETATM   11  C   UNL     1      -8.496   9.893  69.647  1.00  0.00    -0.198 A  
BRANCH   9  12
HETATM   12  O   UNL     1      -7.518  10.731  67.631  1.00  0.00    -0.093 OA 
BRANCH  12  13
HETATM   13  C   UNL     1      -6.575   9.901  67.020  1.00  0.00    -0.070 C  
HETATM   14  O   UNL     1      -5.502   9.542  67.479  1.00  0.00    -0.037 OA 
BRANCH  13  15
HETATM   15  C   UNL     1      -7.080   9.449  65.698  1.00  0.00    -0.090 A  
HETATM   16  C   UNL     1      -7.051  10.317  64.591  1.00  0.00    -0.081 A  
HETATM   17  C   UNL     1      -7.488   9.880  63.337  1.00  0.00    -0.132 A  
HETATM   18  C   UNL     1      -7.946   8.577  63.167  1.00  0.00    -0.164 A  
HETATM   19  C   UNL     1      -7.967   7.701  64.249  1.00  0.00    -0.112 A  
HETATM   20  C   UNL     1      -7.557   8.143  65.516  1.00  0.00    -0.087 A  
BRANCH  20  21
HETATM   21  O   UNL     1      -7.534   7.202  66.565  1.00  0.00    -0.084 OA 
BRANCH  21  22
HETATM   22  C   UNL     1      -8.760   6.886  67.144  1.00  0.00    -0.120 C  
HETATM   23  O   UNL     1      -9.844   6.845  66.577  1.00  0.00    -0.170 OA 
HETATM   24  C   UNL     1      -8.548   6.491  68.575  1.00  0.00    -0.123 C  
ENDBRANCH  21  22
ENDBRANCH  20  21
ENDBRANCH  13  15
ENDBRANCH  12  13
ENDBRANCH   9  12
ENDBRANCH   3   6
TORSDOF 6
ENDMDL
MODEL      228
REMARK 921   NORMALIZED FREE ENERGY PREDICTED BY IDOCK:   -3.11 KCAL/MOL
REMARK 922        TOTAL FREE ENERGY PREDICTED BY IDOCK:   -5.68 KCAL/MOL
REMARK 923 INTER-LIGAND FREE ENERGY PREDICTED BY IDOCK:   -4.32 KCAL/MOL
REMARK 924 INTRA-LIGAND FREE ENERGY PREDICTED BY IDOCK:   -1.36 KCAL/MOL
REMARK 927      BINDING AFFINITY PREDICTED BY RF-SCORE:    0.00 PKD
ROOT
HETATM    1  C   UNL     1     -13.417  10.067  72.276  1.00  0.00    -0.346 C  
HETATM    2  C   UNL     1     -12.304   9.754  71.309  1.00  0.00    -0.371 C  
HETATM    3  N   UNL     1     -11.426   8.799  71.796  1.00  0.00    -0.318 N  
HETATM    4  O   UNL     1     -12.254  10.321  70.223  1.00  0.00    -0.267 OA 
HETATM    5  H   UNL     1     -11.627   8.424  72.723  1.00  0.00     0.000 HD 
ENDROOT
BRANCH   3   6
HETATM    6  C   UNL     1     -10.280   8.289  71.141  1.00  0.00    -0.198 A  
HETATM    7  C   UNL     1     -10.094   6.933  70.862  1.00  0.00    -0.207 A  
HETATM    8  C   UNL     1      -8.956   6.484  70.188  1.00  0.00    -0.155 A  
HETATM    9  C   UNL     1      -7.994   7.390  69.758  1.00  0.00    -0.125 A  
HETATM   10  C   UNL     1      -9.281   9.191  70.748  1.00  0.00    -0.321 A  
HETATM   11  C   UNL     1      -8.138   8.744  70.066  1.00  0.00    -0.111 A  
BRANCH   9  12
HETATM   12  O   UNL     1      -6.854   7.035  68.994  1.00  0.00    -0.060 OA 
BRANCH  12  13
HETATM   13  C   UNL     1      -6.909   6.688  67.641  1.00  0.00    -0.080 C  
HETATM   14  O   UNL     1      -6.856   5.565  67.166  1.00  0.00    -0.060 OA 
BRANCH  13  15
HETATM   15  C   UNL     1      -7.097   7.907  66.813  1.00  0.00    -0.077 A  
HETATM   16  C   UNL     1      -6.056   8.843  66.680  1.00  0.00    -0.060 A  
HETATM   17  C   UNL     1      -6.215   9.971  65.868  1.00  0.00    -0.085 A  
HETATM   18  C   UNL     1      -7.404  10.173  65.174  1.00  0.00    -0.141 A  
HETATM   19  C   UNL     1      -8.439   9.248  65.283  1.00  0.00    -0.167 A  
HETATM   20  C   UNL     1      -8.295   8.130  66.119  1.00  0.00    -0.126 A  
BRANCH  20  21
HETATM   21  O   UNL     1      -9.343   7.189  66.145  1.00  0.00    -0.142 OA 
BRANCH  21  22
HETATM   22  C   UNL     1     -10.388   7.447  67.028  1.00  0.00    -0.314 C  
HETATM   23  O   UNL     1     -10.709   8.540  67.476  1.00  0.00    -0.248 OA 
HETATM   24  C   UNL     1     -11.152   6.182  67.279  1.00  0.00    -0.334 C  
ENDBRANCH  21  22
ENDBRANCH  20  21
ENDBRANCH  13  15
ENDBRANCH  12  13
ENDBRANCH   9  12
ENDBRANCH   3   6
TORSDOF 6
ENDMDL
MODEL      229
REMARK 921   NORMALIZED FREE ENERGY PREDICTED BY IDOCK:   -3.06 KCAL/MOL
REMARK 922        TOTAL FREE ENERGY PREDICTED BY IDOCK:   -5.61 KCAL/MOL
REMARK 923 INTER-LIGAND FREE ENERGY PREDICTED BY IDOCK:   -4.90 KCAL/MOL
REMARK 924 INTRA-LIGAND FREE ENERGY PREDICTED BY IDOCK:   -0.71 KCAL/MOL
REMARK 927      BINDING AFFINITY PREDICTED BY RF-SCORE:    0.00 PKD
ROOT
HETATM    1  C   UNL     1     -10.273   6.149  74.522  1.00  0.00    -0.318 C  
HETATM    2  C   UNL     1      -9.567   6.695  73.307  1.00  0.00    -0.157 C  
HETATM    3  N   UNL     1     -10.442   7.234  72.378  1.00  0.00    -0.219 N  
HETATM    4  O   UNL     1      -8.345   6.638  73.228  1.00  0.00    -0.118 OA 
HETATM    5  H   UNL     1     -11.435   7.205  72.614  1.00  0.00     0.000 HD 
ENDROOT
BRANCH   3   6
HETATM    6  C   UNL     1     -10.104   7.821  71.136  1.00  0.00    -0.187 A  
HETATM    7  C   UNL     1      -9.261   8.928  71.014  1.00  0.00    -0.307 A  
HETATM    8  C   UNL     1      -8.935   9.454  69.762  1.00  0.00    -0.199 A  
HETATM    9  C   UNL     1      -9.428   8.862  68.605  1.00  0.00    -0.151 A  
HETATM   10  C   UNL     1     -10.637   7.261  69.967  1.00  0.00    -0.247 A  
HETATM   11  C   UNL     1     -10.308   7.783  68.706  1.00  0.00    -0.219 A  
BRANCH   9  12
HETATM   12  O   UNL     1      -9.083   9.273  67.293  1.00  0.00    -0.126 OA 
BRANCH  12  13
HETATM   13  C   UNL     1      -9.612  10.410  66.676  1.00  0.00    -0.177 C  
HETATM   14  O   UNL     1     -10.513  10.450  65.853  1.00  0.00    -0.212 OA 
BRANCH  13  15
HETATM   15  C   UNL     1      -8.944  11.628  67.202  1.00  0.00    -0.173 A  
HETATM   16  C   UNL     1      -7.589  11.877  66.915  1.00  0.00    -0.093 A  
HETATM   17  C   UNL     1      -6.970  13.043  67.375  1.00  0.00    -0.123 A  
HETATM   18  C   UNL     1      -7.691  13.977  68.113  1.00  0.00    -0.143 A  
HETATM   19  C   UNL     1      -9.037  13.753  68.393  1.00  0.00    -0.175 A  
HETATM   20  C   UNL     1      -9.655  12.571  67.959  1.00  0.00    -0.212 A  
BRANCH  20  21
HETATM   21  O   UNL     1     -11.034  12.419  68.208  1.00  0.00    -0.212 OA 
BRANCH  21  22
HETATM   22  C   UNL     1     -11.818  13.563  68.081  1.00  0.00    -0.365 C  
HETATM   23  O   UNL     1     -12.192  14.077  67.035  1.00  0.00    -0.430 OA 
HETATM   24  C   UNL     1     -12.238  14.032  69.442  1.00  0.00    -0.336 C  
ENDBRANCH  21  22
ENDBRANCH  20  21
ENDBRANCH  13  15
ENDBRANCH  12  13
ENDBRANCH   9  12
ENDBRANCH   3   6
TORSDOF 6
ENDMDL
MODEL      230
REMARK 921   NORMALIZED FREE ENERGY PREDICTED BY IDOCK:   -3.06 KCAL/MOL
REMARK 922        TOTAL FREE ENERGY PREDICTED BY IDOCK:   -5.61 KCAL/MOL
REMARK 923 INTER-LIGAND FREE ENERGY PREDICTED BY IDOCK:   -5.44 KCAL/MOL
REMARK 924 INTRA-LIGAND FREE ENERGY PREDICTED BY IDOCK:   -0.17 KCAL/MOL
REMARK 927      BINDING AFFINITY PREDICTED BY RF-SCORE:    0.00 PKD
ROOT
HETATM    1  C   UNL     1     -14.119  15.176  72.353  1.00  0.00    -0.593 C  
HETATM    2  C   UNL     1     -13.063  14.205  71.888  1.00  0.00    -0.375 C  
HETATM    3  N   UNL     1     -13.549  12.915  71.749  1.00  0.00    -0.274 N  
HETATM    4  O   UNL     1     -11.922  14.594  71.670  1.00  0.00    -0.344 OA 
HETATM    5  H   UNL     1     -14.536  12.771  71.966  1.00  0.00     0.000 HD 
ENDROOT
BRANCH   3   6
HETATM    6  C   UNL     1     -12.820  11.774  71.336  1.00  0.00    -0.335 A  
HETATM    7  C   UNL     1     -12.933  10.526  71.952  1.00  0.00    -0.553 A  
HETATM    8  C   UNL     1     -12.211   9.424  71.489  1.00  0.00    -0.448 A  
HETATM    9  C   UNL     1     -11.380   9.547  70.381  1.00  0.00    -0.264 A  
HETATM   10  C   UNL     1     -11.942  11.902  70.250  1.00  0.00    -0.416 A  
HETATM   11  C   UNL     1     -11.218  10.796  69.778  1.00  0.00    -0.365 A  
BRANCH   9  12
HETATM   12  O   UNL     1     -10.678   8.466  69.791  1.00  0.00    -0.229 OA 
BRANCH  12  13
HETATM   13  C   UNL     1     -10.397   8.383  68.424  1.00  0.00    -0.200 C  
HETATM   14  O   UNL     1     -11.020   8.900  67.511  1.00  0.00    -0.134 OA 
BRANCH  13  15
HETATM   15  C   UNL     1      -9.159   7.589  68.210  1.00  0.00    -0.132 A  
HETATM   16  C   UNL     1      -9.184   6.440  67.398  1.00  0.00    -0.117 A  
HETATM   17  C   UNL     1      -8.012   5.715  67.161  1.00  0.00    -0.102 A  
HETATM   18  C   UNL     1      -6.805   6.128  67.718  1.00  0.00    -0.063 A  
HETATM   19  C   UNL     1      -6.761   7.271  68.511  1.00  0.00    -0.057 A  
HETATM   20  C   UNL     1      -7.940   7.986  68.776  1.00  0.00    -0.119 A  
BRANCH  20  21
HETATM   21  O   UNL     1      -7.834   9.173  69.529  1.00  0.00    -0.076 OA 
BRANCH  21  22
HETATM   22  C   UNL     1      -7.127  10.220  68.943  1.00  0.00    -0.075 C  
HETATM   23  O   UNL     1      -5.910  10.347  68.908  1.00  0.00    -0.041 OA 
HETATM   24  C   UNL     1      -8.086  11.142  68.252  1.00  0.00    -0.131 C  
ENDBRANCH  21  22
ENDBRANCH  20  21
ENDBRANCH  13  15
ENDBRANCH  12  13
ENDBRANCH   9  12
ENDBRANCH   3   6
TORSDOF 6
ENDMDL
MODEL      231
REMARK 921   NORMALIZED FREE ENERGY PREDICTED BY IDOCK:   -3.05 KCAL/MOL
REMARK 922        TOTAL FREE ENERGY PREDICTED BY IDOCK:   -5.59 KCAL/MOL
REMARK 923 INTER-LIGAND FREE ENERGY PREDICTED BY IDOCK:   -4.67 KCAL/MOL
REMARK 924 INTRA-LIGAND FREE ENERGY PREDICTED BY IDOCK:   -0.93 KCAL/MOL
REMARK 927      BINDING AFFINITY PREDICTED BY RF-SCORE:    0.00 PKD
ROOT
HETATM    1  C   UNL     1     -10.285  17.522  66.443  1.00  0.00    -0.354 C  
HETATM    2  C   UNL     1      -9.994  16.116  66.903  1.00  0.00    -0.254 C  
HETATM    3  N   UNL     1     -11.055  15.251  66.685  1.00  0.00    -0.309 N  
HETATM    4  O   UNL     1      -8.907  15.844  67.401  1.00  0.00    -0.182 OA 
HETATM    5  H   UNL     1     -11.887  15.649  66.249  1.00  0.00     0.000 HD 
ENDROOT
BRANCH   3   6
HETATM    6  C   UNL     1     -11.105  13.874  67.006  1.00  0.00    -0.301 A  
HETATM    7  C   UNL     1     -11.273  13.394  68.307  1.00  0.00    -0.310 A  
HETATM    8  C   UNL     1     -11.343  12.024  68.568  1.00  0.00    -0.323 A  
HETATM    9  C   UNL     1     -11.274  11.108  67.524  1.00  0.00    -0.301 A  
HETATM   10  C   UNL     1     -10.986  12.943  65.964  1.00  0.00    -0.301 A  
HETATM   11  C   UNL     1     -11.062  11.565  66.221  1.00  0.00    -0.321 A  
BRANCH   9  12
HETATM   12  O   UNL     1     -11.423   9.708  67.685  1.00  0.00     0.106 OA 
BRANCH  12  13
HETATM   13  C   UNL     1     -10.637   8.942  68.550  1.00  0.00    -0.141 C  
HETATM   14  O   UNL     1     -10.291   9.233  69.683  1.00  0.00    -0.199 OA 
BRANCH  13  15
HETATM   15  C   UNL     1     -10.295   7.646  67.909  1.00  0.00    -0.270 A  
HETATM   16  C   UNL     1     -11.071   6.500  68.163  1.00  0.00    -0.332 A  
HETATM   17  C   UNL     1     -10.777   5.290  67.529  1.00  0.00    -0.063 A  
HETATM   18  C   UNL     1      -9.718   5.207  66.629  1.00  0.00    -0.181 A  
HETATM   19  C   UNL     1      -8.950   6.335  66.355  1.00  0.00    -0.159 A  
HETATM   20  C   UNL     1      -9.223   7.545  67.011  1.00  0.00    -0.138 A  
BRANCH  20  21
HETATM   21  O   UNL     1      -8.461   8.675  66.651  1.00  0.00    -0.109 OA 
BRANCH  21  22
HETATM   22  C   UNL     1      -7.327   8.929  67.419  1.00  0.00    -0.081 C  
HETATM   23  O   UNL     1      -6.437   8.133  67.689  1.00  0.00    -0.054 OA 
HETATM   24  C   UNL     1      -7.293  10.381  67.791  1.00  0.00    -0.087 C  
ENDBRANCH  21  22
ENDBRANCH  20  21
ENDBRANCH  13  15
ENDBRANCH  12  13
ENDBRANCH   9  12
ENDBRANCH   3   6
TORSDOF 6
ENDMDL
MODEL      232
REMARK 921   NORMALIZED FREE ENERGY PREDICTED BY IDOCK:   -3.03 KCAL/MOL
REMARK 922        TOTAL FREE ENERGY PREDICTED BY IDOCK:   -5.57 KCAL/MOL
REMARK 923 INTER-LIGAND FREE ENERGY PREDICTED BY IDOCK:   -4.23 KCAL/MOL
REMARK 924 INTRA-LIGAND FREE ENERGY PREDICTED BY IDOCK:   -1.34 KCAL/MOL
REMARK 927      BINDING AFFINITY PREDICTED BY RF-SCORE:    0.00 PKD
ROOT
HETATM    1  C   UNL     1     -10.445  13.942  65.361  1.00  0.00    -0.357 C  
HETATM    2  C   UNL     1     -10.120  12.880  66.380  1.00  0.00    -0.269 C  
HETATM    3  N   UNL     1      -8.770  12.567  66.414  1.00  0.00    -0.419 N  
HETATM    4  O   UNL     1     -11.009  12.398  67.073  1.00  0.00    -0.242 OA 
HETATM    5  H   UNL     1      -8.167  13.077  65.769  1.00  0.00     0.000 HD 
ENDROOT
BRANCH   3   6
HETATM    6  C   UNL     1      -8.142  11.615  67.251  1.00  0.00    -0.160 A  
HETATM    7  C   UNL     1      -7.921  11.818  68.616  1.00  0.00    -0.116 A  
HETATM    8  C   UNL     1      -7.320  10.835  69.405  1.00  0.00    -0.128 A  
HETATM    9  C   UNL     1      -6.953   9.617  68.845  1.00  0.00    -0.059 A  
HETATM   10  C   UNL     1      -7.723  10.403  66.684  1.00  0.00    -0.117 A  
HETATM   11  C   UNL     1      -7.124   9.410  67.475  1.00  0.00    -0.078 A  
BRANCH   9  12
HETATM   12  O   UNL     1      -6.419   8.532  69.585  1.00  0.00    -0.039 OA 
BRANCH  12  13
HETATM   13  C   UNL     1      -7.089   7.320  69.771  1.00  0.00    -0.072 C  
HETATM   14  O   UNL     1      -6.730   6.214  69.398  1.00  0.00    -0.055 OA 
BRANCH  13  15
HETATM   15  C   UNL     1      -8.331   7.544  70.555  1.00  0.00    -0.131 A  
HETATM   16  C   UNL     1      -8.263   8.072  71.858  1.00  0.00    -0.159 A  
HETATM   17  C   UNL     1      -9.432   8.323  72.583  1.00  0.00    -0.354 A  
HETATM   18  C   UNL     1     -10.678   8.063  72.019  1.00  0.00    -0.319 A  
HETATM   19  C   UNL     1     -10.762   7.555  70.725  1.00  0.00    -0.238 A  
HETATM   20  C   UNL     1      -9.592   7.274  70.004  1.00  0.00    -0.167 A  
BRANCH  20  21
HETATM   21  O   UNL     1      -9.729   6.823  68.676  1.00  0.00    -0.131 OA 
BRANCH  21  22
HETATM   22  C   UNL     1     -10.520   7.602  67.835  1.00  0.00    -0.207 C  
HETATM   23  O   UNL     1     -10.565   8.824  67.804  1.00  0.00    -0.239 OA 
HETATM   24  C   UNL     1     -11.249   6.711  66.874  1.00  0.00    -0.178 C  
ENDBRANCH  21  22
ENDBRANCH  20  21
ENDBRANCH  13  15
ENDBRANCH  12  13
ENDBRANCH   9  12
ENDBRANCH   3   6
TORSDOF 6
ENDMDL
MODEL      233
REMARK 921   NORMALIZED FREE ENERGY PREDICTED BY IDOCK:   -3.03 KCAL/MOL
REMARK 922        TOTAL FREE ENERGY PREDICTED BY IDOCK:   -5.57 KCAL/MOL
REMARK 923 INTER-LIGAND FREE ENERGY PREDICTED BY IDOCK:   -4.59 KCAL/MOL
REMARK 924 INTRA-LIGAND FREE ENERGY PREDICTED BY IDOCK:   -0.98 KCAL/MOL
REMARK 927      BINDING AFFINITY PREDICTED BY RF-SCORE:    0.00 PKD
ROOT
HETATM    1  C   UNL     1     -10.571  16.582  67.760  1.00  0.00    -0.332 C  
HETATM    2  C   UNL     1     -10.116  15.336  67.043  1.00  0.00    -0.248 C  
HETATM    3  N   UNL     1     -10.612  14.177  67.618  1.00  0.00    -0.251 N  
HETATM    4  O   UNL     1      -9.391  15.423  66.058  1.00  0.00    -0.310 OA 
HETATM    5  H   UNL     1     -11.213  14.292  68.434  1.00  0.00     0.000 HD 
ENDROOT
BRANCH   3   6
HETATM    6  C   UNL     1     -10.371  12.849  67.191  1.00  0.00    -0.238 A  
HETATM    7  C   UNL     1     -10.922  12.305  66.028  1.00  0.00    -0.327 A  
HETATM    8  C   UNL     1     -10.632  10.997  65.636  1.00  0.00    -0.263 A  
HETATM    9  C   UNL     1      -9.761  10.217  66.389  1.00  0.00    -0.205 A  
HETATM   10  C   UNL     1      -9.534  12.040  67.971  1.00  0.00    -0.199 A  
HETATM   11  C   UNL     1      -9.235  10.726  67.578  1.00  0.00    -0.150 A  
BRANCH   9  12
HETATM   12  O   UNL     1      -9.343   8.913  66.021  1.00  0.00    -0.209 OA 
BRANCH  12  13
HETATM   13  C   UNL     1      -9.852   7.747  66.599  1.00  0.00    -0.225 C  
HETATM   14  O   UNL     1     -11.008   7.532  66.927  1.00  0.00    -0.292 OA 
BRANCH  13  15
HETATM   15  C   UNL     1      -8.773   6.734  66.730  1.00  0.00    -0.122 A  
HETATM   16  C   UNL     1      -8.291   6.060  65.593  1.00  0.00    -0.145 A  
HETATM   17  C   UNL     1      -7.247   5.136  65.707  1.00  0.00    -0.069 A  
HETATM   18  C   UNL     1      -6.666   4.882  66.947  1.00  0.00    -0.054 A  
HETATM   19  C   UNL     1      -7.122   5.553  68.078  1.00  0.00    -0.067 A  
HETATM   20  C   UNL     1      -8.188   6.459  67.974  1.00  0.00    -0.116 A  
BRANCH  20  21
HETATM   21  O   UNL     1      -8.571   7.162  69.134  1.00  0.00    -0.132 OA 
BRANCH  21  22
HETATM   22  C   UNL     1      -9.064   6.398  70.189  1.00  0.00    -0.154 C  
HETATM   23  O   UNL     1      -8.609   6.345  71.324  1.00  0.00    -0.126 OA 
HETATM   24  C   UNL     1     -10.326   5.713  69.759  1.00  0.00    -0.352 C  
ENDBRANCH  21  22
ENDBRANCH  20  21
ENDBRANCH  13  15
ENDBRANCH  12  13
ENDBRANCH   9  12
ENDBRANCH   3   6
TORSDOF 6
ENDMDL
MODEL      234
REMARK 921   NORMALIZED FREE ENERGY PREDICTED BY IDOCK:   -3.02 KCAL/MOL
REMARK 922        TOTAL FREE ENERGY PREDICTED BY IDOCK:   -5.56 KCAL/MOL
REMARK 923 INTER-LIGAND FREE ENERGY PREDICTED BY IDOCK:   -4.90 KCAL/MOL
REMARK 924 INTRA-LIGAND FREE ENERGY PREDICTED BY IDOCK:   -0.66 KCAL/MOL
REMARK 927      BINDING AFFINITY PREDICTED BY RF-SCORE:    0.00 PKD
ROOT
HETATM    1  C   UNL     1     -13.437  15.706  72.386  1.00  0.00    -0.604 C  
HETATM    2  C   UNL     1     -12.636  14.780  71.505  1.00  0.00    -0.333 C  
HETATM    3  N   UNL     1     -12.313  15.351  70.285  1.00  0.00    -0.395 N  
HETATM    4  O   UNL     1     -12.336  13.660  71.902  1.00  0.00    -0.130 OA 
HETATM    5  H   UNL     1     -12.640  16.305  70.125  1.00  0.00     0.000 HD 
ENDROOT
BRANCH   3   6
HETATM    6  C   UNL     1     -11.577  14.750  69.236  1.00  0.00    -0.303 A  
HETATM    7  C   UNL     1     -10.182  14.750  69.179  1.00  0.00    -0.224 A  
HETATM    8  C   UNL     1      -9.501  14.118  68.136  1.00  0.00    -0.213 A  
HETATM    9  C   UNL     1     -10.209  13.451  67.142  1.00  0.00    -0.247 A  
HETATM   10  C   UNL     1     -12.285  14.117  68.204  1.00  0.00    -0.179 A  
HETATM   11  C   UNL     1     -11.605  13.476  67.156  1.00  0.00    -0.393 A  
BRANCH   9  12
HETATM   12  O   UNL     1      -9.602  12.710  66.096  1.00  0.00    -0.253 OA 
BRANCH  12  13
HETATM   13  C   UNL     1      -8.869  11.539  66.304  1.00  0.00    -0.186 C  
HETATM   14  O   UNL     1      -7.936  11.125  65.635  1.00  0.00    -0.037 OA 
BRANCH  13  15
HETATM   15  C   UNL     1      -9.357  10.848  67.526  1.00  0.00    -0.164 A  
HETATM   16  C   UNL     1     -10.528  10.070  67.483  1.00  0.00    -0.307 A  
HETATM   17  C   UNL     1     -10.967   9.385  68.620  1.00  0.00    -0.075 A  
HETATM   18  C   UNL     1     -10.241   9.456  69.806  1.00  0.00    -0.238 A  
HETATM   19  C   UNL     1      -9.071  10.209  69.861  1.00  0.00    -0.110 A  
HETATM   20  C   UNL     1      -8.643  10.922  68.730  1.00  0.00    -0.159 A  
BRANCH  20  21
HETATM   21  O   UNL     1      -7.419  11.616  68.815  1.00  0.00    -0.112 OA 
BRANCH  21  22
HETATM   22  C   UNL     1      -6.335  10.903  69.320  1.00  0.00    -0.064 C  
HETATM   23  O   UNL     1      -5.962   9.794  68.961  1.00  0.00    -0.035 OA 
HETATM   24  C   UNL     1      -5.605  11.750  70.319  1.00  0.00    -0.143 C  
ENDBRANCH  21  22
ENDBRANCH  20  21
ENDBRANCH  13  15
ENDBRANCH  12  13
ENDBRANCH   9  12
ENDBRANCH   3   6
TORSDOF 6
ENDMDL
MODEL      235
REMARK 921   NORMALIZED FREE ENERGY PREDICTED BY IDOCK:   -3.01 KCAL/MOL
REMARK 922        TOTAL FREE ENERGY PREDICTED BY IDOCK:   -5.55 KCAL/MOL
REMARK 923 INTER-LIGAND FREE ENERGY PREDICTED BY IDOCK:   -5.25 KCAL/MOL
REMARK 924 INTRA-LIGAND FREE ENERGY PREDICTED BY IDOCK:   -0.30 KCAL/MOL
REMARK 927      BINDING AFFINITY PREDICTED BY RF-SCORE:    0.00 PKD
ROOT
HETATM    1  C   UNL     1     -13.151  11.822  63.278  1.00  0.00     0.095 C  
HETATM    2  C   UNL     1     -12.265  12.882  63.881  1.00  0.00    -0.449 C  
HETATM    3  N   UNL     1     -11.279  12.352  64.699  1.00  0.00    -0.300 N  
HETATM    4  O   UNL     1     -12.456  14.065  63.622  1.00  0.00    -0.803 OA 
HETATM    5  H   UNL     1     -11.261  11.337  64.795  1.00  0.00     0.000 HD 
ENDROOT
BRANCH   3   6
HETATM    6  C   UNL     1     -10.294  13.074  65.414  1.00  0.00    -0.300 A  
HETATM    7  C   UNL     1     -10.138  14.459  65.322  1.00  0.00    -0.387 A  
HETATM    8  C   UNL     1      -9.167  15.128  66.070  1.00  0.00    -0.273 A  
HETATM    9  C   UNL     1      -8.350  14.423  66.946  1.00  0.00    -0.078 A  
HETATM   10  C   UNL     1      -9.433  12.363  66.263  1.00  0.00    -0.220 A  
HETATM   11  C   UNL     1      -8.459  13.033  67.021  1.00  0.00    -0.142 A  
BRANCH   9  12
HETATM   12  O   UNL     1      -7.399  15.028  67.807  1.00  0.00    -0.132 OA 
BRANCH  12  13
HETATM   13  C   UNL     1      -7.685  15.422  69.117  1.00  0.00    -0.207 C  
HETATM   14  O   UNL     1      -6.884  15.656  70.008  1.00  0.00    -0.117 OA 
BRANCH  13  15
HETATM   15  C   UNL     1      -9.153  15.575  69.290  1.00  0.00    -0.266 A  
HETATM   16  C   UNL     1      -9.938  14.483  69.703  1.00  0.00     0.205 A  
HETATM   17  C   UNL     1     -11.312  14.634  69.907  1.00  0.00    -0.302 A  
HETATM   18  C   UNL     1     -11.919  15.873  69.713  1.00  0.00    -0.276 A  
HETATM   19  C   UNL     1     -11.153  16.967  69.319  1.00  0.00    -0.010 A  
HETATM   20  C   UNL     1      -9.778  16.813  69.085  1.00  0.00    -0.204 A  
BRANCH  20  21
HETATM   21  O   UNL     1      -9.035  17.963  68.752  1.00  0.00    -0.275 OA 
BRANCH  21  22
HETATM   22  C   UNL     1      -9.037  18.336  67.411  1.00  0.00    -0.253 C  
HETATM   23  O   UNL     1     -10.021  18.537  66.712  1.00  0.00    -0.320 OA 
HETATM   24  C   UNL     1      -7.626  18.567  66.957  1.00  0.00    -0.234 C  
ENDBRANCH  21  22
ENDBRANCH  20  21
ENDBRANCH  13  15
ENDBRANCH  12  13
ENDBRANCH   9  12
ENDBRANCH   3   6
TORSDOF 6
ENDMDL
MODEL      236
REMARK 921   NORMALIZED FREE ENERGY PREDICTED BY IDOCK:   -3.01 KCAL/MOL
REMARK 922        TOTAL FREE ENERGY PREDICTED BY IDOCK:   -5.54 KCAL/MOL
REMARK 923 INTER-LIGAND FREE ENERGY PREDICTED BY IDOCK:   -4.99 KCAL/MOL
REMARK 924 INTRA-LIGAND FREE ENERGY PREDICTED BY IDOCK:   -0.55 KCAL/MOL
REMARK 927      BINDING AFFINITY PREDICTED BY RF-SCORE:    0.00 PKD
ROOT
HETATM    1  C   UNL     1      -7.757  10.370  62.334  1.00  0.00    -0.172 C  
HETATM    2  C   UNL     1      -8.531  10.022  63.581  1.00  0.00    -0.180 C  
HETATM    3  N   UNL     1      -7.721   9.530  64.591  1.00  0.00    -0.115 N  
HETATM    4  O   UNL     1      -9.744  10.194  63.620  1.00  0.00    -0.280 OA 
HETATM    5  H   UNL     1      -6.724   9.462  64.386  1.00  0.00     0.000 HD 
ENDROOT
BRANCH   3   6
HETATM    6  C   UNL     1      -8.133   9.110  65.878  1.00  0.00    -0.111 A  
HETATM    7  C   UNL     1      -7.328   9.216  67.015  1.00  0.00    -0.090 A  
HETATM    8  C   UNL     1      -7.791   8.812  68.269  1.00  0.00    -0.101 A  
HETATM    9  C   UNL     1      -9.083   8.318  68.411  1.00  0.00    -0.136 A  
HETATM   10  C   UNL     1      -9.416   8.565  66.022  1.00  0.00    -0.256 A  
HETATM   11  C   UNL     1      -9.889   8.162  67.281  1.00  0.00    -0.259 A  
BRANCH   9  12
HETATM   12  O   UNL     1      -9.666   7.966  69.655  1.00  0.00    -0.171 OA 
BRANCH  12  13
HETATM   13  C   UNL     1      -9.723   8.830  70.752  1.00  0.00    -0.208 C  
HETATM   14  O   UNL     1      -8.783   9.363  71.320  1.00  0.00    -0.295 OA 
BRANCH  13  15
HETATM   15  C   UNL     1     -11.139   9.071  71.133  1.00  0.00    -0.371 A  
HETATM   16  C   UNL     1     -11.675   8.476  72.290  1.00  0.00    -0.443 A  
HETATM   17  C   UNL     1     -12.994   8.734  72.674  1.00  0.00    -0.305 A  
HETATM   18  C   UNL     1     -13.790   9.592  71.919  1.00  0.00    -0.338 A  
HETATM   19  C   UNL     1     -13.270  10.200  70.780  1.00  0.00    -0.290 A  
HETATM   20  C   UNL     1     -11.956   9.922  70.375  1.00  0.00    -0.195 A  
BRANCH  20  21
HETATM   21  O   UNL     1     -11.453  10.611  69.253  1.00  0.00    -0.252 OA 
BRANCH  21  22
HETATM   22  C   UNL     1     -11.090  11.941  69.453  1.00  0.00    -0.153 C  
HETATM   23  O   UNL     1     -11.688  12.765  70.132  1.00  0.00    -0.269 OA 
HETATM   24  C   UNL     1      -9.771  12.202  68.788  1.00  0.00    -0.001 C  
ENDBRANCH  21  22
ENDBRANCH  20  21
ENDBRANCH  13  15
ENDBRANCH  12  13
ENDBRANCH   9  12
ENDBRANCH   3   6
TORSDOF 6
ENDMDL
MODEL      237
REMARK 921   NORMALIZED FREE ENERGY PREDICTED BY IDOCK:   -3.01 KCAL/MOL
REMARK 922        TOTAL FREE ENERGY PREDICTED BY IDOCK:   -5.54 KCAL/MOL
REMARK 923 INTER-LIGAND FREE ENERGY PREDICTED BY IDOCK:   -4.48 KCAL/MOL
REMARK 924 INTRA-LIGAND FREE ENERGY PREDICTED BY IDOCK:   -1.06 KCAL/MOL
REMARK 927      BINDING AFFINITY PREDICTED BY RF-SCORE:    0.00 PKD
ROOT
HETATM    1  C   UNL     1     -10.657  17.084  68.654  1.00  0.00    -0.362 C  
HETATM    2  C   UNL     1     -10.171  15.847  67.943  1.00  0.00    -0.251 C  
HETATM    3  N   UNL     1     -10.714  14.683  68.464  1.00  0.00    -0.240 N  
HETATM    4  O   UNL     1      -9.385  15.943  67.007  1.00  0.00    -0.207 OA 
HETATM    5  H   UNL     1     -11.363  14.790  69.244  1.00  0.00     0.000 HD 
ENDROOT
BRANCH   3   6
HETATM    6  C   UNL     1     -10.461  13.361  68.028  1.00  0.00    -0.239 A  
HETATM    7  C   UNL     1      -9.349  12.618  68.432  1.00  0.00    -0.148 A  
HETATM    8  C   UNL     1      -9.158  11.306  67.994  1.00  0.00    -0.156 A  
HETATM    9  C   UNL     1     -10.094  10.703  67.162  1.00  0.00    -0.207 A  
HETATM   10  C   UNL     1     -11.375  12.763  67.149  1.00  0.00    -0.365 A  
HETATM   11  C   UNL     1     -11.190  11.442  66.710  1.00  0.00    -0.319 A  
BRANCH   9  12
HETATM   12  O   UNL     1     -10.028   9.351  66.739  1.00  0.00    -0.203 OA 
BRANCH  12  13
HETATM   13  C   UNL     1      -8.899   8.545  66.906  1.00  0.00    -0.137 C  
HETATM   14  O   UNL     1      -7.834   8.638  66.316  1.00  0.00    -0.098 OA 
BRANCH  13  15
HETATM   15  C   UNL     1      -9.147   7.542  67.973  1.00  0.00    -0.131 A  
HETATM   16  C   UNL     1      -8.745   7.798  69.297  1.00  0.00    -0.139 A  
HETATM   17  C   UNL     1      -9.015   6.874  70.311  1.00  0.00    -0.152 A  
HETATM   18  C   UNL     1      -9.693   5.693  70.023  1.00  0.00    -0.227 A  
HETATM   19  C   UNL     1     -10.111   5.432  68.721  1.00  0.00    -0.255 A  
HETATM   20  C   UNL     1      -9.817   6.343  67.695  1.00  0.00    -0.121 A  
BRANCH  20  21
HETATM   21  O   UNL     1     -10.317   6.066  66.406  1.00  0.00    -0.155 OA 
BRANCH  21  22
HETATM   22  C   UNL     1      -9.631   5.106  65.667  1.00  0.00    -0.087 C  
HETATM   23  O   UNL     1      -8.426   4.892  65.691  1.00  0.00    -0.117 OA 
HETATM   24  C   UNL     1     -10.614   4.278  64.893  1.00  0.00    -0.160 C  
ENDBRANCH  21  22
ENDBRANCH  20  21
ENDBRANCH  13  15
ENDBRANCH  12  13
ENDBRANCH   9  12
ENDBRANCH   3   6
TORSDOF 6
ENDMDL
MODEL      238
REMARK 921   NORMALIZED FREE ENERGY PREDICTED BY IDOCK:   -3.00 KCAL/MOL
REMARK 922        TOTAL FREE ENERGY PREDICTED BY IDOCK:   -5.53 KCAL/MOL
REMARK 923 INTER-LIGAND FREE ENERGY PREDICTED BY IDOCK:   -4.77 KCAL/MOL
REMARK 924 INTRA-LIGAND FREE ENERGY PREDICTED BY IDOCK:   -0.76 KCAL/MOL
REMARK 927      BINDING AFFINITY PREDICTED BY RF-SCORE:    0.00 PKD
ROOT
HETATM    1  C   UNL     1      -9.095  10.442  62.739  1.00  0.00    -0.298 C  
HETATM    2  C   UNL     1      -9.391   9.903  64.116  1.00  0.00    -0.237 C  
HETATM    3  N   UNL     1      -8.577   8.835  64.457  1.00  0.00    -0.330 N  
HETATM    4  O   UNL     1     -10.268  10.416  64.802  1.00  0.00    -0.345 OA 
HETATM    5  H   UNL     1      -7.889   8.543  63.762  1.00  0.00     0.000 HD 
ENDROOT
BRANCH   3   6
HETATM    6  C   UNL     1      -8.601   8.105  65.669  1.00  0.00    -0.158 A  
HETATM    7  C   UNL     1      -9.017   6.775  65.757  1.00  0.00    -0.043 A  
HETATM    8  C   UNL     1      -8.997   6.090  66.974  1.00  0.00    -0.113 A  
HETATM    9  C   UNL     1      -8.531   6.719  68.123  1.00  0.00    -0.121 A  
HETATM   10  C   UNL     1      -8.180   8.748  66.842  1.00  0.00    -0.108 A  
HETATM   11  C   UNL     1      -8.152   8.062  68.067  1.00  0.00    -0.129 A  
BRANCH   9  12
HETATM   12  O   UNL     1      -8.393   6.077  69.380  1.00  0.00    -0.112 OA 
BRANCH  12  13
HETATM   13  C   UNL     1      -9.450   5.454  70.048  1.00  0.00    -0.160 C  
HETATM   14  O   UNL     1      -9.793   4.286  69.959  1.00  0.00    -0.215 OA 
BRANCH  13  15
HETATM   15  C   UNL     1     -10.111   6.422  70.962  1.00  0.00    -0.212 A  
HETATM   16  C   UNL     1     -10.950   7.427  70.447  1.00  0.00    -0.269 A  
HETATM   17  C   UNL     1     -11.605   8.313  71.307  1.00  0.00    -0.318 A  
HETATM   18  C   UNL     1     -11.443   8.203  72.686  1.00  0.00    -0.454 A  
HETATM   19  C   UNL     1     -10.628   7.204  73.212  1.00  0.00    -0.405 A  
HETATM   20  C   UNL     1      -9.945   6.331  72.351  1.00  0.00    -0.172 A  
BRANCH  20  21
HETATM   21  O   UNL     1      -9.185   5.296  72.932  1.00  0.00    -0.132 OA 
BRANCH  21  22
HETATM   22  C   UNL     1      -9.886   4.164  73.340  1.00  0.00    -0.123 C  
HETATM   23  O   UNL     1     -11.100   4.064  73.462  1.00  0.00    -0.240 OA 
HETATM   24  C   UNL     1      -8.930   3.022  73.513  1.00  0.00    -0.081 C  
ENDBRANCH  21  22
ENDBRANCH  20  21
ENDBRANCH  13  15
ENDBRANCH  12  13
ENDBRANCH   9  12
ENDBRANCH   3   6
TORSDOF 6
ENDMDL
MODEL      239
REMARK 921   NORMALIZED FREE ENERGY PREDICTED BY IDOCK:   -3.00 KCAL/MOL
REMARK 922        TOTAL FREE ENERGY PREDICTED BY IDOCK:   -5.53 KCAL/MOL
REMARK 923 INTER-LIGAND FREE ENERGY PREDICTED BY IDOCK:   -4.59 KCAL/MOL
REMARK 924 INTRA-LIGAND FREE ENERGY PREDICTED BY IDOCK:   -0.94 KCAL/MOL
REMARK 927      BINDING AFFINITY PREDICTED BY RF-SCORE:    0.00 PKD
ROOT
HETATM    1  C   UNL     1      -9.198   2.794  65.768  1.00  0.00    -0.094 C  
HETATM    2  C   UNL     1      -9.510   4.268  65.817  1.00  0.00    -0.176 C  
HETATM    3  N   UNL     1      -8.385   5.045  66.046  1.00  0.00    -0.113 N  
HETATM    4  O   UNL     1     -10.660   4.660  65.656  1.00  0.00    -0.287 OA 
HETATM    5  H   UNL     1      -7.500   4.549  66.148  1.00  0.00     0.000 HD 
ENDROOT
BRANCH   3   6
HETATM    6  C   UNL     1      -8.336   6.455  66.152  1.00  0.00    -0.128 A  
HETATM    7  C   UNL     1      -8.406   7.312  65.051  1.00  0.00    -0.054 A  
HETATM    8  C   UNL     1      -8.382   8.698  65.211  1.00  0.00    -0.177 A  
HETATM    9  C   UNL     1      -8.313   9.255  66.483  1.00  0.00    -0.126 A  
HETATM   10  C   UNL     1      -8.217   7.023  67.429  1.00  0.00    -0.119 A  
HETATM   11  C   UNL     1      -8.197   8.417  67.595  1.00  0.00    -0.126 A  
BRANCH   9  12
HETATM   12  O   UNL     1      -8.370  10.647  66.746  1.00  0.00    -0.126 OA 
BRANCH  12  13
HETATM   13  C   UNL     1      -9.525  11.303  67.179  1.00  0.00    -0.170 C  
HETATM   14  O   UNL     1     -10.591  10.794  67.487  1.00  0.00    -0.205 OA 
BRANCH  13  15
HETATM   15  C   UNL     1      -9.272  12.765  67.269  1.00  0.00    -0.203 A  
HETATM   16  C   UNL     1      -8.474  13.285  68.304  1.00  0.00    -0.160 A  
HETATM   17  C   UNL     1      -8.200  14.655  68.368  1.00  0.00    -0.154 A  
HETATM   18  C   UNL     1      -8.706  15.518  67.400  1.00  0.00    -0.194 A  
HETATM   19  C   UNL     1      -9.485  15.016  66.360  1.00  0.00    -0.325 A  
HETATM   20  C   UNL     1      -9.787  13.647  66.309  1.00  0.00    -0.301 A  
BRANCH  20  21
HETATM   21  O   UNL     1     -10.523  13.176  65.203  1.00  0.00    -0.302 OA 
BRANCH  21  22
HETATM   22  C   UNL     1     -11.886  13.462  65.197  1.00  0.00    -0.350 C  
HETATM   23  O   UNL     1     -12.649  13.392  66.152  1.00  0.00    -0.365 OA 
HETATM   24  C   UNL     1     -12.279  13.983  63.847  1.00  0.00    -0.336 C  
ENDBRANCH  21  22
ENDBRANCH  20  21
ENDBRANCH  13  15
ENDBRANCH  12  13
ENDBRANCH   9  12
ENDBRANCH   3   6
TORSDOF 6
ENDMDL
MODEL      240
REMARK 921   NORMALIZED FREE ENERGY PREDICTED BY IDOCK:   -2.99 KCAL/MOL
REMARK 922        TOTAL FREE ENERGY PREDICTED BY IDOCK:   -5.52 KCAL/MOL
REMARK 923 INTER-LIGAND FREE ENERGY PREDICTED BY IDOCK:   -5.07 KCAL/MOL
REMARK 924 INTRA-LIGAND FREE ENERGY PREDICTED BY IDOCK:   -0.45 KCAL/MOL
REMARK 927      BINDING AFFINITY PREDICTED BY RF-SCORE:    0.00 PKD
ROOT
HETATM    1  C   UNL     1     -12.280  14.738  64.373  1.00  0.00    -0.447 C  
HETATM    2  C   UNL     1     -11.811  13.380  64.831  1.00  0.00    -0.372 C  
HETATM    3  N   UNL     1     -11.079  13.437  66.007  1.00  0.00    -0.282 N  
HETATM    4  O   UNL     1     -12.094  12.380  64.183  1.00  0.00    -0.394 OA 
HETATM    5  H   UNL     1     -10.947  14.361  66.419  1.00  0.00     0.000 HD 
ENDROOT
BRANCH   3   6
HETATM    6  C   UNL     1     -10.496  12.346  66.695  1.00  0.00    -0.229 A  
HETATM    7  C   UNL     1      -9.385  11.644  66.221  1.00  0.00    -0.228 A  
HETATM    8  C   UNL     1      -8.830  10.592  66.951  1.00  0.00    -0.143 A  
HETATM    9  C   UNL     1      -9.362  10.240  68.186  1.00  0.00    -0.139 A  
HETATM   10  C   UNL     1     -11.058  11.953  67.918  1.00  0.00    -0.297 A  
HETATM   11  C   UNL     1     -10.499  10.899  68.658  1.00  0.00    -0.216 A  
BRANCH   9  12
HETATM   12  O   UNL     1      -8.812   9.246  69.034  1.00  0.00    -0.131 OA 
BRANCH  12  13
HETATM   13  C   UNL     1      -7.898   9.521  70.055  1.00  0.00    -0.151 C  
HETATM   14  O   UNL     1      -7.363  10.592  70.295  1.00  0.00    -0.206 OA 
BRANCH  13  15
HETATM   15  C   UNL     1      -7.682   8.306  70.882  1.00  0.00    -0.082 A  
HETATM   16  C   UNL     1      -6.636   7.416  70.577  1.00  0.00    -0.043 A  
HETATM   17  C   UNL     1      -6.405   6.293  71.378  1.00  0.00    -0.049 A  
HETATM   18  C   UNL     1      -7.201   6.050  72.494  1.00  0.00    -0.086 A  
HETATM   19  C   UNL     1      -8.230   6.930  72.818  1.00  0.00    -0.116 A  
HETATM   20  C   UNL     1      -8.485   8.042  72.000  1.00  0.00    -0.144 A  
BRANCH  20  21
HETATM   21  O   UNL     1      -9.494   8.939  72.405  1.00  0.00    -0.315 OA 
BRANCH  21  22
HETATM   22  C   UNL     1     -10.754   8.751  71.843  1.00  0.00    -0.359 C  
HETATM   23  O   UNL     1     -11.587   9.619  71.618  1.00  0.00    -0.382 OA 
HETATM   24  C   UNL     1     -10.912   7.315  71.445  1.00  0.00    -0.256 C  
ENDBRANCH  21  22
ENDBRANCH  20  21
ENDBRANCH  13  15
ENDBRANCH  12  13
ENDBRANCH   9  12
ENDBRANCH   3   6
TORSDOF 6
ENDMDL
MODEL      241
REMARK 921   NORMALIZED FREE ENERGY PREDICTED BY IDOCK:   -2.98 KCAL/MOL
REMARK 922        TOTAL FREE ENERGY PREDICTED BY IDOCK:   -5.51 KCAL/MOL
REMARK 923 INTER-LIGAND FREE ENERGY PREDICTED BY IDOCK:   -4.12 KCAL/MOL
REMARK 924 INTRA-LIGAND FREE ENERGY PREDICTED BY IDOCK:   -1.39 KCAL/MOL
REMARK 927      BINDING AFFINITY PREDICTED BY RF-SCORE:    0.00 PKD
ROOT
HETATM    1  C   UNL     1     -12.438   9.089  72.257  1.00  0.00    -0.427 C  
HETATM    2  C   UNL     1     -12.396   7.842  71.411  1.00  0.00    -0.323 C  
HETATM    3  N   UNL     1     -11.177   7.670  70.774  1.00  0.00    -0.266 N  
HETATM    4  O   UNL     1     -13.374   7.105  71.352  1.00  0.00    -0.381 OA 
HETATM    5  H   UNL     1     -10.467   8.382  70.945  1.00  0.00     0.000 HD 
ENDROOT
BRANCH   3   6
HETATM    6  C   UNL     1     -10.816   6.610  69.909  1.00  0.00    -0.278 A  
HETATM    7  C   UNL     1     -11.026   6.638  68.529  1.00  0.00    -0.314 A  
HETATM    8  C   UNL     1     -10.626   5.577  67.715  1.00  0.00    -0.229 A  
HETATM    9  C   UNL     1      -9.982   4.476  68.267  1.00  0.00    -0.028 A  
HETATM   10  C   UNL     1     -10.210   5.474  70.465  1.00  0.00    -0.311 A  
HETATM   11  C   UNL     1      -9.801   4.407  69.650  1.00  0.00    -0.272 A  
BRANCH   9  12
HETATM   12  O   UNL     1      -9.465   3.395  67.509  1.00  0.00    -0.205 OA 
BRANCH  12  13
HETATM   13  C   UNL     1      -8.179   3.383  66.961  1.00  0.00    -0.091 C  
HETATM   14  O   UNL     1      -7.172   2.902  67.455  1.00  0.00    -0.052 OA 
BRANCH  13  15
HETATM   15  C   UNL     1      -8.197   4.014  65.616  1.00  0.00    -0.105 A  
HETATM   16  C   UNL     1      -9.016   3.494  64.597  1.00  0.00    -0.127 A  
HETATM   17  C   UNL     1      -9.067   4.111  63.344  1.00  0.00    -0.132 A  
HETATM   18  C   UNL     1      -8.314   5.254  63.093  1.00  0.00    -0.108 A  
HETATM   19  C   UNL     1      -7.510   5.791  64.096  1.00  0.00    -0.072 A  
HETATM   20  C   UNL     1      -7.434   5.159  65.346  1.00  0.00    -0.077 A  
BRANCH  20  21
HETATM   21  O   UNL     1      -6.659   5.775  66.349  1.00  0.00    -0.052 OA 
BRANCH  21  22
HETATM   22  C   UNL     1      -7.275   6.792  67.073  1.00  0.00    -0.081 C  
HETATM   23  O   UNL     1      -8.017   7.657  66.627  1.00  0.00    -0.103 OA 
HETATM   24  C   UNL     1      -6.980   6.611  68.533  1.00  0.00    -0.080 C  
ENDBRANCH  21  22
ENDBRANCH  20  21
ENDBRANCH  13  15
ENDBRANCH  12  13
ENDBRANCH   9  12
ENDBRANCH   3   6
TORSDOF 6
ENDMDL
MODEL      242
REMARK 921   NORMALIZED FREE ENERGY PREDICTED BY IDOCK:   -2.97 KCAL/MOL
REMARK 922        TOTAL FREE ENERGY PREDICTED BY IDOCK:   -5.49 KCAL/MOL
REMARK 923 INTER-LIGAND FREE ENERGY PREDICTED BY IDOCK:   -4.10 KCAL/MOL
REMARK 924 INTRA-LIGAND FREE ENERGY PREDICTED BY IDOCK:   -1.39 KCAL/MOL
REMARK 927      BINDING AFFINITY PREDICTED BY RF-SCORE:    0.00 PKD
ROOT
HETATM    1  C   UNL     1      -8.705  17.661  66.134  1.00  0.00    -0.141 C  
HETATM    2  C   UNL     1      -9.612  16.462  66.245  1.00  0.00    -0.311 C  
HETATM    3  N   UNL     1      -8.921  15.292  66.516  1.00  0.00    -0.289 N  
HETATM    4  O   UNL     1     -10.823  16.592  66.105  1.00  0.00    -0.197 OA 
HETATM    5  H   UNL     1      -7.908  15.371  66.610  1.00  0.00     0.000 HD 
ENDROOT
BRANCH   3   6
HETATM    6  C   UNL     1      -9.473  13.999  66.675  1.00  0.00    -0.287 A  
HETATM    7  C   UNL     1      -9.736  13.139  65.607  1.00  0.00    -0.107 A  
HETATM    8  C   UNL     1     -10.257  11.861  65.818  1.00  0.00    -0.276 A  
HETATM    9  C   UNL     1     -10.499  11.410  67.111  1.00  0.00    -0.224 A  
HETATM   10  C   UNL     1      -9.767  13.555  67.973  1.00  0.00    -0.228 A  
HETATM   11  C   UNL     1     -10.285  12.269  68.191  1.00  0.00    -0.212 A  
BRANCH   9  12
HETATM   12  O   UNL     1     -10.944  10.101  67.425  1.00  0.00    -0.292 OA 
BRANCH  12  13
HETATM   13  C   UNL     1     -10.166   8.955  67.236  1.00  0.00    -0.258 C  
HETATM   14  O   UNL     1     -10.273   8.132  66.341  1.00  0.00    -0.239 OA 
BRANCH  13  15
HETATM   15  C   UNL     1      -9.111   8.882  68.280  1.00  0.00    -0.140 A  
HETATM   16  C   UNL     1      -9.417   8.404  69.567  1.00  0.00    -0.166 A  
HETATM   17  C   UNL     1      -8.418   8.294  70.539  1.00  0.00    -0.129 A  
HETATM   18  C   UNL     1      -7.105   8.649  70.239  1.00  0.00    -0.042 A  
HETATM   19  C   UNL     1      -6.783   9.110  68.965  1.00  0.00    -0.055 A  
HETATM   20  C   UNL     1      -7.788   9.248  67.995  1.00  0.00    -0.092 A  
BRANCH  20  21
HETATM   21  O   UNL     1      -7.403   9.656  66.702  1.00  0.00    -0.089 OA 
BRANCH  21  22
HETATM   22  C   UNL     1      -6.605  10.794  66.621  1.00  0.00    -0.112 C  
HETATM   23  O   UNL     1      -6.772  11.845  67.227  1.00  0.00    -0.112 OA 
HETATM   24  C   UNL     1      -5.421  10.510  65.747  1.00  0.00    -0.102 C  
ENDBRANCH  21  22
ENDBRANCH  20  21
ENDBRANCH  13  15
ENDBRANCH  12  13
ENDBRANCH   9  12
ENDBRANCH   3   6
TORSDOF 6
ENDMDL
MODEL      243
REMARK 921   NORMALIZED FREE ENERGY PREDICTED BY IDOCK:   -2.97 KCAL/MOL
REMARK 922        TOTAL FREE ENERGY PREDICTED BY IDOCK:   -5.49 KCAL/MOL
REMARK 923 INTER-LIGAND FREE ENERGY PREDICTED BY IDOCK:   -4.73 KCAL/MOL
REMARK 924 INTRA-LIGAND FREE ENERGY PREDICTED BY IDOCK:   -0.75 KCAL/MOL
REMARK 927      BINDING AFFINITY PREDICTED BY RF-SCORE:    0.00 PKD
ROOT
HETATM    1  C   UNL     1      -8.969   1.748  64.799  1.00  0.00    -0.117 C  
HETATM    2  C   UNL     1      -8.776   3.056  65.524  1.00  0.00    -0.123 C  
HETATM    3  N   UNL     1      -9.782   3.970  65.252  1.00  0.00    -0.185 N  
HETATM    4  O   UNL     1      -7.812   3.214  66.263  1.00  0.00    -0.077 OA 
HETATM    5  H   UNL     1     -10.518   3.665  64.615  1.00  0.00     0.000 HD 
ENDROOT
BRANCH   3   6
HETATM    6  C   UNL     1      -9.894   5.284  65.765  1.00  0.00    -0.036 A  
HETATM    7  C   UNL     1     -11.057   5.780  66.359  1.00  0.00     0.073 A  
HETATM    8  C   UNL     1     -11.109   7.076  66.876  1.00  0.00    -0.142 A  
HETATM    9  C   UNL     1      -9.984   7.893  66.831  1.00  0.00    -0.262 A  
HETATM   10  C   UNL     1      -8.780   6.131  65.679  1.00  0.00    -0.133 A  
HETATM   11  C   UNL     1      -8.825   7.433  66.202  1.00  0.00    -0.185 A  
BRANCH   9  12
HETATM   12  O   UNL     1      -9.918   9.187  67.406  1.00  0.00    -0.178 OA 
BRANCH  12  13
HETATM   13  C   UNL     1      -9.272  10.268  66.801  1.00  0.00    -0.157 C  
HETATM   14  O   UNL     1      -8.191  10.745  67.107  1.00  0.00    -0.120 OA 
BRANCH  13  15
HETATM   15  C   UNL     1     -10.077  10.761  65.654  1.00  0.00    -0.327 A  
HETATM   16  C   UNL     1      -9.722  10.418  64.336  1.00  0.00    -0.396 A  
HETATM   17  C   UNL     1     -10.502  10.845  63.258  1.00  0.00    -0.145 A  
HETATM   18  C   UNL     1     -11.646  11.608  63.477  1.00  0.00    -0.408 A  
HETATM   19  C   UNL     1     -12.019  11.943  64.776  1.00  0.00    -0.222 A  
HETATM   20  C   UNL     1     -11.224  11.541  65.859  1.00  0.00    -0.177 A  
BRANCH  20  21
HETATM   21  O   UNL     1     -11.678  11.847  67.158  1.00  0.00    -0.528 OA 
BRANCH  21  22
HETATM   22  C   UNL     1     -11.187  13.019  67.727  1.00  0.00    -0.279 C  
HETATM   23  O   UNL     1     -10.286  13.721  67.286  1.00  0.00    -0.249 OA 
HETATM   24  C   UNL     1     -12.007  13.369  68.932  1.00  0.00    -0.362 C  
ENDBRANCH  21  22
ENDBRANCH  20  21
ENDBRANCH  13  15
ENDBRANCH  12  13
ENDBRANCH   9  12
ENDBRANCH   3   6
TORSDOF 6
ENDMDL
MODEL      244
REMARK 921   NORMALIZED FREE ENERGY PREDICTED BY IDOCK:   -2.96 KCAL/MOL
REMARK 922        TOTAL FREE ENERGY PREDICTED BY IDOCK:   -5.48 KCAL/MOL
REMARK 923 INTER-LIGAND FREE ENERGY PREDICTED BY IDOCK:   -4.46 KCAL/MOL
REMARK 924 INTRA-LIGAND FREE ENERGY PREDICTED BY IDOCK:   -1.03 KCAL/MOL
REMARK 927      BINDING AFFINITY PREDICTED BY RF-SCORE:    0.00 PKD
ROOT
HETATM    1  C   UNL     1     -11.782  15.029  67.563  1.00  0.00    -0.270 C  
HETATM    2  C   UNL     1     -10.915  14.005  66.876  1.00  0.00    -0.298 C  
HETATM    3  N   UNL     1     -10.841  12.811  67.576  1.00  0.00    -0.235 N  
HETATM    4  O   UNL     1     -10.374  14.273  65.809  1.00  0.00    -0.299 OA 
HETATM    5  H   UNL     1     -11.367  12.759  68.448  1.00  0.00     0.000 HD 
ENDROOT
BRANCH   3   6
HETATM    6  C   UNL     1     -10.111  11.656  67.206  1.00  0.00    -0.199 A  
HETATM    7  C   UNL     1     -10.454  10.844  66.123  1.00  0.00    -0.290 A  
HETATM    8  C   UNL     1      -9.685   9.730  65.783  1.00  0.00    -0.340 A  
HETATM    9  C   UNL     1      -8.539   9.423  66.507  1.00  0.00    -0.134 A  
HETATM   10  C   UNL     1      -8.982  11.312  67.963  1.00  0.00    -0.156 A  
HETATM   11  C   UNL     1      -8.202  10.195  67.621  1.00  0.00    -0.110 A  
BRANCH   9  12
HETATM   12  O   UNL     1      -7.652   8.366  66.182  1.00  0.00    -0.086 OA 
BRANCH  12  13
HETATM   13  C   UNL     1      -7.584   7.168  66.898  1.00  0.00    -0.101 C  
HETATM   14  O   UNL     1      -6.902   6.936  67.884  1.00  0.00    -0.074 OA 
BRANCH  13  15
HETATM   15  C   UNL     1      -8.524   6.176  66.315  1.00  0.00    -0.132 A  
HETATM   16  C   UNL     1      -8.080   5.263  65.341  1.00  0.00    -0.121 A  
HETATM   17  C   UNL     1      -8.952   4.302  64.820  1.00  0.00    -0.145 A  
HETATM   18  C   UNL     1     -10.268   4.230  65.269  1.00  0.00    -0.234 A  
HETATM   19  C   UNL     1     -10.718   5.116  66.244  1.00  0.00    -0.272 A  
HETATM   20  C   UNL     1      -9.856   6.102  66.748  1.00  0.00    -0.164 A  
BRANCH  20  21
HETATM   21  O   UNL     1     -10.337   6.932  67.780  1.00  0.00    -0.171 OA 
BRANCH  21  22
HETATM   22  C   UNL     1     -10.330   6.395  69.065  1.00  0.00    -0.199 C  
HETATM   23  O   UNL     1     -10.642   5.253  69.378  1.00  0.00    -0.252 OA 
HETATM   24  C   UNL     1      -9.773   7.404  70.023  1.00  0.00    -0.175 C  
ENDBRANCH  21  22
ENDBRANCH  20  21
ENDBRANCH  13  15
ENDBRANCH  12  13
ENDBRANCH   9  12
ENDBRANCH   3   6
TORSDOF 6
ENDMDL
MODEL      245
REMARK 921   NORMALIZED FREE ENERGY PREDICTED BY IDOCK:   -2.94 KCAL/MOL
REMARK 922        TOTAL FREE ENERGY PREDICTED BY IDOCK:   -5.44 KCAL/MOL
REMARK 923 INTER-LIGAND FREE ENERGY PREDICTED BY IDOCK:   -4.17 KCAL/MOL
REMARK 924 INTRA-LIGAND FREE ENERGY PREDICTED BY IDOCK:   -1.28 KCAL/MOL
REMARK 927      BINDING AFFINITY PREDICTED BY RF-SCORE:    0.00 PKD
ROOT
HETATM    1  C   UNL     1      -9.127   4.397  62.511  1.00  0.00    -0.126 C  
HETATM    2  C   UNL     1      -9.751   4.134  63.858  1.00  0.00    -0.124 C  
HETATM    3  N   UNL     1      -9.349   5.047  64.820  1.00  0.00    -0.352 N  
HETATM    4  O   UNL     1     -10.528   3.198  64.005  1.00  0.00    -0.191 OA 
HETATM    5  H   UNL     1      -8.699   5.773  64.518  1.00  0.00     0.000 HD 
ENDROOT
BRANCH   3   6
HETATM    6  C   UNL     1      -9.746   5.077  66.178  1.00  0.00    -0.183 A  
HETATM    7  C   UNL     1      -9.351   4.119  67.115  1.00  0.00    -0.198 A  
HETATM    8  C   UNL     1      -9.747   4.208  68.451  1.00  0.00    -0.150 A  
HETATM    9  C   UNL     1     -10.527   5.276  68.879  1.00  0.00    -0.120 A  
HETATM   10  C   UNL     1     -10.573   6.124  66.608  1.00  0.00    -0.296 A  
HETATM   11  C   UNL     1     -10.970   6.221  67.951  1.00  0.00    -0.421 A  
BRANCH   9  12
HETATM   12  O   UNL     1     -10.904   5.494  70.229  1.00  0.00    -0.289 OA 
BRANCH  12  13
HETATM   13  C   UNL     1     -10.158   5.041  71.320  1.00  0.00    -0.206 C  
HETATM   14  O   UNL     1     -10.061   3.891  71.719  1.00  0.00    -0.178 OA 
BRANCH  13  15
HETATM   15  C   UNL     1      -9.426   6.175  71.939  1.00  0.00    -0.160 A  
HETATM   16  C   UNL     1     -10.005   6.905  72.993  1.00  0.00    -0.212 A  
HETATM   17  C   UNL     1      -9.301   7.947  73.605  1.00  0.00    -0.288 A  
HETATM   18  C   UNL     1      -8.012   8.266  73.184  1.00  0.00    -0.199 A  
HETATM   19  C   UNL     1      -7.419   7.543  72.153  1.00  0.00    -0.080 A  
HETATM   20  C   UNL     1      -8.133   6.516  71.516  1.00  0.00    -0.112 A  
BRANCH  20  21
HETATM   21  O   UNL     1      -7.467   5.770  70.523  1.00  0.00    -0.081 OA 
BRANCH  21  22
HETATM   22  C   UNL     1      -7.044   6.473  69.397  1.00  0.00    -0.077 C  
HETATM   23  O   UNL     1      -7.709   7.260  68.738  1.00  0.00    -0.114 OA 
HETATM   24  C   UNL     1      -5.588   6.202  69.161  1.00  0.00    -0.012 C  
ENDBRANCH  21  22
ENDBRANCH  20  21
ENDBRANCH  13  15
ENDBRANCH  12  13
ENDBRANCH   9  12
ENDBRANCH   3   6
TORSDOF 6
ENDMDL
MODEL      246
REMARK 921   NORMALIZED FREE ENERGY PREDICTED BY IDOCK:   -2.92 KCAL/MOL
REMARK 922        TOTAL FREE ENERGY PREDICTED BY IDOCK:   -5.42 KCAL/MOL
REMARK 923 INTER-LIGAND FREE ENERGY PREDICTED BY IDOCK:   -4.29 KCAL/MOL
REMARK 924 INTRA-LIGAND FREE ENERGY PREDICTED BY IDOCK:   -1.13 KCAL/MOL
REMARK 927      BINDING AFFINITY PREDICTED BY RF-SCORE:    0.00 PKD
ROOT
HETATM    1  C   UNL     1     -14.334   8.839  72.930  1.00  0.00     0.104 C  
HETATM    2  C   UNL     1     -13.336   8.783  71.801  1.00  0.00    -0.378 C  
HETATM    3  N   UNL     1     -12.485   7.693  71.894  1.00  0.00    -0.326 N  
HETATM    4  O   UNL     1     -13.347   9.642  70.927  1.00  0.00    -0.279 OA 
HETATM    5  H   UNL     1     -12.626   7.070  72.689  1.00  0.00     0.000 HD 
ENDROOT
BRANCH   3   6
HETATM    6  C   UNL     1     -11.440   7.356  71.001  1.00  0.00    -0.282 A  
HETATM    7  C   UNL     1     -11.554   6.361  70.027  1.00  0.00    -0.446 A  
HETATM    8  C   UNL     1     -10.502   6.084  69.151  1.00  0.00    -0.321 A  
HETATM    9  C   UNL     1      -9.324   6.818  69.218  1.00  0.00    -0.144 A  
HETATM   10  C   UNL     1     -10.231   8.058  71.095  1.00  0.00    -0.225 A  
HETATM   11  C   UNL     1      -9.172   7.787  70.213  1.00  0.00    -0.156 A  
BRANCH   9  12
HETATM   12  O   UNL     1      -8.240   6.666  68.317  1.00  0.00    -0.113 OA 
BRANCH  12  13
HETATM   13  C   UNL     1      -8.159   7.329  67.089  1.00  0.00    -0.114 C  
HETATM   14  O   UNL     1      -8.600   6.949  66.016  1.00  0.00    -0.137 OA 
BRANCH  13  15
HETATM   15  C   UNL     1      -7.477   8.637  67.265  1.00  0.00    -0.089 A  
HETATM   16  C   UNL     1      -6.187   8.697  67.825  1.00  0.00    -0.056 A  
HETATM   17  C   UNL     1      -5.526   9.922  67.953  1.00  0.00    -0.039 A  
HETATM   18  C   UNL     1      -6.134  11.097  67.517  1.00  0.00    -0.052 A  
HETATM   19  C   UNL     1      -7.403  11.052  66.947  1.00  0.00    -0.133 A  
HETATM   20  C   UNL     1      -8.082   9.829  66.843  1.00  0.00    -0.113 A  
BRANCH  20  21
HETATM   21  O   UNL     1      -9.336   9.825  66.199  1.00  0.00    -0.167 OA 
BRANCH  21  22
HETATM   22  C   UNL     1     -10.414  10.309  66.935  1.00  0.00    -0.229 C  
HETATM   23  O   UNL     1     -10.908   9.791  67.928  1.00  0.00    -0.266 OA 
HETATM   24  C   UNL     1     -10.830  11.643  66.391  1.00  0.00    -0.333 C  
ENDBRANCH  21  22
ENDBRANCH  20  21
ENDBRANCH  13  15
ENDBRANCH  12  13
ENDBRANCH   9  12
ENDBRANCH   3   6
TORSDOF 6
ENDMDL
MODEL      247
REMARK 921   NORMALIZED FREE ENERGY PREDICTED BY IDOCK:   -2.87 KCAL/MOL
REMARK 922        TOTAL FREE ENERGY PREDICTED BY IDOCK:   -5.36 KCAL/MOL
REMARK 923 INTER-LIGAND FREE ENERGY PREDICTED BY IDOCK:   -4.45 KCAL/MOL
REMARK 924 INTRA-LIGAND FREE ENERGY PREDICTED BY IDOCK:   -0.91 KCAL/MOL
REMARK 927      BINDING AFFINITY PREDICTED BY RF-SCORE:    0.00 PKD
ROOT
HETATM    1  C   UNL     1      -9.298  15.989  68.556  1.00  0.00    -0.213 C  
HETATM    2  C   UNL     1      -9.439  14.706  67.776  1.00  0.00    -0.205 C  
HETATM    3  N   UNL     1      -9.612  13.601  68.594  1.00  0.00    -0.379 N  
HETATM    4  O   UNL     1      -9.400  14.723  66.552  1.00  0.00    -0.261 OA 
HETATM    5  H   UNL     1      -9.628  13.774  69.600  1.00  0.00     0.000 HD 
ENDROOT
BRANCH   3   6
HETATM    6  C   UNL     1      -9.769  12.257  68.180  1.00  0.00    -0.213 A  
HETATM    7  C   UNL     1     -11.013  11.655  67.980  1.00  0.00    -0.275 A  
HETATM    8  C   UNL     1     -11.115  10.332  67.544  1.00  0.00    -0.302 A  
HETATM    9  C   UNL     1      -9.967   9.595  67.275  1.00  0.00    -0.197 A  
HETATM   10  C   UNL     1      -8.617  11.491  67.954  1.00  0.00    -0.143 A  
HETATM   11  C   UNL     1      -8.713  10.162  67.511  1.00  0.00    -0.125 A  
BRANCH   9  12
HETATM   12  O   UNL     1      -9.975   8.278  66.748  1.00  0.00    -0.235 OA 
BRANCH  12  13
HETATM   13  C   UNL     1     -10.596   7.198  67.380  1.00  0.00    -0.302 C  
HETATM   14  O   UNL     1     -11.402   6.422  66.890  1.00  0.00    -0.304 OA 
BRANCH  13  15
HETATM   15  C   UNL     1     -10.098   7.072  68.773  1.00  0.00    -0.170 A  
HETATM   16  C   UNL     1     -10.959   7.311  69.860  1.00  0.00    -0.262 A  
HETATM   17  C   UNL     1     -10.504   7.152  71.173  1.00  0.00    -0.225 A  
HETATM   18  C   UNL     1      -9.195   6.746  71.419  1.00  0.00    -0.153 A  
HETATM   19  C   UNL     1      -8.335   6.491  70.354  1.00  0.00    -0.127 A  
HETATM   20  C   UNL     1      -8.778   6.676  69.035  1.00  0.00    -0.129 A  
BRANCH  20  21
HETATM   21  O   UNL     1      -7.893   6.342  67.991  1.00  0.00    -0.102 OA 
BRANCH  21  22
HETATM   22  C   UNL     1      -6.970   5.334  68.257  1.00  0.00    -0.061 C  
HETATM   23  O   UNL     1      -7.208   4.138  68.363  1.00  0.00    -0.055 OA 
HETATM   24  C   UNL     1      -5.590   5.920  68.292  1.00  0.00    -0.008 C  
ENDBRANCH  21  22
ENDBRANCH  20  21
ENDBRANCH  13  15
ENDBRANCH  12  13
ENDBRANCH   9  12
ENDBRANCH   3   6
TORSDOF 6
ENDMDL
MODEL      248
REMARK 921   NORMALIZED FREE ENERGY PREDICTED BY IDOCK:   -2.86 KCAL/MOL
REMARK 922        TOTAL FREE ENERGY PREDICTED BY IDOCK:   -5.34 KCAL/MOL
REMARK 923 INTER-LIGAND FREE ENERGY PREDICTED BY IDOCK:   -3.83 KCAL/MOL
REMARK 924 INTRA-LIGAND FREE ENERGY PREDICTED BY IDOCK:   -1.51 KCAL/MOL
REMARK 927      BINDING AFFINITY PREDICTED BY RF-SCORE:    0.00 PKD
ROOT
HETATM    1  C   UNL     1      -9.076   2.701  65.132  1.00  0.00    -0.140 C  
HETATM    2  C   UNL     1      -9.143   4.011  65.875  1.00  0.00    -0.143 C  
HETATM    3  N   UNL     1      -7.908   4.631  65.978  1.00  0.00    -0.095 N  
HETATM    4  O   UNL     1     -10.215   4.420  66.305  1.00  0.00    -0.242 OA 
HETATM    5  H   UNL     1      -7.117   4.148  65.550  1.00  0.00     0.000 HD 
ENDROOT
BRANCH   3   6
HETATM    6  C   UNL     1      -7.629   5.864  66.615  1.00  0.00    -0.095 A  
HETATM    7  C   UNL     1      -7.616   7.089  65.944  1.00  0.00    -0.097 A  
HETATM    8  C   UNL     1      -7.361   8.282  66.623  1.00  0.00    -0.082 A  
HETATM    9  C   UNL     1      -7.141   8.272  67.996  1.00  0.00    -0.086 A  
HETATM   10  C   UNL     1      -7.356   5.856  67.990  1.00  0.00    -0.080 A  
HETATM   11  C   UNL     1      -7.105   7.054  68.678  1.00  0.00    -0.092 A  
BRANCH   9  12
HETATM   12  O   UNL     1      -6.961   9.439  68.780  1.00  0.00    -0.063 OA 
BRANCH  12  13
HETATM   13  C   UNL     1      -7.939   9.952  69.636  1.00  0.00    -0.162 C  
HETATM   14  O   UNL     1      -7.968   9.874  70.854  1.00  0.00    -0.198 OA 
BRANCH  13  15
HETATM   15  C   UNL     1      -8.967  10.681  68.849  1.00  0.00    -0.172 A  
HETATM   16  C   UNL     1      -8.603  11.778  68.047  1.00  0.00    -0.158 A  
HETATM   17  C   UNL     1      -9.561  12.440  67.273  1.00  0.00    -0.199 A  
HETATM   18  C   UNL     1     -10.886  12.013  67.279  1.00  0.00    -0.290 A  
HETATM   19  C   UNL     1     -11.260  10.919  68.055  1.00  0.00    -0.378 A  
HETATM   20  C   UNL     1     -10.308  10.270  68.856  1.00  0.00    -0.204 A  
BRANCH  20  21
HETATM   21  O   UNL     1     -10.719   9.128  69.573  1.00  0.00    -0.228 OA 
BRANCH  21  22
HETATM   22  C   UNL     1     -10.658   7.914  68.895  1.00  0.00    -0.145 C  
HETATM   23  O   UNL     1     -10.628   7.758  67.682  1.00  0.00    -0.239 OA 
HETATM   24  C   UNL     1     -10.524   6.797  69.887  1.00  0.00    -0.242 C  
ENDBRANCH  21  22
ENDBRANCH  20  21
ENDBRANCH  13  15
ENDBRANCH  12  13
ENDBRANCH   9  12
ENDBRANCH   3   6
TORSDOF 6
ENDMDL
MODEL      249
REMARK 921   NORMALIZED FREE ENERGY PREDICTED BY IDOCK:   -2.84 KCAL/MOL
REMARK 922        TOTAL FREE ENERGY PREDICTED BY IDOCK:   -5.32 KCAL/MOL
REMARK 923 INTER-LIGAND FREE ENERGY PREDICTED BY IDOCK:   -5.41 KCAL/MOL
REMARK 924 INTRA-LIGAND FREE ENERGY PREDICTED BY IDOCK:    0.09 KCAL/MOL
REMARK 927      BINDING AFFINITY PREDICTED BY RF-SCORE:    0.00 PKD
ROOT
HETATM    1  C   UNL     1     -10.147   4.108  74.308  1.00  0.00    -0.225 C  
HETATM    2  C   UNL     1     -10.000   4.973  73.082  1.00  0.00    -0.159 C  
HETATM    3  N   UNL     1     -10.690   6.170  73.187  1.00  0.00    -0.248 N  
HETATM    4  O   UNL     1      -9.319   4.591  72.137  1.00  0.00    -0.127 OA 
HETATM    5  H   UNL     1     -11.201   6.329  74.055  1.00  0.00     0.000 HD 
ENDROOT
BRANCH   3   6
HETATM    6  C   UNL     1     -10.759   7.196  72.215  1.00  0.00    -0.221 A  
HETATM    7  C   UNL     1      -9.637   7.873  71.730  1.00  0.00    -0.214 A  
HETATM    8  C   UNL     1      -9.756   8.860  70.750  1.00  0.00    -0.281 A  
HETATM    9  C   UNL     1     -11.001   9.169  70.216  1.00  0.00    -0.245 A  
HETATM   10  C   UNL     1     -12.018   7.549  71.707  1.00  0.00    -0.334 A  
HETATM   11  C   UNL     1     -12.141   8.537  70.717  1.00  0.00    -0.075 A  
BRANCH   9  12
HETATM   12  O   UNL     1     -11.206  10.092  69.159  1.00  0.00    -0.225 OA 
BRANCH  12  13
HETATM   13  C   UNL     1     -10.193  10.899  68.633  1.00  0.00    -0.189 C  
HETATM   14  O   UNL     1      -9.616  11.817  69.193  1.00  0.00     0.080 OA 
BRANCH  13  15
HETATM   15  C   UNL     1      -9.855  10.452  67.257  1.00  0.00    -0.214 A  
HETATM   16  C   UNL     1      -9.205   9.221  67.049  1.00  0.00    -0.169 A  
HETATM   17  C   UNL     1      -8.923   8.779  65.753  1.00  0.00    -0.253 A  
HETATM   18  C   UNL     1      -9.293   9.547  64.652  1.00  0.00    -0.201 A  
HETATM   19  C   UNL     1      -9.950  10.760  64.841  1.00  0.00    -0.374 A  
HETATM   20  C   UNL     1     -10.210  11.222  66.140  1.00  0.00    -0.245 A  
BRANCH  20  21
HETATM   21  O   UNL     1     -10.935  12.422  66.279  1.00  0.00    -0.267 OA 
BRANCH  21  22
HETATM   22  C   UNL     1     -11.902  12.679  65.311  1.00  0.00    -0.408 C  
HETATM   23  O   UNL     1     -12.038  12.094  64.244  1.00  0.00    -0.386 OA 
HETATM   24  C   UNL     1     -12.845  13.730  65.816  1.00  0.00    -0.430 C  
ENDBRANCH  21  22
ENDBRANCH  20  21
ENDBRANCH  13  15
ENDBRANCH  12  13
ENDBRANCH   9  12
ENDBRANCH   3   6
TORSDOF 6
ENDMDL
MODEL      250
REMARK 921   NORMALIZED FREE ENERGY PREDICTED BY IDOCK:   -2.82 KCAL/MOL
REMARK 922        TOTAL FREE ENERGY PREDICTED BY IDOCK:   -5.29 KCAL/MOL
REMARK 923 INTER-LIGAND FREE ENERGY PREDICTED BY IDOCK:   -4.74 KCAL/MOL
REMARK 924 INTRA-LIGAND FREE ENERGY PREDICTED BY IDOCK:   -0.55 KCAL/MOL
REMARK 927      BINDING AFFINITY PREDICTED BY RF-SCORE:    0.00 PKD
ROOT
HETATM    1  C   UNL     1     -11.602  15.193  67.266  1.00  0.00    -0.231 C  
HETATM    2  C   UNL     1     -10.650  14.044  67.480  1.00  0.00    -0.260 C  
HETATM    3  N   UNL     1     -11.258  12.950  68.076  1.00  0.00    -0.252 N  
HETATM    4  O   UNL     1      -9.479  14.141  67.130  1.00  0.00    -0.220 OA 
HETATM    5  H   UNL     1     -12.251  13.041  68.293  1.00  0.00     0.000 HD 
ENDROOT
BRANCH   3   6
HETATM    6  C   UNL     1     -10.646  11.721  68.414  1.00  0.00    -0.216 A  
HETATM    7  C   UNL     1     -11.358  10.605  68.862  1.00  0.00    -0.337 A  
HETATM    8  C   UNL     1     -10.709   9.405  69.158  1.00  0.00    -0.216 A  
HETATM    9  C   UNL     1      -9.334   9.291  68.984  1.00  0.00    -0.151 A  
HETATM   10  C   UNL     1      -9.253  11.613  68.289  1.00  0.00    -0.187 A  
HETATM   11  C   UNL     1      -8.597  10.406  68.580  1.00  0.00    -0.133 A  
BRANCH   9  12
HETATM   12  O   UNL     1      -8.606   8.090  69.175  1.00  0.00    -0.135 OA 
BRANCH  12  13
HETATM   13  C   UNL     1      -8.945   7.126  70.129  1.00  0.00    -0.145 C  
HETATM   14  O   UNL     1      -9.737   6.206  69.998  1.00  0.00    -0.161 OA 
BRANCH  13  15
HETATM   15  C   UNL     1      -8.150   7.337  71.366  1.00  0.00    -0.102 A  
HETATM   16  C   UNL     1      -6.815   6.900  71.437  1.00  0.00    -0.061 A  
HETATM   17  C   UNL     1      -6.052   7.135  72.585  1.00  0.00    -0.044 A  
HETATM   18  C   UNL     1      -6.603   7.815  73.667  1.00  0.00    -0.097 A  
HETATM   19  C   UNL     1      -7.918   8.268  73.607  1.00  0.00    -0.233 A  
HETATM   20  C   UNL     1      -8.697   8.009  72.469  1.00  0.00    -0.173 A  
BRANCH  20  21
HETATM   21  O   UNL     1     -10.000   8.544  72.428  1.00  0.00    -0.302 OA 
BRANCH  21  22
HETATM   22  C   UNL     1     -11.020   7.732  72.916  1.00  0.00    -0.407 C  
HETATM   23  O   UNL     1     -10.894   6.784  73.679  1.00  0.00    -0.290 OA 
HETATM   24  C   UNL     1     -12.343   8.261  72.448  1.00  0.00    -0.385 C  
ENDBRANCH  21  22
ENDBRANCH  20  21
ENDBRANCH  13  15
ENDBRANCH  12  13
ENDBRANCH   9  12
ENDBRANCH   3   6
TORSDOF 6
ENDMDL
MODEL      251
REMARK 921   NORMALIZED FREE ENERGY PREDICTED BY IDOCK:   -2.82 KCAL/MOL
REMARK 922        TOTAL FREE ENERGY PREDICTED BY IDOCK:   -5.29 KCAL/MOL
REMARK 923 INTER-LIGAND FREE ENERGY PREDICTED BY IDOCK:   -4.23 KCAL/MOL
REMARK 924 INTRA-LIGAND FREE ENERGY PREDICTED BY IDOCK:   -1.06 KCAL/MOL
REMARK 927      BINDING AFFINITY PREDICTED BY RF-SCORE:    0.00 PKD
ROOT
HETATM    1  C   UNL     1     -11.799  11.402  68.820  1.00  0.00    -0.388 C  
HETATM    2  C   UNL     1     -11.854  10.542  70.057  1.00  0.00    -0.308 C  
HETATM    3  N   UNL     1     -11.162   9.350  69.910  1.00  0.00    -0.377 N  
HETATM    4  O   UNL     1     -12.461  10.929  71.049  1.00  0.00    -0.349 OA 
HETATM    5  H   UNL     1     -10.704   9.195  69.011  1.00  0.00     0.000 HD 
ENDROOT
BRANCH   3   6
HETATM    6  C   UNL     1     -11.023   8.326  70.877  1.00  0.00    -0.246 A  
HETATM    7  C   UNL     1     -11.916   7.259  70.998  1.00  0.00    -0.362 A  
HETATM    8  C   UNL     1     -11.721   6.258  71.952  1.00  0.00    -0.370 A  
HETATM    9  C   UNL     1     -10.609   6.294  72.786  1.00  0.00    -0.228 A  
HETATM   10  C   UNL     1      -9.932   8.382  71.754  1.00  0.00    -0.312 A  
HETATM   11  C   UNL     1      -9.728   7.375  72.711  1.00  0.00    -0.220 A  
BRANCH   9  12
HETATM   12  O   UNL     1     -10.284   5.279  73.721  1.00  0.00    -0.184 OA 
BRANCH  12  13
HETATM   13  C   UNL     1     -10.126   3.934  73.376  1.00  0.00    -0.138 C  
HETATM   14  O   UNL     1     -11.007   3.140  73.086  1.00  0.00    -0.164 OA 
BRANCH  13  15
HETATM   15  C   UNL     1      -8.683   3.582  73.359  1.00  0.00    -0.085 A  
HETATM   16  C   UNL     1      -8.075   3.017  74.495  1.00  0.00    -0.068 A  
HETATM   17  C   UNL     1      -6.727   2.646  74.468  1.00  0.00    -0.030 A  
HETATM   18  C   UNL     1      -5.974   2.823  73.310  1.00  0.00    -0.008 A  
HETATM   19  C   UNL     1      -6.564   3.366  72.173  1.00  0.00    -0.015 A  
HETATM   20  C   UNL     1      -7.909   3.767  72.204  1.00  0.00    -0.068 A  
BRANCH  20  21
HETATM   21  O   UNL     1      -8.480   4.250  71.010  1.00  0.00    -0.081 OA 
BRANCH  21  22
HETATM   22  C   UNL     1      -7.827   5.316  70.396  1.00  0.00    -0.076 C  
HETATM   23  O   UNL     1      -7.210   6.212  70.957  1.00  0.00    -0.071 OA 
HETATM   24  C   UNL     1      -7.899   5.153  68.907  1.00  0.00    -0.082 C  
ENDBRANCH  21  22
ENDBRANCH  20  21
ENDBRANCH  13  15
ENDBRANCH  12  13
ENDBRANCH   9  12
ENDBRANCH   3   6
TORSDOF 6
ENDMDL
MODEL      252
REMARK 921   NORMALIZED FREE ENERGY PREDICTED BY IDOCK:   -2.82 KCAL/MOL
REMARK 922        TOTAL FREE ENERGY PREDICTED BY IDOCK:   -5.29 KCAL/MOL
REMARK 923 INTER-LIGAND FREE ENERGY PREDICTED BY IDOCK:   -5.44 KCAL/MOL
REMARK 924 INTRA-LIGAND FREE ENERGY PREDICTED BY IDOCK:    0.16 KCAL/MOL
REMARK 927      BINDING AFFINITY PREDICTED BY RF-SCORE:    0.00 PKD
ROOT
HETATM    1  C   UNL     1     -10.278   5.926  74.562  1.00  0.00    -0.293 C  
HETATM    2  C   UNL     1     -10.474   6.325  73.121  1.00  0.00    -0.239 C  
HETATM    3  N   UNL     1      -9.668   7.387  72.746  1.00  0.00    -0.160 N  
HETATM    4  O   UNL     1     -11.276   5.719  72.419  1.00  0.00    -0.264 OA 
HETATM    5  H   UNL     1      -9.049   7.767  73.463  1.00  0.00     0.000 HD 
ENDROOT
BRANCH   3   6
HETATM    6  C   UNL     1      -9.613   8.001  71.473  1.00  0.00    -0.163 A  
HETATM    7  C   UNL     1     -10.381   7.582  70.384  1.00  0.00    -0.216 A  
HETATM    8  C   UNL     1     -10.311   8.239  69.154  1.00  0.00    -0.225 A  
HETATM    9  C   UNL     1      -9.487   9.348  69.000  1.00  0.00    -0.160 A  
HETATM   10  C   UNL     1      -8.748   9.090  71.295  1.00  0.00    -0.240 A  
HETATM   11  C   UNL     1      -8.678   9.757  70.061  1.00  0.00    -0.237 A  
BRANCH   9  12
HETATM   12  O   UNL     1      -9.418  10.128  67.817  1.00  0.00    -0.143 OA 
BRANCH  12  13
HETATM   13  C   UNL     1     -10.316   9.999  66.754  1.00  0.00    -0.217 C  
HETATM   14  O   UNL     1     -10.857   8.976  66.367  1.00  0.00     0.088 OA 
BRANCH  13  15
HETATM   15  C   UNL     1     -10.583  11.332  66.154  1.00  0.00    -0.312 A  
HETATM   16  C   UNL     1     -10.931  12.423  66.970  1.00  0.00    -0.303 A  
HETATM   17  C   UNL     1     -11.141  13.688  66.412  1.00  0.00    -0.307 A  
HETATM   18  C   UNL     1     -10.997  13.883  65.042  1.00  0.00    -0.371 A  
HETATM   19  C   UNL     1     -10.638  12.817  64.222  1.00  0.00    -0.424 A  
HETATM   20  C   UNL     1     -10.454  11.539  64.773  1.00  0.00    -0.299 A  
BRANCH  20  21
HETATM   21  O   UNL     1     -10.027  10.507  63.914  1.00  0.00    -0.325 OA 
BRANCH  21  22
HETATM   22  C   UNL     1      -8.796  10.688  63.289  1.00  0.00    -0.201 C  
HETATM   23  O   UNL     1      -8.566  11.413  62.331  1.00  0.00    -0.290 OA 
HETATM   24  C   UNL     1      -7.741   9.932  64.041  1.00  0.00    -0.141 C  
ENDBRANCH  21  22
ENDBRANCH  20  21
ENDBRANCH  13  15
ENDBRANCH  12  13
ENDBRANCH   9  12
ENDBRANCH   3   6
TORSDOF 6
ENDMDL
MODEL      253
REMARK 921   NORMALIZED FREE ENERGY PREDICTED BY IDOCK:   -2.80 KCAL/MOL
REMARK 922        TOTAL FREE ENERGY PREDICTED BY IDOCK:   -5.26 KCAL/MOL
REMARK 923 INTER-LIGAND FREE ENERGY PREDICTED BY IDOCK:   -4.39 KCAL/MOL
REMARK 924 INTRA-LIGAND FREE ENERGY PREDICTED BY IDOCK:   -0.86 KCAL/MOL
REMARK 927      BINDING AFFINITY PREDICTED BY RF-SCORE:    0.00 PKD
ROOT
HETATM    1  C   UNL     1      -6.854   3.639  66.919  1.00  0.00    -0.054 C  
HETATM    2  C   UNL     1      -7.155   4.953  67.594  1.00  0.00    -0.062 C  
HETATM    3  N   UNL     1      -8.035   5.738  66.865  1.00  0.00    -0.102 N  
HETATM    4  O   UNL     1      -6.643   5.222  68.674  1.00  0.00    -0.045 OA 
HETATM    5  H   UNL     1      -8.372   5.350  65.984  1.00  0.00     0.000 HD 
ENDROOT
BRANCH   3   6
HETATM    6  C   UNL     1      -8.514   7.022  67.215  1.00  0.00    -0.121 A  
HETATM    7  C   UNL     1      -9.635   7.230  68.023  1.00  0.00    -0.148 A  
HETATM    8  C   UNL     1     -10.052   8.518  68.363  1.00  0.00    -0.221 A  
HETATM    9  C   UNL     1      -9.337   9.625  67.921  1.00  0.00    -0.128 A  
HETATM   10  C   UNL     1      -7.827   8.145  66.733  1.00  0.00    -0.095 A  
HETATM   11  C   UNL     1      -8.240   9.442  67.076  1.00  0.00    -0.116 A  
BRANCH   9  12
HETATM   12  O   UNL     1      -9.634  10.962  68.287  1.00  0.00    -0.155 OA 
BRANCH  12  13
HETATM   13  C   UNL     1     -10.864  11.576  68.032  1.00  0.00    -0.213 C  
HETATM   14  O   UNL     1     -11.762  11.786  68.832  1.00  0.00    -0.276 OA 
BRANCH  13  15
HETATM   15  C   UNL     1     -10.930  12.005  66.611  1.00  0.00    -0.330 A  
HETATM   16  C   UNL     1     -11.128  11.058  65.591  1.00  0.00    -0.008 A  
HETATM   17  C   UNL     1     -11.232  11.463  64.257  1.00  0.00    -0.306 A  
HETATM   18  C   UNL     1     -11.152  12.813  63.925  1.00  0.00    -0.477 A  
HETATM   19  C   UNL     1     -10.972  13.765  64.925  1.00  0.00    -0.378 A  
HETATM   20  C   UNL     1     -10.838  13.360  66.262  1.00  0.00    -0.289 A  
BRANCH  20  21
HETATM   21  O   UNL     1     -10.723  14.363  67.245  1.00  0.00    -0.279 OA 
BRANCH  21  22
HETATM   22  C   UNL     1      -9.432  14.689  67.653  1.00  0.00    -0.205 C  
HETATM   23  O   UNL     1      -8.463  14.870  66.927  1.00  0.00    -0.228 OA 
HETATM   24  C   UNL     1      -9.417  14.897  69.138  1.00  0.00    -0.158 C  
ENDBRANCH  21  22
ENDBRANCH  20  21
ENDBRANCH  13  15
ENDBRANCH  12  13
ENDBRANCH   9  12
ENDBRANCH   3   6
TORSDOF 6
ENDMDL
MODEL      254
REMARK 921   NORMALIZED FREE ENERGY PREDICTED BY IDOCK:   -2.76 KCAL/MOL
REMARK 922        TOTAL FREE ENERGY PREDICTED BY IDOCK:   -5.20 KCAL/MOL
REMARK 923 INTER-LIGAND FREE ENERGY PREDICTED BY IDOCK:   -4.96 KCAL/MOL
REMARK 924 INTRA-LIGAND FREE ENERGY PREDICTED BY IDOCK:   -0.24 KCAL/MOL
REMARK 927      BINDING AFFINITY PREDICTED BY RF-SCORE:    0.00 PKD
ROOT
HETATM    1  C   UNL     1     -12.020  14.531  64.352  1.00  0.00    -0.467 C  
HETATM    2  C   UNL     1     -11.989  13.853  65.698  1.00  0.00    -0.392 C  
HETATM    3  N   UNL     1     -10.919  12.982  65.834  1.00  0.00    -0.269 N  
HETATM    4  O   UNL     1     -12.850  14.104  66.533  1.00  0.00    -0.164 OA 
HETATM    5  H   UNL     1     -10.291  12.903  65.034  1.00  0.00     0.000 HD 
ENDROOT
BRANCH   3   6
HETATM    6  C   UNL     1     -10.608  12.192  66.966  1.00  0.00    -0.228 A  
HETATM    7  C   UNL     1      -9.319  11.737  67.254  1.00  0.00    -0.171 A  
HETATM    8  C   UNL     1      -9.059  10.982  68.399  1.00  0.00    -0.161 A  
HETATM    9  C   UNL     1     -10.083  10.691  69.293  1.00  0.00    -0.206 A  
HETATM   10  C   UNL     1     -11.645  11.853  67.846  1.00  0.00    -0.393 A  
HETATM   11  C   UNL     1     -11.387  11.098  69.002  1.00  0.00    -0.343 A  
BRANCH   9  12
HETATM   12  O   UNL     1      -9.896  10.008  70.521  1.00  0.00    -0.155 OA 
BRANCH  12  13
HETATM   13  C   UNL     1      -8.710   9.355  70.868  1.00  0.00    -0.081 C  
HETATM   14  O   UNL     1      -7.570   9.754  70.690  1.00  0.00    -0.259 OA 
BRANCH  13  15
HETATM   15  C   UNL     1      -9.019   8.075  71.555  1.00  0.00    -0.180 A  
HETATM   16  C   UNL     1      -9.041   8.010  72.961  1.00  0.00    -0.331 A  
HETATM   17  C   UNL     1      -9.373   6.817  73.610  1.00  0.00    -0.190 A  
HETATM   18  C   UNL     1      -9.697   5.682  72.872  1.00  0.00    -0.169 A  
HETATM   19  C   UNL     1      -9.695   5.734  71.480  1.00  0.00    -0.193 A  
HETATM   20  C   UNL     1      -9.334   6.921  70.824  1.00  0.00    -0.161 A  
BRANCH  20  21
HETATM   21  O   UNL     1      -9.411   6.944  69.417  1.00  0.00    -0.147 OA 
BRANCH  21  22
HETATM   22  C   UNL     1      -8.615   6.026  68.736  1.00  0.00    -0.112 C  
HETATM   23  O   UNL     1      -9.002   5.031  68.138  1.00  0.00    -0.105 OA 
HETATM   24  C   UNL     1      -7.191   6.496  68.750  1.00  0.00    -0.085 C  
ENDBRANCH  21  22
ENDBRANCH  20  21
ENDBRANCH  13  15
ENDBRANCH  12  13
ENDBRANCH   9  12
ENDBRANCH   3   6
TORSDOF 6
ENDMDL
MODEL      255
REMARK 921   NORMALIZED FREE ENERGY PREDICTED BY IDOCK:   -2.71 KCAL/MOL
REMARK 922        TOTAL FREE ENERGY PREDICTED BY IDOCK:   -5.14 KCAL/MOL
REMARK 923 INTER-LIGAND FREE ENERGY PREDICTED BY IDOCK:   -5.28 KCAL/MOL
REMARK 924 INTRA-LIGAND FREE ENERGY PREDICTED BY IDOCK:    0.14 KCAL/MOL
REMARK 927      BINDING AFFINITY PREDICTED BY RF-SCORE:    0.00 PKD
ROOT
HETATM    1  C   UNL     1      -8.878   2.639  65.039  1.00  0.00    -0.123 C  
HETATM    2  C   UNL     1      -8.311   3.735  65.906  1.00  0.00    -0.109 C  
HETATM    3  N   UNL     1      -9.137   4.846  65.971  1.00  0.00    -0.134 N  
HETATM    4  O   UNL     1      -7.232   3.580  66.466  1.00  0.00    -0.065 OA 
HETATM    5  H   UNL     1     -10.010   4.798  65.445  1.00  0.00     0.000 HD 
ENDROOT
BRANCH   3   6
HETATM    6  C   UNL     1      -8.896   6.039  66.692  1.00  0.00    -0.125 A  
HETATM    7  C   UNL     1      -8.352   6.064  67.979  1.00  0.00    -0.116 A  
HETATM    8  C   UNL     1      -8.108   7.270  68.637  1.00  0.00    -0.125 A  
HETATM    9  C   UNL     1      -8.380   8.479  68.007  1.00  0.00    -0.127 A  
HETATM   10  C   UNL     1      -9.213   7.261  66.082  1.00  0.00    -0.136 A  
HETATM   11  C   UNL     1      -8.964   8.477  66.739  1.00  0.00    -0.173 A  
BRANCH   9  12
HETATM   12  O   UNL     1      -8.084   9.749  68.563  1.00  0.00    -0.101 OA 
BRANCH  12  13
HETATM   13  C   UNL     1      -8.885  10.879  68.375  1.00  0.00    -0.147 C  
HETATM   14  O   UNL     1      -8.669  11.820  67.628  1.00  0.00    -0.148 OA 
BRANCH  13  15
HETATM   15  C   UNL     1     -10.115  10.770  69.201  1.00  0.00    -0.224 A  
HETATM   16  C   UNL     1     -10.280   9.693  70.091  1.00  0.00    -0.313 A  
HETATM   17  C   UNL     1     -11.417   9.609  70.901  1.00  0.00    -0.427 A  
HETATM   18  C   UNL     1     -12.395  10.599  70.842  1.00  0.00    -0.502 A  
HETATM   19  C   UNL     1     -12.239  11.679  69.977  1.00  0.00    -0.338 A  
HETATM   20  C   UNL     1     -11.114  11.752  69.142  1.00  0.00    -0.238 A  
BRANCH  20  21
HETATM   21  O   UNL     1     -10.968  12.896  68.333  1.00  0.00    -0.236 OA 
BRANCH  21  22
HETATM   22  C   UNL     1     -11.734  12.937  67.171  1.00  0.00    -0.377 C  
HETATM   23  O   UNL     1     -12.106  11.976  66.510  1.00  0.00    -0.617 OA 
HETATM   24  C   UNL     1     -12.140  14.354  66.892  1.00  0.00    -0.386 C  
ENDBRANCH  21  22
ENDBRANCH  20  21
ENDBRANCH  13  15
ENDBRANCH  12  13
ENDBRANCH   9  12
ENDBRANCH   3   6
TORSDOF 6
ENDMDL
MODEL      256
REMARK 921   NORMALIZED FREE ENERGY PREDICTED BY IDOCK:   -2.69 KCAL/MOL
REMARK 922        TOTAL FREE ENERGY PREDICTED BY IDOCK:   -5.11 KCAL/MOL
REMARK 923 INTER-LIGAND FREE ENERGY PREDICTED BY IDOCK:   -4.32 KCAL/MOL
REMARK 924 INTRA-LIGAND FREE ENERGY PREDICTED BY IDOCK:   -0.79 KCAL/MOL
REMARK 927      BINDING AFFINITY PREDICTED BY RF-SCORE:    0.00 PKD
ROOT
HETATM    1  C   UNL     1      -9.552  11.193  62.862  1.00  0.00    -0.373 C  
HETATM    2  C   UNL     1      -9.584  10.466  64.182  1.00  0.00    -0.322 C  
HETATM    3  N   UNL     1      -8.419   9.758  64.431  1.00  0.00    -0.164 N  
HETATM    4  O   UNL     1     -10.570  10.547  64.906  1.00  0.00    -0.247 OA 
HETATM    5  H   UNL     1      -7.691   9.810  63.718  1.00  0.00     0.000 HD 
ENDROOT
BRANCH   3   6
HETATM    6  C   UNL     1      -8.133   8.972  65.572  1.00  0.00    -0.110 A  
HETATM    7  C   UNL     1      -8.186   7.576  65.576  1.00  0.00    -0.135 A  
HETATM    8  C   UNL     1      -7.868   6.843  66.721  1.00  0.00    -0.107 A  
HETATM    9  C   UNL     1      -7.464   7.497  67.879  1.00  0.00    -0.105 A  
HETATM   10  C   UNL     1      -7.772   9.625  66.759  1.00  0.00    -0.098 A  
HETATM   11  C   UNL     1      -7.447   8.893  67.911  1.00  0.00    -0.092 A  
BRANCH   9  12
HETATM   12  O   UNL     1      -7.039   6.834  69.059  1.00  0.00    -0.082 OA 
BRANCH  12  13
HETATM   13  C   UNL     1      -7.866   5.998  69.814  1.00  0.00    -0.101 C  
HETATM   14  O   UNL     1      -8.223   4.865  69.532  1.00  0.00    -0.082 OA 
BRANCH  13  15
HETATM   15  C   UNL     1      -8.239   6.669  71.085  1.00  0.00    -0.120 A  
HETATM   16  C   UNL     1      -7.499   6.432  72.258  1.00  0.00    -0.093 A  
HETATM   17  C   UNL     1      -7.822   7.094  73.446  1.00  0.00    -0.112 A  
HETATM   18  C   UNL     1      -8.874   8.005  73.479  1.00  0.00    -0.333 A  
HETATM   19  C   UNL     1      -9.607   8.263  72.323  1.00  0.00    -0.355 A  
HETATM   20  C   UNL     1      -9.305   7.579  71.136  1.00  0.00    -0.151 A  
BRANCH  20  21
HETATM   21  O   UNL     1     -10.030   7.921  69.977  1.00  0.00    -0.187 OA 
BRANCH  21  22
HETATM   22  C   UNL     1     -10.953   6.983  69.522  1.00  0.00    -0.220 C  
HETATM   23  O   UNL     1     -11.048   6.549  68.382  1.00  0.00    -0.293 OA 
HETATM   24  C   UNL     1     -11.769   6.487  70.678  1.00  0.00    -0.436 C  
ENDBRANCH  21  22
ENDBRANCH  20  21
ENDBRANCH  13  15
ENDBRANCH  12  13
ENDBRANCH   9  12
ENDBRANCH   3   6
TORSDOF 6
ENDMDL
MODEL      257
REMARK 921   NORMALIZED FREE ENERGY PREDICTED BY IDOCK:   -2.68 KCAL/MOL
REMARK 922        TOTAL FREE ENERGY PREDICTED BY IDOCK:   -5.10 KCAL/MOL
REMARK 923 INTER-LIGAND FREE ENERGY PREDICTED BY IDOCK:   -3.97 KCAL/MOL
REMARK 924 INTRA-LIGAND FREE ENERGY PREDICTED BY IDOCK:   -1.12 KCAL/MOL
REMARK 927      BINDING AFFINITY PREDICTED BY RF-SCORE:    0.00 PKD
ROOT
HETATM    1  C   UNL     1     -11.245   8.216  72.818  1.00  0.00    -0.407 C  
HETATM    2  C   UNL     1     -11.420   7.086  71.834  1.00  0.00    -0.268 C  
HETATM    3  N   UNL     1     -10.264   6.819  71.118  1.00  0.00    -0.193 N  
HETATM    4  O   UNL     1     -12.498   6.511  71.743  1.00  0.00    -0.345 OA 
HETATM    5  H   UNL     1      -9.450   7.395  71.332  1.00  0.00     0.000 HD 
ENDROOT
BRANCH   3   6
HETATM    6  C   UNL     1     -10.095   5.830  70.121  1.00  0.00    -0.212 A  
HETATM    7  C   UNL     1     -10.348   6.054  68.765  1.00  0.00    -0.267 A  
HETATM    8  C   UNL     1     -10.140   5.053  67.815  1.00  0.00    -0.179 A  
HETATM    9  C   UNL     1      -9.648   3.812  68.204  1.00  0.00    -0.113 A  
HETATM   10  C   UNL     1      -9.647   4.560  70.510  1.00  0.00    -0.274 A  
HETATM   11  C   UNL     1      -9.431   3.551  69.558  1.00  0.00    -0.236 A  
BRANCH   9  12
HETATM   12  O   UNL     1      -9.325   2.767  67.301  1.00  0.00    -0.176 OA 
BRANCH  12  13
HETATM   13  C   UNL     1      -8.330   2.870  66.326  1.00  0.00    -0.092 C  
HETATM   14  O   UNL     1      -7.125   2.949  66.508  1.00  0.00    -0.052 OA 
BRANCH  13  15
HETATM   15  C   UNL     1      -8.941   2.823  64.972  1.00  0.00    -0.134 A  
HETATM   16  C   UNL     1      -9.387   1.601  64.436  1.00  0.00    -0.132 A  
HETATM   17  C   UNL     1     -10.001   1.560  63.180  1.00  0.00    -0.109 A  
HETATM   18  C   UNL     1     -10.187   2.731  62.451  1.00  0.00    -0.103 A  
HETATM   19  C   UNL     1      -9.765   3.951  62.975  1.00  0.00    -0.150 A  
HETATM   20  C   UNL     1      -9.123   3.993  64.221  1.00  0.00    -0.142 A  
BRANCH  20  21
HETATM   21  O   UNL     1      -8.774   5.257  64.739  1.00  0.00    -0.152 OA 
BRANCH  21  22
HETATM   22  C   UNL     1      -7.580   5.808  64.279  1.00  0.00    -0.082 C  
HETATM   23  O   UNL     1      -6.597   5.193  63.889  1.00  0.00    -0.032 OA 
HETATM   24  C   UNL     1      -7.710   7.301  64.228  1.00  0.00    -0.124 C  
ENDBRANCH  21  22
ENDBRANCH  20  21
ENDBRANCH  13  15
ENDBRANCH  12  13
ENDBRANCH   9  12
ENDBRANCH   3   6
TORSDOF 6
ENDMDL
MODEL      258
REMARK 921   NORMALIZED FREE ENERGY PREDICTED BY IDOCK:   -2.65 KCAL/MOL
REMARK 922        TOTAL FREE ENERGY PREDICTED BY IDOCK:   -5.06 KCAL/MOL
REMARK 923 INTER-LIGAND FREE ENERGY PREDICTED BY IDOCK:   -3.99 KCAL/MOL
REMARK 924 INTRA-LIGAND FREE ENERGY PREDICTED BY IDOCK:   -1.06 KCAL/MOL
REMARK 927      BINDING AFFINITY PREDICTED BY RF-SCORE:    0.00 PKD
ROOT
HETATM    1  C   UNL     1      -7.373  15.964  68.652  1.00  0.00    -0.141 C  
HETATM    2  C   UNL     1      -7.076  14.535  68.276  1.00  0.00    -0.113 C  
HETATM    3  N   UNL     1      -7.881  13.627  68.945  1.00  0.00    -0.317 N  
HETATM    4  O   UNL     1      -6.204  14.285  67.451  1.00  0.00    -0.335 OA 
HETATM    5  H   UNL     1      -8.565  14.015  69.595  1.00  0.00     0.000 HD 
ENDROOT
BRANCH   3   6
HETATM    6  C   UNL     1      -7.852  12.218  68.822  1.00  0.00     0.006 A  
HETATM    7  C   UNL     1      -8.780  11.494  68.070  1.00  0.00    -0.151 A  
HETATM    8  C   UNL     1      -8.693  10.105  67.957  1.00  0.00    -0.122 A  
HETATM    9  C   UNL     1      -7.656   9.417  68.577  1.00  0.00    -0.081 A  
HETATM   10  C   UNL     1      -6.839  11.511  69.485  1.00  0.00    -0.075 A  
HETATM   11  C   UNL     1      -6.744  10.115  69.371  1.00  0.00    -0.065 A  
BRANCH   9  12
HETATM   12  O   UNL     1      -7.439   8.022  68.447  1.00  0.00    -0.098 OA 
BRANCH  12  13
HETATM   13  C   UNL     1      -7.548   7.121  69.510  1.00  0.00    -0.101 C  
HETATM   14  O   UNL     1      -6.637   6.549  70.088  1.00  0.00    -0.042 OA 
BRANCH  13  15
HETATM   15  C   UNL     1      -8.973   6.972  69.903  1.00  0.00    -0.142 A  
HETATM   16  C   UNL     1      -9.493   7.709  70.983  1.00  0.00    -0.164 A  
HETATM   17  C   UNL     1     -10.844   7.603  71.328  1.00  0.00    -0.252 A  
HETATM   18  C   UNL     1     -11.692   6.773  70.600  1.00  0.00    -0.440 A  
HETATM   19  C   UNL     1     -11.196   6.049  69.519  1.00  0.00    -0.416 A  
HETATM   20  C   UNL     1      -9.835   6.130  69.186  1.00  0.00    -0.145 A  
BRANCH  20  21
HETATM   21  O   UNL     1      -9.394   5.431  68.046  1.00  0.00    -0.109 OA 
BRANCH  21  22
HETATM   22  C   UNL     1     -10.062   5.700  66.854  1.00  0.00    -0.193 C  
HETATM   23  O   UNL     1     -10.784   4.931  66.234  1.00  0.00    -0.305 OA 
HETATM   24  C   UNL     1      -9.853   7.138  66.481  1.00  0.00    -0.189 C  
ENDBRANCH  21  22
ENDBRANCH  20  21
ENDBRANCH  13  15
ENDBRANCH  12  13
ENDBRANCH   9  12
ENDBRANCH   3   6
TORSDOF 6
ENDMDL
MODEL      259
REMARK 921   NORMALIZED FREE ENERGY PREDICTED BY IDOCK:   -2.65 KCAL/MOL
REMARK 922        TOTAL FREE ENERGY PREDICTED BY IDOCK:   -5.05 KCAL/MOL
REMARK 923 INTER-LIGAND FREE ENERGY PREDICTED BY IDOCK:   -4.76 KCAL/MOL
REMARK 924 INTRA-LIGAND FREE ENERGY PREDICTED BY IDOCK:   -0.29 KCAL/MOL
REMARK 927      BINDING AFFINITY PREDICTED BY RF-SCORE:    0.00 PKD
ROOT
HETATM    1  C   UNL     1     -10.904   7.633  73.193  1.00  0.00    -0.440 C  
HETATM    2  C   UNL     1     -10.919   8.639  72.069  1.00  0.00    -0.362 C  
HETATM    3  N   UNL     1      -9.757   8.613  71.314  1.00  0.00    -0.213 N  
HETATM    4  O   UNL     1     -11.895   9.361  71.902  1.00  0.00    -0.373 OA 
HETATM    5  H   UNL     1      -9.046   7.936  71.591  1.00  0.00     0.000 HD 
ENDROOT
BRANCH   3   6
HETATM    6  C   UNL     1      -9.454   9.427  70.197  1.00  0.00    -0.240 A  
HETATM    7  C   UNL     1      -8.152   9.773  69.828  1.00  0.00    -0.174 A  
HETATM    8  C   UNL     1      -7.904  10.558  68.701  1.00  0.00    -0.116 A  
HETATM    9  C   UNL     1      -8.958  10.991  67.904  1.00  0.00    -0.144 A  
HETATM   10  C   UNL     1     -10.515   9.909  69.417  1.00  0.00    -0.250 A  
HETATM   11  C   UNL     1     -10.270  10.695  68.279  1.00  0.00    -0.187 A  
BRANCH   9  12
HETATM   12  O   UNL     1      -8.796  11.716  66.697  1.00  0.00    -0.178 OA 
BRANCH  12  13
HETATM   13  C   UNL     1      -9.084  13.078  66.570  1.00  0.00    -0.127 C  
HETATM   14  O   UNL     1      -9.919  13.590  65.842  1.00  0.00    -0.294 OA 
BRANCH  13  15
HETATM   15  C   UNL     1      -8.241  13.862  67.510  1.00  0.00    -0.196 A  
HETATM   16  C   UNL     1      -6.872  14.051  67.249  1.00  0.00     0.170 A  
HETATM   17  C   UNL     1      -6.086  14.823  68.109  1.00  0.00    -0.146 A  
HETATM   18  C   UNL     1      -6.654  15.424  69.229  1.00  0.00    -0.143 A  
HETATM   19  C   UNL     1      -8.011  15.260  69.493  1.00  0.00    -0.199 A  
HETATM   20  C   UNL     1      -8.797  14.462  68.649  1.00  0.00    -0.167 A  
BRANCH  20  21
HETATM   21  O   UNL     1     -10.178  14.380  68.919  1.00  0.00    -0.230 OA 
BRANCH  21  22
HETATM   22  C   UNL     1     -11.004  15.239  68.200  1.00  0.00    -0.292 C  
HETATM   23  O   UNL     1     -10.731  16.375  67.835  1.00  0.00    -0.316 OA 
HETATM   24  C   UNL     1     -12.270  14.523  67.834  1.00  0.00    -0.144 C  
ENDBRANCH  21  22
ENDBRANCH  20  21
ENDBRANCH  13  15
ENDBRANCH  12  13
ENDBRANCH   9  12
ENDBRANCH   3   6
TORSDOF 6
ENDMDL
MODEL      260
REMARK 921   NORMALIZED FREE ENERGY PREDICTED BY IDOCK:   -2.65 KCAL/MOL
REMARK 922        TOTAL FREE ENERGY PREDICTED BY IDOCK:   -5.05 KCAL/MOL
REMARK 923 INTER-LIGAND FREE ENERGY PREDICTED BY IDOCK:   -4.75 KCAL/MOL
REMARK 924 INTRA-LIGAND FREE ENERGY PREDICTED BY IDOCK:   -0.30 KCAL/MOL
REMARK 927      BINDING AFFINITY PREDICTED BY RF-SCORE:    0.00 PKD
ROOT
HETATM    1  C   UNL     1      -9.964   3.749  74.392  1.00  0.00    -0.192 C  
HETATM    2  C   UNL     1      -9.613   4.546  73.160  1.00  0.00    -0.130 C  
HETATM    3  N   UNL     1     -10.609   5.440  72.801  1.00  0.00    -0.215 N  
HETATM    4  O   UNL     1      -8.538   4.369  72.599  1.00  0.00    -0.107 OA 
HETATM    5  H   UNL     1     -11.440   5.460  73.392  1.00  0.00     0.000 HD 
ENDROOT
BRANCH   3   6
HETATM    6  C   UNL     1     -10.594   6.327  71.698  1.00  0.00    -0.227 A  
HETATM    7  C   UNL     1      -9.601   7.289  71.501  1.00  0.00    -0.164 A  
HETATM    8  C   UNL     1      -9.616   8.124  70.381  1.00  0.00    -0.171 A  
HETATM    9  C   UNL     1     -10.614   7.990  69.423  1.00  0.00    -0.205 A  
HETATM   10  C   UNL     1     -11.625   6.232  70.753  1.00  0.00    -0.347 A  
HETATM   11  C   UNL     1     -11.641   7.065  69.623  1.00  0.00    -0.058 A  
BRANCH   9  12
HETATM   12  O   UNL     1     -10.661   8.732  68.215  1.00  0.00    -0.210 OA 
BRANCH  12  13
HETATM   13  C   UNL     1     -10.343  10.090  68.132  1.00  0.00    -0.194 C  
HETATM   14  O   UNL     1     -10.052  10.837  69.052  1.00  0.00    -0.200 OA 
BRANCH  13  15
HETATM   15  C   UNL     1     -10.357  10.526  66.711  1.00  0.00    -0.301 A  
HETATM   16  C   UNL     1     -11.195  11.578  66.299  1.00  0.00    -0.286 A  
HETATM   17  C   UNL     1     -11.180  12.018  64.972  1.00  0.00    -0.374 A  
HETATM   18  C   UNL     1     -10.325  11.426  64.045  1.00  0.00    -0.418 A  
HETATM   19  C   UNL     1      -9.478  10.395  64.442  1.00  0.00    -0.343 A  
HETATM   20  C   UNL     1      -9.511   9.930  65.765  1.00  0.00    -0.222 A  
BRANCH  20  21
HETATM   21  O   UNL     1      -8.589   8.930  66.135  1.00  0.00    -0.127 OA 
BRANCH  21  22
HETATM   22  C   UNL     1      -7.456   9.354  66.825  1.00  0.00    -0.094 C  
HETATM   23  O   UNL     1      -6.859  10.410  66.664  1.00  0.00    -0.088 OA 
HETATM   24  C   UNL     1      -7.123   8.356  67.893  1.00  0.00    -0.083 C  
ENDBRANCH  21  22
ENDBRANCH  20  21
ENDBRANCH  13  15
ENDBRANCH  12  13
ENDBRANCH   9  12
ENDBRANCH   3   6
TORSDOF 6
ENDMDL
MODEL      261
REMARK 921   NORMALIZED FREE ENERGY PREDICTED BY IDOCK:   -2.65 KCAL/MOL
REMARK 922        TOTAL FREE ENERGY PREDICTED BY IDOCK:   -5.05 KCAL/MOL
REMARK 923 INTER-LIGAND FREE ENERGY PREDICTED BY IDOCK:   -4.25 KCAL/MOL
REMARK 924 INTRA-LIGAND FREE ENERGY PREDICTED BY IDOCK:   -0.80 KCAL/MOL
REMARK 927      BINDING AFFINITY PREDICTED BY RF-SCORE:    0.00 PKD
ROOT
HETATM    1  C   UNL     1      -8.135  15.512  66.932  1.00  0.00    -0.284 C  
HETATM    2  C   UNL     1      -8.128  14.037  67.246  1.00  0.00    -0.156 C  
HETATM    3  N   UNL     1      -9.390  13.550  67.549  1.00  0.00    -0.212 N  
HETATM    4  O   UNL     1      -7.079  13.405  67.208  1.00  0.00    -0.134 OA 
HETATM    5  H   UNL     1     -10.158  14.221  67.523  1.00  0.00     0.000 HD 
ENDROOT
BRANCH   3   6
HETATM    6  C   UNL     1      -9.724  12.218  67.890  1.00  0.00    -0.202 A  
HETATM    7  C   UNL     1      -9.166  11.541  68.977  1.00  0.00     0.110 A  
HETATM    8  C   UNL     1      -9.549  10.235  69.289  1.00  0.00    -0.239 A  
HETATM    9  C   UNL     1     -10.521   9.591  68.531  1.00  0.00    -0.217 A  
HETATM   10  C   UNL     1     -10.667  11.544  67.101  1.00  0.00    -0.294 A  
HETATM   11  C   UNL     1     -11.059  10.233  67.414  1.00  0.00    -0.261 A  
BRANCH   9  12
HETATM   12  O   UNL     1     -11.033   8.302  68.825  1.00  0.00    -0.008 OA 
BRANCH  12  13
HETATM   13  C   UNL     1     -10.554   7.129  68.236  1.00  0.00    -0.188 C  
HETATM   14  O   UNL     1     -10.985   6.576  67.237  1.00  0.00    -0.344 OA 
BRANCH  13  15
HETATM   15  C   UNL     1      -9.368   6.636  68.984  1.00  0.00    -0.133 A  
HETATM   16  C   UNL     1      -8.070   6.880  68.498  1.00  0.00    -0.120 A  
HETATM   17  C   UNL     1      -6.951   6.454  69.220  1.00  0.00    -0.067 A  
HETATM   18  C   UNL     1      -7.109   5.793  70.435  1.00  0.00    -0.070 A  
HETATM   19  C   UNL     1      -8.387   5.558  70.937  1.00  0.00    -0.120 A  
HETATM   20  C   UNL     1      -9.513   5.958  70.202  1.00  0.00    -0.160 A  
BRANCH  20  21
HETATM   21  O   UNL     1     -10.782   5.758  70.782  1.00  0.00    -0.256 OA 
BRANCH  21  22
HETATM   22  C   UNL     1     -11.202   6.714  71.702  1.00  0.00    -0.264 C  
HETATM   23  O   UNL     1     -10.496   7.317  72.499  1.00  0.00    -0.212 OA 
HETATM   24  C   UNL     1     -12.664   6.986  71.505  1.00  0.00    -0.425 C  
ENDBRANCH  21  22
ENDBRANCH  20  21
ENDBRANCH  13  15
ENDBRANCH  12  13
ENDBRANCH   9  12
ENDBRANCH   3   6
TORSDOF 6
ENDMDL
MODEL      262
REMARK 921   NORMALIZED FREE ENERGY PREDICTED BY IDOCK:   -2.64 KCAL/MOL
REMARK 922        TOTAL FREE ENERGY PREDICTED BY IDOCK:   -5.05 KCAL/MOL
REMARK 923 INTER-LIGAND FREE ENERGY PREDICTED BY IDOCK:   -3.87 KCAL/MOL
REMARK 924 INTRA-LIGAND FREE ENERGY PREDICTED BY IDOCK:   -1.17 KCAL/MOL
REMARK 927      BINDING AFFINITY PREDICTED BY RF-SCORE:    0.00 PKD
ROOT
HETATM    1  C   UNL     1      -7.890   8.243  74.553  1.00  0.00    -0.300 C  
HETATM    2  C   UNL     1      -8.488   7.951  73.200  1.00  0.00    -0.186 C  
HETATM    3  N   UNL     1      -8.280   6.642  72.796  1.00  0.00    -0.108 N  
HETATM    4  O   UNL     1      -9.085   8.829  72.588  1.00  0.00    -0.354 OA 
HETATM    5  H   UNL     1      -7.766   6.040  73.440  1.00  0.00     0.000 HD 
ENDROOT
BRANCH   3   6
HETATM    6  C   UNL     1      -8.707   6.051  71.583  1.00  0.00    -0.135 A  
HETATM    7  C   UNL     1     -10.028   5.669  71.338  1.00  0.00    -0.237 A  
HETATM    8  C   UNL     1     -10.405   5.115  70.113  1.00  0.00    -0.340 A  
HETATM    9  C   UNL     1      -9.468   4.958  69.098  1.00  0.00    -0.141 A  
HETATM   10  C   UNL     1      -7.758   5.845  70.572  1.00  0.00    -0.100 A  
HETATM   11  C   UNL     1      -8.133   5.293  69.337  1.00  0.00    -0.092 A  
BRANCH   9  12
HETATM   12  O   UNL     1      -9.777   4.487  67.797  1.00  0.00    -0.161 OA 
BRANCH  12  13
HETATM   13  C   UNL     1     -10.294   5.300  66.785  1.00  0.00    -0.273 C  
HETATM   14  O   UNL     1     -11.306   5.982  66.832  1.00  0.00    -0.133 OA 
BRANCH  13  15
HETATM   15  C   UNL     1      -9.396   5.269  65.602  1.00  0.00    -0.126 A  
HETATM   16  C   UNL     1      -9.565   4.289  64.606  1.00  0.00    -0.160 A  
HETATM   17  C   UNL     1      -8.748   4.283  63.472  1.00  0.00    -0.121 A  
HETATM   18  C   UNL     1      -7.763   5.254  63.310  1.00  0.00    -0.075 A  
HETATM   19  C   UNL     1      -7.593   6.239  64.279  1.00  0.00    -0.097 A  
HETATM   20  C   UNL     1      -8.391   6.233  65.433  1.00  0.00    -0.148 A  
BRANCH  20  21
HETATM   21  O   UNL     1      -8.227   7.287  66.353  1.00  0.00    -0.110 OA 
BRANCH  21  22
HETATM   22  C   UNL     1      -8.762   8.520  65.987  1.00  0.00    -0.161 C  
HETATM   23  O   UNL     1      -9.949   8.786  65.849  1.00  0.00    -0.213 OA 
HETATM   24  C   UNL     1      -7.659   9.531  65.886  1.00  0.00    -0.100 C  
ENDBRANCH  21  22
ENDBRANCH  20  21
ENDBRANCH  13  15
ENDBRANCH  12  13
ENDBRANCH   9  12
ENDBRANCH   3   6
TORSDOF 6
ENDMDL
MODEL      263
REMARK 921   NORMALIZED FREE ENERGY PREDICTED BY IDOCK:   -2.63 KCAL/MOL
REMARK 922        TOTAL FREE ENERGY PREDICTED BY IDOCK:   -5.03 KCAL/MOL
REMARK 923 INTER-LIGAND FREE ENERGY PREDICTED BY IDOCK:   -5.16 KCAL/MOL
REMARK 924 INTRA-LIGAND FREE ENERGY PREDICTED BY IDOCK:    0.13 KCAL/MOL
REMARK 927      BINDING AFFINITY PREDICTED BY RF-SCORE:    0.00 PKD
ROOT
HETATM    1  C   UNL     1      -8.787  16.625  66.186  1.00  0.00    -0.323 C  
HETATM    2  C   UNL     1      -8.211  15.359  66.768  1.00  0.00    -0.217 C  
HETATM    3  N   UNL     1      -9.174  14.388  66.993  1.00  0.00    -0.224 N  
HETATM    4  O   UNL     1      -7.007  15.272  66.983  1.00  0.00    -0.228 OA 
HETATM    5  H   UNL     1     -10.133  14.630  66.745  1.00  0.00     0.000 HD 
ENDROOT
BRANCH   3   6
HETATM    6  C   UNL     1      -8.965  13.096  67.531  1.00  0.00    -0.197 A  
HETATM    7  C   UNL     1     -10.002  12.200  67.802  1.00  0.00    -0.198 A  
HETATM    8  C   UNL     1      -9.741  10.925  68.308  1.00  0.00    -0.171 A  
HETATM    9  C   UNL     1      -8.432  10.514  68.529  1.00  0.00    -0.131 A  
HETATM   10  C   UNL     1      -7.650  12.692  67.803  1.00  0.00    -0.141 A  
HETATM   11  C   UNL     1      -7.383  11.410  68.307  1.00  0.00    -0.089 A  
BRANCH   9  12
HETATM   12  O   UNL     1      -8.069   9.212  68.957  1.00  0.00    -0.099 OA 
BRANCH  12  13
HETATM   13  C   UNL     1      -8.034   8.824  70.299  1.00  0.00    -0.106 C  
HETATM   14  O   UNL     1      -7.479   9.402  71.220  1.00  0.00    -0.322 OA 
BRANCH  13  15
HETATM   15  C   UNL     1      -8.832   7.585  70.487  1.00  0.00    -0.147 A  
HETATM   16  C   UNL     1      -8.194   6.366  70.784  1.00  0.00    -0.125 A  
HETATM   17  C   UNL     1      -8.945   5.208  71.004  1.00  0.00    -0.159 A  
HETATM   18  C   UNL     1     -10.335   5.249  70.941  1.00  0.00    -0.303 A  
HETATM   19  C   UNL     1     -10.982   6.450  70.663  1.00  0.00    -0.355 A  
HETATM   20  C   UNL     1     -10.232   7.610  70.414  1.00  0.00    -0.203 A  
BRANCH  20  21
HETATM   21  O   UNL     1     -10.932   8.814  70.202  1.00  0.00    -0.239 OA 
BRANCH  21  22
HETATM   22  C   UNL     1     -11.696   9.284  71.268  1.00  0.00    -0.346 C  
HETATM   23  O   UNL     1     -11.965   8.675  72.295  1.00  0.00    -0.364 OA 
HETATM   24  C   UNL     1     -12.063  10.717  71.023  1.00  0.00    -0.473 C  
ENDBRANCH  21  22
ENDBRANCH  20  21
ENDBRANCH  13  15
ENDBRANCH  12  13
ENDBRANCH   9  12
ENDBRANCH   3   6
TORSDOF 6
ENDMDL
MODEL      264
REMARK 921   NORMALIZED FREE ENERGY PREDICTED BY IDOCK:   -2.63 KCAL/MOL
REMARK 922        TOTAL FREE ENERGY PREDICTED BY IDOCK:   -5.02 KCAL/MOL
REMARK 923 INTER-LIGAND FREE ENERGY PREDICTED BY IDOCK:   -4.39 KCAL/MOL
REMARK 924 INTRA-LIGAND FREE ENERGY PREDICTED BY IDOCK:   -0.63 KCAL/MOL
REMARK 927      BINDING AFFINITY PREDICTED BY RF-SCORE:    0.00 PKD
ROOT
HETATM    1  C   UNL     1     -10.915   2.977  63.174  1.00  0.00    -0.150 C  
HETATM    2  C   UNL     1      -9.923   3.284  64.268  1.00  0.00    -0.166 C  
HETATM    3  N   UNL     1     -10.497   3.955  65.336  1.00  0.00    -0.466 N  
HETATM    4  O   UNL     1      -8.754   2.937  64.153  1.00  0.00    -0.092 OA 
HETATM    5  H   UNL     1     -11.495   4.157  65.267  1.00  0.00     0.000 HD 
ENDROOT
BRANCH   3   6
HETATM    6  C   UNL     1      -9.844   4.389  66.514  1.00  0.00    -0.229 A  
HETATM    7  C   UNL     1      -9.516   3.536  67.570  1.00  0.00    -0.233 A  
HETATM    8  C   UNL     1      -8.846   4.009  68.700  1.00  0.00    -0.146 A  
HETATM    9  C   UNL     1      -8.467   5.344  68.781  1.00  0.00    -0.096 A  
HETATM   10  C   UNL     1      -9.501   5.744  66.624  1.00  0.00    -0.161 A  
HETATM   11  C   UNL     1      -8.823   6.223  67.756  1.00  0.00    -0.111 A  
BRANCH   9  12
HETATM   12  O   UNL     1      -7.709   5.891  69.847  1.00  0.00    -0.084 OA 
BRANCH  12  13
HETATM   13  C   UNL     1      -8.065   5.762  71.192  1.00  0.00    -0.117 C  
HETATM   14  O   UNL     1      -7.496   5.097  72.044  1.00  0.00    -0.087 OA 
BRANCH  13  15
HETATM   15  C   UNL     1      -9.249   6.609  71.486  1.00  0.00    -0.146 A  
HETATM   16  C   UNL     1      -9.111   8.003  71.618  1.00  0.00    -0.194 A  
HETATM   17  C   UNL     1     -10.230   8.807  71.853  1.00  0.00    -0.415 A  
HETATM   18  C   UNL     1     -11.497   8.238  71.948  1.00  0.00    -0.372 A  
HETATM   19  C   UNL     1     -11.653   6.862  71.804  1.00  0.00    -0.322 A  
HETATM   20  C   UNL     1     -10.529   6.047  71.597  1.00  0.00    -0.228 A  
BRANCH  20  21
HETATM   21  O   UNL     1     -10.744   4.670  71.392  1.00  0.00    -0.002 OA 
BRANCH  21  22
HETATM   22  C   UNL     1     -10.653   3.852  72.516  1.00  0.00    -0.049 C  
HETATM   23  O   UNL     1     -10.246   2.699  72.546  1.00  0.00    -0.156 OA 
HETATM   24  C   UNL     1     -11.035   4.639  73.735  1.00  0.00    -0.368 C  
ENDBRANCH  21  22
ENDBRANCH  20  21
ENDBRANCH  13  15
ENDBRANCH  12  13
ENDBRANCH   9  12
ENDBRANCH   3   6
TORSDOF 6
ENDMDL
MODEL      265
REMARK 921   NORMALIZED FREE ENERGY PREDICTED BY IDOCK:   -2.62 KCAL/MOL
REMARK 922        TOTAL FREE ENERGY PREDICTED BY IDOCK:   -5.02 KCAL/MOL
REMARK 923 INTER-LIGAND FREE ENERGY PREDICTED BY IDOCK:   -4.58 KCAL/MOL
REMARK 924 INTRA-LIGAND FREE ENERGY PREDICTED BY IDOCK:   -0.44 KCAL/MOL
REMARK 927      BINDING AFFINITY PREDICTED BY RF-SCORE:    0.00 PKD
ROOT
HETATM    1  C   UNL     1     -11.387  16.233  69.732  1.00  0.00    -0.265 C  
HETATM    2  C   UNL     1     -11.520  14.792  69.308  1.00  0.00    -0.296 C  
HETATM    3  N   UNL     1     -10.580  14.427  68.357  1.00  0.00    -0.241 N  
HETATM    4  O   UNL     1     -12.388  14.083  69.802  1.00  0.00    -0.336 OA 
HETATM    5  H   UNL     1      -9.922  15.149  68.063  1.00  0.00     0.000 HD 
ENDROOT
BRANCH   3   6
HETATM    6  C   UNL     1     -10.438  13.156  67.751  1.00  0.00    -0.228 A  
HETATM    7  C   UNL     1     -11.469  12.513  67.063  1.00  0.00    -0.419 A  
HETATM    8  C   UNL     1     -11.270  11.270  66.459  1.00  0.00    -0.222 A  
HETATM    9  C   UNL     1     -10.023  10.659  66.510  1.00  0.00    -0.215 A  
HETATM   10  C   UNL     1      -9.196  12.511  67.841  1.00  0.00    -0.200 A  
HETATM   11  C   UNL     1      -8.990  11.263  67.231  1.00  0.00    -0.149 A  
BRANCH   9  12
HETATM   12  O   UNL     1      -9.706   9.443  65.854  1.00  0.00    -0.253 OA 
BRANCH  12  13
HETATM   13  C   UNL     1      -9.803   8.189  66.464  1.00  0.00    -0.239 C  
HETATM   14  O   UNL     1     -10.808   7.670  66.924  1.00  0.00    -0.328 OA 
BRANCH  13  15
HETATM   15  C   UNL     1      -8.481   7.512  66.441  1.00  0.00    -0.131 A  
HETATM   16  C   UNL     1      -7.325   8.222  66.069  1.00  0.00    -0.080 A  
HETATM   17  C   UNL     1      -6.074   7.598  66.087  1.00  0.00    -0.038 A  
HETATM   18  C   UNL     1      -5.957   6.269  66.484  1.00  0.00    -0.028 A  
HETATM   19  C   UNL     1      -7.090   5.557  66.871  1.00  0.00    -0.070 A  
HETATM   20  C   UNL     1      -8.351   6.170  66.827  1.00  0.00    -0.110 A  
BRANCH  20  21
HETATM   21  O   UNL     1      -9.458   5.431  67.290  1.00  0.00    -0.117 OA 
BRANCH  21  22
HETATM   22  C   UNL     1      -9.680   4.198  66.681  1.00  0.00    -0.211 C  
HETATM   23  O   UNL     1      -9.367   3.101  67.124  1.00  0.00    -0.188 OA 
HETATM   24  C   UNL     1     -10.473   4.400  65.424  1.00  0.00    -0.219 C  
ENDBRANCH  21  22
ENDBRANCH  20  21
ENDBRANCH  13  15
ENDBRANCH  12  13
ENDBRANCH   9  12
ENDBRANCH   3   6
TORSDOF 6
ENDMDL
MODEL      266
REMARK 921   NORMALIZED FREE ENERGY PREDICTED BY IDOCK:   -2.61 KCAL/MOL
REMARK 922        TOTAL FREE ENERGY PREDICTED BY IDOCK:   -5.00 KCAL/MOL
REMARK 923 INTER-LIGAND FREE ENERGY PREDICTED BY IDOCK:   -4.23 KCAL/MOL
REMARK 924 INTRA-LIGAND FREE ENERGY PREDICTED BY IDOCK:   -0.77 KCAL/MOL
REMARK 927      BINDING AFFINITY PREDICTED BY RF-SCORE:    0.00 PKD
ROOT
HETATM    1  C   UNL     1      -7.219  14.954  67.919  1.00  0.00    -0.166 C  
HETATM    2  C   UNL     1      -7.044  13.460  67.829  1.00  0.00    -0.156 C  
HETATM    3  N   UNL     1      -7.906  12.769  68.666  1.00  0.00    -0.279 N  
HETATM    4  O   UNL     1      -6.211  12.983  67.066  1.00  0.00    -0.220 OA 
HETATM    5  H   UNL     1      -8.544  13.331  69.229  1.00  0.00     0.000 HD 
ENDROOT
BRANCH   3   6
HETATM    6  C   UNL     1      -7.993  11.365  68.821  1.00  0.00    -0.122 A  
HETATM    7  C   UNL     1      -9.198  10.660  68.777  1.00  0.00    -0.182 A  
HETATM    8  C   UNL     1      -9.228   9.271  68.908  1.00  0.00    -0.143 A  
HETATM    9  C   UNL     1      -8.045   8.557  69.060  1.00  0.00    -0.115 A  
HETATM   10  C   UNL     1      -6.809  10.643  69.024  1.00  0.00    -0.071 A  
HETATM   11  C   UNL     1      -6.833   9.245  69.151  1.00  0.00    -0.050 A  
BRANCH   9  12
HETATM   12  O   UNL     1      -7.972   7.142  69.113  1.00  0.00    -0.115 OA 
BRANCH  12  13
HETATM   13  C   UNL     1      -7.524   6.434  70.232  1.00  0.00    -0.094 C  
HETATM   14  O   UNL     1      -6.544   5.709  70.301  1.00  0.00    -0.042 OA 
BRANCH  13  15
HETATM   15  C   UNL     1      -8.400   6.721  71.396  1.00  0.00    -0.119 A  
HETATM   16  C   UNL     1      -7.957   7.570  72.427  1.00  0.00    -0.118 A  
HETATM   17  C   UNL     1      -8.796   7.875  73.504  1.00  0.00    -0.333 A  
HETATM   18  C   UNL     1     -10.084   7.350  73.562  1.00  0.00    -0.390 A  
HETATM   19  C   UNL     1     -10.543   6.521  72.542  1.00  0.00    -0.240 A  
HETATM   20  C   UNL     1      -9.695   6.189  71.474  1.00  0.00    -0.162 A  
BRANCH  20  21
HETATM   21  O   UNL     1     -10.226   5.401  70.433  1.00  0.00    -0.221 OA 
BRANCH  21  22
HETATM   22  C   UNL     1     -11.202   5.996  69.639  1.00  0.00    -0.357 C  
HETATM   23  O   UNL     1     -12.136   6.686  70.027  1.00  0.00    -0.280 OA 
HETATM   24  C   UNL     1     -10.882   5.756  68.194  1.00  0.00    -0.249 C  
ENDBRANCH  21  22
ENDBRANCH  20  21
ENDBRANCH  13  15
ENDBRANCH  12  13
ENDBRANCH   9  12
ENDBRANCH   3   6
TORSDOF 6
ENDMDL
MODEL      267
REMARK 921   NORMALIZED FREE ENERGY PREDICTED BY IDOCK:   -2.60 KCAL/MOL
REMARK 922        TOTAL FREE ENERGY PREDICTED BY IDOCK:   -4.99 KCAL/MOL
REMARK 923 INTER-LIGAND FREE ENERGY PREDICTED BY IDOCK:   -4.56 KCAL/MOL
REMARK 924 INTRA-LIGAND FREE ENERGY PREDICTED BY IDOCK:   -0.43 KCAL/MOL
REMARK 927      BINDING AFFINITY PREDICTED BY RF-SCORE:    0.00 PKD
ROOT
HETATM    1  C   UNL     1     -10.719  11.638  64.809  1.00  0.00    -0.365 C  
HETATM    2  C   UNL     1     -10.833  10.940  66.140  1.00  0.00    -0.098 C  
HETATM    3  N   UNL     1     -10.142   9.739  66.174  1.00  0.00    -0.260 N  
HETATM    4  O   UNL     1     -11.479  11.448  67.049  1.00  0.00    -0.452 OA 
HETATM    5  H   UNL     1      -9.647   9.472  65.323  1.00  0.00     0.000 HD 
ENDROOT
BRANCH   3   6
HETATM    6  C   UNL     1     -10.052   8.844  67.266  1.00  0.00    -0.239 A  
HETATM    7  C   UNL     1      -9.718   7.494  67.128  1.00  0.00    -0.228 A  
HETATM    8  C   UNL     1      -9.615   6.657  68.241  1.00  0.00    -0.125 A  
HETATM    9  C   UNL     1      -9.820   7.165  69.519  1.00  0.00    -0.162 A  
HETATM   10  C   UNL     1     -10.305   9.336  68.554  1.00  0.00    -0.237 A  
HETATM   11  C   UNL     1     -10.198   8.500  69.677  1.00  0.00    -0.209 A  
BRANCH   9  12
HETATM   12  O   UNL     1      -9.652   6.413  70.709  1.00  0.00    -0.177 OA 
BRANCH  12  13
HETATM   13  C   UNL     1      -8.618   5.492  70.901  1.00  0.00    -0.128 C  
HETATM   14  O   UNL     1      -7.429   5.737  71.033  1.00  0.00    -0.085 OA 
BRANCH  13  15
HETATM   15  C   UNL     1      -9.173   4.116  70.975  1.00  0.00    -0.202 A  
HETATM   16  C   UNL     1      -9.175   3.288  69.838  1.00  0.00    -0.222 A  
HETATM   17  C   UNL     1      -9.658   1.978  69.916  1.00  0.00    -0.050 A  
HETATM   18  C   UNL     1     -10.134   1.476  71.124  1.00  0.00    -0.021 A  
HETATM   19  C   UNL     1     -10.124   2.278  72.262  1.00  0.00    -0.229 A  
HETATM   20  C   UNL     1      -9.667   3.602  72.183  1.00  0.00    -0.163 A  
BRANCH  20  21
HETATM   21  O   UNL     1      -9.615   4.353  73.374  1.00  0.00    -0.120 OA 
BRANCH  21  22
HETATM   22  C   UNL     1     -10.692   5.201  73.621  1.00  0.00    -0.293 C  
HETATM   23  O   UNL     1     -11.865   4.987  73.348  1.00  0.00    -0.155 OA 
HETATM   24  C   UNL     1     -10.214   6.401  74.383  1.00  0.00    -0.343 C  
ENDBRANCH  21  22
ENDBRANCH  20  21
ENDBRANCH  13  15
ENDBRANCH  12  13
ENDBRANCH   9  12
ENDBRANCH   3   6
TORSDOF 6
ENDMDL
MODEL      268
REMARK 921   NORMALIZED FREE ENERGY PREDICTED BY IDOCK:   -2.59 KCAL/MOL
REMARK 922        TOTAL FREE ENERGY PREDICTED BY IDOCK:   -4.97 KCAL/MOL
REMARK 923 INTER-LIGAND FREE ENERGY PREDICTED BY IDOCK:   -4.84 KCAL/MOL
REMARK 924 INTRA-LIGAND FREE ENERGY PREDICTED BY IDOCK:   -0.13 KCAL/MOL
REMARK 927      BINDING AFFINITY PREDICTED BY RF-SCORE:    0.00 PKD
ROOT
HETATM    1  C   UNL     1     -10.421   4.623  65.929  1.00  0.00    -0.305 C  
HETATM    2  C   UNL     1     -10.312   5.964  66.609  1.00  0.00    -0.226 C  
HETATM    3  N   UNL     1      -9.395   6.801  65.994  1.00  0.00    -0.377 N  
HETATM    4  O   UNL     1     -10.999   6.213  67.592  1.00  0.00    -0.312 OA 
HETATM    5  H   UNL     1      -8.915   6.430  65.174  1.00  0.00     0.000 HD 
ENDROOT
BRANCH   3   6
HETATM    6  C   UNL     1      -9.055   8.118  66.385  1.00  0.00    -0.183 A  
HETATM    7  C   UNL     1      -9.351   9.248  65.618  1.00  0.00    -0.308 A  
HETATM    8  C   UNL     1      -9.019  10.529  66.060  1.00  0.00    -0.185 A  
HETATM    9  C   UNL     1      -8.406  10.706  67.296  1.00  0.00    -0.120 A  
HETATM   10  C   UNL     1      -8.392   8.300  67.607  1.00  0.00    -0.127 A  
HETATM   11  C   UNL     1      -8.061   9.588  68.058  1.00  0.00    -0.102 A  
BRANCH   9  12
HETATM   12  O   UNL     1      -8.111  11.971  67.863  1.00  0.00    -0.131 OA 
BRANCH  12  13
HETATM   13  C   UNL     1      -8.638  13.173  67.384  1.00  0.00    -0.204 C  
HETATM   14  O   UNL     1      -9.764  13.364  66.952  1.00  0.00    -0.238 OA 
BRANCH  13  15
HETATM   15  C   UNL     1      -7.628  14.255  67.512  1.00  0.00    -0.202 A  
HETATM   16  C   UNL     1      -6.277  13.942  67.749  1.00  0.00    -0.155 A  
HETATM   17  C   UNL     1      -5.318  14.956  67.829  1.00  0.00    -0.044 A  
HETATM   18  C   UNL     1      -5.688  16.288  67.664  1.00  0.00    -0.168 A  
HETATM   19  C   UNL     1      -7.018  16.613  67.413  1.00  0.00    -0.190 A  
HETATM   20  C   UNL     1      -7.990  15.601  67.361  1.00  0.00    -0.178 A  
BRANCH  20  21
HETATM   21  O   UNL     1      -9.310  15.973  67.040  1.00  0.00    -0.210 OA 
BRANCH  21  22
HETATM   22  C   UNL     1      -9.969  16.783  67.961  1.00  0.00    -0.272 C  
HETATM   23  O   UNL     1      -9.990  16.636  69.176  1.00  0.00    -0.263 OA 
HETATM   24  C   UNL     1     -10.580  17.952  67.248  1.00  0.00    -0.341 C  
ENDBRANCH  21  22
ENDBRANCH  20  21
ENDBRANCH  13  15
ENDBRANCH  12  13
ENDBRANCH   9  12
ENDBRANCH   3   6
TORSDOF 6
ENDMDL
MODEL      269
REMARK 921   NORMALIZED FREE ENERGY PREDICTED BY IDOCK:   -2.58 KCAL/MOL
REMARK 922        TOTAL FREE ENERGY PREDICTED BY IDOCK:   -4.96 KCAL/MOL
REMARK 923 INTER-LIGAND FREE ENERGY PREDICTED BY IDOCK:   -4.33 KCAL/MOL
REMARK 924 INTRA-LIGAND FREE ENERGY PREDICTED BY IDOCK:   -0.63 KCAL/MOL
REMARK 927      BINDING AFFINITY PREDICTED BY RF-SCORE:    0.00 PKD
ROOT
HETATM    1  C   UNL     1      -9.470   2.699  62.649  1.00  0.00    -0.089 C  
HETATM    2  C   UNL     1      -9.420   3.022  64.121  1.00  0.00    -0.139 C  
HETATM    3  N   UNL     1      -9.521   4.381  64.373  1.00  0.00    -0.243 N  
HETATM    4  O   UNL     1      -9.308   2.122  64.945  1.00  0.00    -0.138 OA 
HETATM    5  H   UNL     1      -9.618   4.991  63.561  1.00  0.00     0.000 HD 
ENDROOT
BRANCH   3   6
HETATM    6  C   UNL     1      -9.503   5.011  65.640  1.00  0.00    -0.141 A  
HETATM    7  C   UNL     1     -10.658   5.299  66.371  1.00  0.00    -0.338 A  
HETATM    8  C   UNL     1     -10.587   5.897  67.630  1.00  0.00    -0.335 A  
HETATM    9  C   UNL     1      -9.351   6.195  68.194  1.00  0.00    -0.115 A  
HETATM   10  C   UNL     1      -8.263   5.359  66.194  1.00  0.00    -0.111 A  
HETATM   11  C   UNL     1      -8.186   5.956  67.462  1.00  0.00    -0.105 A  
BRANCH   9  12
HETATM   12  O   UNL     1      -9.179   6.721  69.499  1.00  0.00    -0.147 OA 
BRANCH  12  13
HETATM   13  C   UNL     1     -10.214   7.295  70.242  1.00  0.00    -0.199 C  
HETATM   14  O   UNL     1     -11.095   8.034  69.831  1.00  0.00    -0.215 OA 
BRANCH  13  15
HETATM   15  C   UNL     1     -10.137   6.837  71.653  1.00  0.00    -0.197 A  
HETATM   16  C   UNL     1     -10.140   7.771  72.705  1.00  0.00    -0.344 A  
HETATM   17  C   UNL     1     -10.110   7.342  74.035  1.00  0.00    -0.224 A  
HETATM   18  C   UNL     1     -10.087   5.982  74.334  1.00  0.00    -0.316 A  
HETATM   19  C   UNL     1     -10.100   5.044  73.305  1.00  0.00    -0.190 A  
HETATM   20  C   UNL     1     -10.101   5.471  71.968  1.00  0.00    -0.186 A  
BRANCH  20  21
HETATM   21  O   UNL     1     -10.180   4.486  70.963  1.00  0.00    -0.183 OA 
BRANCH  21  22
HETATM   22  C   UNL     1      -9.116   3.591  70.885  1.00  0.00    -0.112 C  
HETATM   23  O   UNL     1      -7.938   3.874  70.711  1.00  0.00    -0.054 OA 
HETATM   24  C   UNL     1      -9.614   2.203  71.157  1.00  0.00    -0.212 C  
ENDBRANCH  21  22
ENDBRANCH  20  21
ENDBRANCH  13  15
ENDBRANCH  12  13
ENDBRANCH   9  12
ENDBRANCH   3   6
TORSDOF 6
ENDMDL
MODEL      270
REMARK 921   NORMALIZED FREE ENERGY PREDICTED BY IDOCK:   -2.56 KCAL/MOL
REMARK 922        TOTAL FREE ENERGY PREDICTED BY IDOCK:   -4.94 KCAL/MOL
REMARK 923 INTER-LIGAND FREE ENERGY PREDICTED BY IDOCK:   -5.30 KCAL/MOL
REMARK 924 INTRA-LIGAND FREE ENERGY PREDICTED BY IDOCK:    0.36 KCAL/MOL
REMARK 927      BINDING AFFINITY PREDICTED BY RF-SCORE:    0.00 PKD
ROOT
HETATM    1  C   UNL     1      -9.544  11.218  63.146  1.00  0.00    -0.391 C  
HETATM    2  C   UNL     1      -9.959  10.910  64.562  1.00  0.00    -0.317 C  
HETATM    3  N   UNL     1      -9.499   9.677  64.997  1.00  0.00    -0.351 N  
HETATM    4  O   UNL     1     -10.625  11.719  65.198  1.00  0.00    -0.264 OA 
HETATM    5  H   UNL     1      -8.946   9.135  64.333  1.00  0.00     0.000 HD 
ENDROOT
BRANCH   3   6
HETATM    6  C   UNL     1      -9.716   9.092  66.267  1.00  0.00    -0.274 A  
HETATM    7  C   UNL     1     -10.113   9.820  67.391  1.00  0.00    -0.259 A  
HETATM    8  C   UNL     1     -10.341   9.192  68.617  1.00  0.00    -0.233 A  
HETATM    9  C   UNL     1     -10.201   7.814  68.733  1.00  0.00    -0.201 A  
HETATM   10  C   UNL     1      -9.528   7.709  66.405  1.00  0.00    -0.224 A  
HETATM   11  C   UNL     1      -9.761   7.072  67.634  1.00  0.00    -0.163 A  
BRANCH   9  12
HETATM   12  O   UNL     1     -10.494   7.081  69.911  1.00  0.00    -0.205 OA 
BRANCH  12  13
HETATM   13  C   UNL     1     -10.884   7.678  71.113  1.00  0.00    -0.235 C  
HETATM   14  O   UNL     1     -11.688   8.584  71.259  1.00  0.00    -0.271 OA 
BRANCH  13  15
HETATM   15  C   UNL     1     -10.202   7.011  72.252  1.00  0.00    -0.207 A  
HETATM   16  C   UNL     1     -10.655   5.763  72.719  1.00  0.00    -0.262 A  
HETATM   17  C   UNL     1      -9.990   5.113  73.764  1.00  0.00    -0.194 A  
HETATM   18  C   UNL     1      -8.865   5.690  74.347  1.00  0.00    -0.121 A  
HETATM   19  C   UNL     1      -8.396   6.917  73.886  1.00  0.00    -0.152 A  
HETATM   20  C   UNL     1      -9.076   7.587  72.857  1.00  0.00    -0.163 A  
BRANCH  20  21
HETATM   21  O   UNL     1      -8.526   8.793  72.380  1.00  0.00    -0.393 OA 
BRANCH  21  22
HETATM   22  C   UNL     1      -7.474   8.681  71.474  1.00  0.00    -0.101 C  
HETATM   23  O   UNL     1      -6.786   9.595  71.041  1.00  0.00    -0.253 OA 
HETATM   24  C   UNL     1      -7.227   7.232  71.177  1.00  0.00    -0.072 C  
ENDBRANCH  21  22
ENDBRANCH  20  21
ENDBRANCH  13  15
ENDBRANCH  12  13
ENDBRANCH   9  12
ENDBRANCH   3   6
TORSDOF 6
ENDMDL
MODEL      271
REMARK 921   NORMALIZED FREE ENERGY PREDICTED BY IDOCK:   -2.56 KCAL/MOL
REMARK 922        TOTAL FREE ENERGY PREDICTED BY IDOCK:   -4.93 KCAL/MOL
REMARK 923 INTER-LIGAND FREE ENERGY PREDICTED BY IDOCK:   -4.16 KCAL/MOL
REMARK 924 INTRA-LIGAND FREE ENERGY PREDICTED BY IDOCK:   -0.77 KCAL/MOL
REMARK 927      BINDING AFFINITY PREDICTED BY RF-SCORE:    0.00 PKD
ROOT
HETATM    1  C   UNL     1      -8.287  10.135  62.475  1.00  0.00    -0.171 C  
HETATM    2  C   UNL     1      -8.495   9.831  63.937  1.00  0.00    -0.184 C  
HETATM    3  N   UNL     1      -7.322   9.461  64.578  1.00  0.00    -0.101 N  
HETATM    4  O   UNL     1      -9.610   9.931  64.434  1.00  0.00    -0.294 OA 
HETATM    5  H   UNL     1      -6.477   9.440  64.008  1.00  0.00     0.000 HD 
ENDROOT
BRANCH   3   6
HETATM    6  C   UNL     1      -7.176   9.110  65.941  1.00  0.00    -0.093 A  
HETATM    7  C   UNL     1      -6.750  10.006  66.924  1.00  0.00    -0.079 A  
HETATM    8  C   UNL     1      -6.648   9.617  68.261  1.00  0.00    -0.057 A  
HETATM    9  C   UNL     1      -6.998   8.327  68.643  1.00  0.00    -0.068 A  
HETATM   10  C   UNL     1      -7.480   7.796  66.326  1.00  0.00    -0.079 A  
HETATM   11  C   UNL     1      -7.384   7.402  67.670  1.00  0.00    -0.092 A  
BRANCH   9  12
HETATM   12  O   UNL     1      -7.009   7.872  69.986  1.00  0.00    -0.048 OA 
BRANCH  12  13
HETATM   13  C   UNL     1      -7.833   8.411  70.977  1.00  0.00    -0.100 C  
HETATM   14  O   UNL     1      -7.552   9.298  71.767  1.00  0.00    -0.329 OA 
BRANCH  13  15
HETATM   15  C   UNL     1      -9.175   7.776  70.919  1.00  0.00    -0.155 A  
HETATM   16  C   UNL     1      -9.365   6.470  71.406  1.00  0.00    -0.154 A  
HETATM   17  C   UNL     1     -10.635   5.885  71.391  1.00  0.00    -0.309 A  
HETATM   18  C   UNL     1     -11.729   6.595  70.903  1.00  0.00    -0.431 A  
HETATM   19  C   UNL     1     -11.561   7.894  70.431  1.00  0.00    -0.092 A  
HETATM   20  C   UNL     1     -10.283   8.474  70.417  1.00  0.00    -0.195 A  
BRANCH  20  21
HETATM   21  O   UNL     1     -10.173   9.813  69.993  1.00  0.00    -0.230 OA 
BRANCH  21  22
HETATM   22  C   UNL     1     -11.229  10.313  69.235  1.00  0.00    -0.228 C  
HETATM   23  O   UNL     1     -11.379  10.193  68.026  1.00  0.00    -0.250 OA 
HETATM   24  C   UNL     1     -12.238  10.947  70.145  1.00  0.00    -0.423 C  
ENDBRANCH  21  22
ENDBRANCH  20  21
ENDBRANCH  13  15
ENDBRANCH  12  13
ENDBRANCH   9  12
ENDBRANCH   3   6
TORSDOF 6
ENDMDL
MODEL      272
REMARK 921   NORMALIZED FREE ENERGY PREDICTED BY IDOCK:   -2.55 KCAL/MOL
REMARK 922        TOTAL FREE ENERGY PREDICTED BY IDOCK:   -4.92 KCAL/MOL
REMARK 923 INTER-LIGAND FREE ENERGY PREDICTED BY IDOCK:   -3.73 KCAL/MOL
REMARK 924 INTRA-LIGAND FREE ENERGY PREDICTED BY IDOCK:   -1.20 KCAL/MOL
REMARK 927      BINDING AFFINITY PREDICTED BY RF-SCORE:    0.00 PKD
ROOT
HETATM    1  C   UNL     1     -11.915  11.788  69.188  1.00  0.00    -0.356 C  
HETATM    2  C   UNL     1     -11.499  10.522  69.893  1.00  0.00    -0.310 C  
HETATM    3  N   UNL     1     -10.712   9.702  69.099  1.00  0.00    -0.221 N  
HETATM    4  O   UNL     1     -11.853  10.315  71.048  1.00  0.00    -0.336 OA 
HETATM    5  H   UNL     1     -10.507  10.039  68.158  1.00  0.00     0.000 HD 
ENDROOT
BRANCH   3   6
HETATM    6  C   UNL     1     -10.164   8.448  69.457  1.00  0.00    -0.207 A  
HETATM    7  C   UNL     1     -10.942   7.324  69.745  1.00  0.00    -0.235 A  
HETATM    8  C   UNL     1     -10.353   6.100  70.068  1.00  0.00    -0.267 A  
HETATM    9  C   UNL     1      -8.968   5.973  70.081  1.00  0.00    -0.147 A  
HETATM   10  C   UNL     1      -8.769   8.324  69.522  1.00  0.00    -0.138 A  
HETATM   11  C   UNL     1      -8.172   7.094  69.840  1.00  0.00    -0.133 A  
BRANCH   9  12
HETATM   12  O   UNL     1      -8.285   4.752  70.311  1.00  0.00    -0.077 OA 
BRANCH  12  13
HETATM   13  C   UNL     1      -8.682   3.530  69.763  1.00  0.00    -0.076 C  
HETATM   14  O   UNL     1      -9.591   2.811  70.146  1.00  0.00    -0.137 OA 
BRANCH  13  15
HETATM   15  C   UNL     1      -7.854   3.219  68.569  1.00  0.00    -0.059 A  
HETATM   16  C   UNL     1      -6.500   2.868  68.715  1.00  0.00    -0.029 A  
HETATM   17  C   UNL     1      -5.729   2.534  67.598  1.00  0.00    -0.019 A  
HETATM   18  C   UNL     1      -6.298   2.534  66.327  1.00  0.00    -0.024 A  
HETATM   19  C   UNL     1      -7.641   2.864  66.167  1.00  0.00    -0.076 A  
HETATM   20  C   UNL     1      -8.411   3.228  67.282  1.00  0.00    -0.099 A  
BRANCH  20  21
HETATM   21  O   UNL     1      -9.781   3.489  67.079  1.00  0.00    -0.176 OA 
BRANCH  21  22
HETATM   22  C   UNL     1     -10.097   4.398  66.072  1.00  0.00    -0.239 C  
HETATM   23  O   UNL     1     -10.835   4.197  65.116  1.00  0.00    -0.193 OA 
HETATM   24  C   UNL     1      -9.476   5.726  66.387  1.00  0.00    -0.172 C  
ENDBRANCH  21  22
ENDBRANCH  20  21
ENDBRANCH  13  15
ENDBRANCH  12  13
ENDBRANCH   9  12
ENDBRANCH   3   6
TORSDOF 6
ENDMDL
MODEL      273
REMARK 921   NORMALIZED FREE ENERGY PREDICTED BY IDOCK:   -2.53 KCAL/MOL
REMARK 922        TOTAL FREE ENERGY PREDICTED BY IDOCK:   -4.90 KCAL/MOL
REMARK 923 INTER-LIGAND FREE ENERGY PREDICTED BY IDOCK:   -4.39 KCAL/MOL
REMARK 924 INTRA-LIGAND FREE ENERGY PREDICTED BY IDOCK:   -0.50 KCAL/MOL
REMARK 927      BINDING AFFINITY PREDICTED BY RF-SCORE:    0.00 PKD
ROOT
HETATM    1  C   UNL     1      -8.420  15.908  66.571  1.00  0.00    -0.348 C  
HETATM    2  C   UNL     1      -8.267  14.499  67.084  1.00  0.00    -0.188 C  
HETATM    3  N   UNL     1      -9.467  13.805  67.105  1.00  0.00    -0.235 N  
HETATM    4  O   UNL     1      -7.164  14.082  67.421  1.00  0.00    -0.178 OA 
HETATM    5  H   UNL     1     -10.292  14.308  66.778  1.00  0.00     0.000 HD 
ENDROOT
BRANCH   3   6
HETATM    6  C   UNL     1      -9.667  12.471  67.533  1.00  0.00    -0.196 A  
HETATM    7  C   UNL     1      -8.748  11.770  68.319  1.00  0.00    -0.167 A  
HETATM    8  C   UNL     1      -9.005  10.464  68.738  1.00  0.00    -0.157 A  
HETATM    9  C   UNL     1     -10.201   9.842  68.400  1.00  0.00    -0.178 A  
HETATM   10  C   UNL     1     -10.849  11.820  67.154  1.00  0.00    -0.303 A  
HETATM   11  C   UNL     1     -11.114  10.508  67.578  1.00  0.00    -0.358 A  
BRANCH   9  12
HETATM   12  O   UNL     1     -10.584   8.554  68.852  1.00  0.00    -0.213 OA 
BRANCH  12  13
HETATM   13  C   UNL     1     -10.507   7.404  68.061  1.00  0.00    -0.199 C  
HETATM   14  O   UNL     1     -10.966   7.248  66.941  1.00  0.00    -0.343 OA 
BRANCH  13  15
HETATM   15  C   UNL     1      -9.719   6.359  68.764  1.00  0.00    -0.135 A  
HETATM   16  C   UNL     1     -10.366   5.258  69.354  1.00  0.00    -0.313 A  
HETATM   17  C   UNL     1      -9.624   4.251  69.979  1.00  0.00    -0.274 A  
HETATM   18  C   UNL     1      -8.234   4.323  70.017  1.00  0.00    -0.070 A  
HETATM   19  C   UNL     1      -7.578   5.399  69.425  1.00  0.00    -0.077 A  
HETATM   20  C   UNL     1      -8.319   6.426  68.821  1.00  0.00    -0.121 A  
BRANCH  20  21
HETATM   21  O   UNL     1      -7.610   7.460  68.178  1.00  0.00    -0.108 OA 
BRANCH  21  22
HETATM   22  C   UNL     1      -7.252   7.236  66.851  1.00  0.00    -0.088 C  
HETATM   23  O   UNL     1      -7.821   6.497  66.058  1.00  0.00    -0.096 OA 
HETATM   24  C   UNL     1      -6.105   8.131  66.487  1.00  0.00    -0.049 C  
ENDBRANCH  21  22
ENDBRANCH  20  21
ENDBRANCH  13  15
ENDBRANCH  12  13
ENDBRANCH   9  12
ENDBRANCH   3   6
TORSDOF 6
ENDMDL
MODEL      274
REMARK 921   NORMALIZED FREE ENERGY PREDICTED BY IDOCK:   -2.49 KCAL/MOL
REMARK 922        TOTAL FREE ENERGY PREDICTED BY IDOCK:   -4.84 KCAL/MOL
REMARK 923 INTER-LIGAND FREE ENERGY PREDICTED BY IDOCK:   -3.79 KCAL/MOL
REMARK 924 INTRA-LIGAND FREE ENERGY PREDICTED BY IDOCK:   -1.05 KCAL/MOL
REMARK 927      BINDING AFFINITY PREDICTED BY RF-SCORE:    0.00 PKD
ROOT
HETATM    1  C   UNL     1     -13.878  16.019  72.952  1.00  0.00    -0.409 C  
HETATM    2  C   UNL     1     -12.975  15.103  72.166  1.00  0.00    -0.353 C  
HETATM    3  N   UNL     1     -12.635  15.622  70.927  1.00  0.00    -0.454 N  
HETATM    4  O   UNL     1     -12.617  14.033  72.644  1.00  0.00    -0.234 OA 
HETATM    5  H   UNL     1     -13.019  16.538  70.694  1.00  0.00     0.000 HD 
ENDROOT
BRANCH   3   6
HETATM    6  C   UNL     1     -11.811  15.013  69.950  1.00  0.00    -0.324 A  
HETATM    7  C   UNL     1     -10.419  14.955  70.047  1.00  0.00    -0.060 A  
HETATM    8  C   UNL     1      -9.652  14.319  69.070  1.00  0.00    -0.010 A  
HETATM    9  C   UNL     1     -10.270  13.704  67.987  1.00  0.00    -0.248 A  
HETATM   10  C   UNL     1     -12.423  14.434  68.830  1.00  0.00     0.101 A  
HETATM   11  C   UNL     1     -11.657  13.788  67.847  1.00  0.00    -0.376 A  
BRANCH   9  12
HETATM   12  O   UNL     1      -9.580  12.962  66.995  1.00  0.00    -0.218 OA 
BRANCH  12  13
HETATM   13  C   UNL     1      -9.312  11.595  67.101  1.00  0.00    -0.174 C  
HETATM   14  O   UNL     1     -10.093  10.675  66.916  1.00  0.00    -0.198 OA 
BRANCH  13  15
HETATM   15  C   UNL     1      -7.880  11.384  67.436  1.00  0.00    -0.135 A  
HETATM   16  C   UNL     1      -7.433  11.522  68.763  1.00  0.00    -0.119 A  
HETATM   17  C   UNL     1      -6.095  11.284  69.089  1.00  0.00    -0.053 A  
HETATM   18  C   UNL     1      -5.191  10.896  68.104  1.00  0.00    -0.036 A  
HETATM   19  C   UNL     1      -5.620  10.740  66.789  1.00  0.00    -0.064 A  
HETATM   20  C   UNL     1      -6.956  11.006  66.452  1.00  0.00    -0.122 A  
BRANCH  20  21
HETATM   21  O   UNL     1      -7.359  10.771  65.122  1.00  0.00    -0.008 OA 
BRANCH  21  22
HETATM   22  C   UNL     1      -7.521   9.439  64.748  1.00  0.00    -0.107 C  
HETATM   23  O   UNL     1      -7.988   8.542  65.437  1.00  0.00    -0.100 OA 
HETATM   24  C   UNL     1      -7.131   9.275  63.310  1.00  0.00    -0.089 C  
ENDBRANCH  21  22
ENDBRANCH  20  21
ENDBRANCH  13  15
ENDBRANCH  12  13
ENDBRANCH   9  12
ENDBRANCH   3   6
TORSDOF 6
ENDMDL
MODEL      275
REMARK 921   NORMALIZED FREE ENERGY PREDICTED BY IDOCK:   -2.45 KCAL/MOL
REMARK 922        TOTAL FREE ENERGY PREDICTED BY IDOCK:   -4.78 KCAL/MOL
REMARK 923 INTER-LIGAND FREE ENERGY PREDICTED BY IDOCK:   -4.77 KCAL/MOL
REMARK 924 INTRA-LIGAND FREE ENERGY PREDICTED BY IDOCK:   -0.02 KCAL/MOL
REMARK 927      BINDING AFFINITY PREDICTED BY RF-SCORE:    0.00 PKD
ROOT
HETATM    1  C   UNL     1     -13.267  11.731  63.600  1.00  0.00     0.097 C  
HETATM    2  C   UNL     1     -12.131  12.572  64.126  1.00  0.00    -0.447 C  
HETATM    3  N   UNL     1     -11.311  11.875  64.999  1.00  0.00    -0.302 N  
HETATM    4  O   UNL     1     -12.011  13.738  63.768  1.00  0.00    -0.416 OA 
HETATM    5  H   UNL     1     -11.556  10.902  65.179  1.00  0.00     0.000 HD 
ENDROOT
BRANCH   3   6
HETATM    6  C   UNL     1     -10.167  12.373  65.666  1.00  0.00    -0.262 A  
HETATM    7  C   UNL     1      -9.923  13.735  65.861  1.00  0.00    -0.308 A  
HETATM    8  C   UNL     1      -8.792  14.176  66.551  1.00  0.00    -0.071 A  
HETATM    9  C   UNL     1      -7.895  13.256  67.083  1.00  0.00    -0.033 A  
HETATM   10  C   UNL     1      -9.232  11.454  66.163  1.00  0.00    -0.223 A  
HETATM   11  C   UNL     1      -8.096  11.892  66.862  1.00  0.00    -0.146 A  
BRANCH   9  12
HETATM   12  O   UNL     1      -6.769  13.608  67.870  1.00  0.00    -0.118 OA 
BRANCH  12  13
HETATM   13  C   UNL     1      -6.854  14.358  69.046  1.00  0.00    -0.111 C  
HETATM   14  O   UNL     1      -6.526  14.007  70.168  1.00  0.00    -0.129 OA 
BRANCH  13  15
HETATM   15  C   UNL     1      -7.375  15.716  68.744  1.00  0.00    -0.144 A  
HETATM   16  C   UNL     1      -6.655  16.582  67.900  1.00  0.00    -0.155 A  
HETATM   17  C   UNL     1      -7.163  17.844  67.580  1.00  0.00    -0.205 A  
HETATM   18  C   UNL     1      -8.393  18.255  68.086  1.00  0.00    -0.296 A  
HETATM   19  C   UNL     1      -9.125  17.405  68.909  1.00  0.00    -0.161 A  
HETATM   20  C   UNL     1      -8.606  16.148  69.257  1.00  0.00    -0.191 A  
BRANCH  20  21
HETATM   21  O   UNL     1      -9.412  15.296  70.039  1.00  0.00    -0.141 OA 
BRANCH  21  22
HETATM   22  C   UNL     1     -10.784  15.533  70.001  1.00  0.00    -0.318 C  
HETATM   23  O   UNL     1     -11.388  16.413  70.600  1.00  0.00    -0.368 OA 
HETATM   24  C   UNL     1     -11.423  14.599  69.017  1.00  0.00    -0.317 C  
ENDBRANCH  21  22
ENDBRANCH  20  21
ENDBRANCH  13  15
ENDBRANCH  12  13
ENDBRANCH   9  12
ENDBRANCH   3   6
TORSDOF 6
ENDMDL
MODEL      276
REMARK 921   NORMALIZED FREE ENERGY PREDICTED BY IDOCK:   -2.41 KCAL/MOL
REMARK 922        TOTAL FREE ENERGY PREDICTED BY IDOCK:   -4.73 KCAL/MOL
REMARK 923 INTER-LIGAND FREE ENERGY PREDICTED BY IDOCK:   -4.13 KCAL/MOL
REMARK 924 INTRA-LIGAND FREE ENERGY PREDICTED BY IDOCK:   -0.61 KCAL/MOL
REMARK 927      BINDING AFFINITY PREDICTED BY RF-SCORE:    0.00 PKD
ROOT
HETATM    1  C   UNL     1      -7.826  10.329  62.548  1.00  0.00    -0.158 C  
HETATM    2  C   UNL     1      -8.664  10.100  63.780  1.00  0.00    -0.212 C  
HETATM    3  N   UNL     1      -7.946   9.518  64.813  1.00  0.00    -0.116 N  
HETATM    4  O   UNL     1      -9.845  10.427  63.791  1.00  0.00    -0.310 OA 
HETATM    5  H   UNL     1      -6.962   9.320  64.631  1.00  0.00     0.000 HD 
ENDROOT
BRANCH   3   6
HETATM    6  C   UNL     1      -8.436   9.171  66.095  1.00  0.00    -0.129 A  
HETATM    7  C   UNL     1      -7.616   9.020  67.216  1.00  0.00    -0.088 A  
HETATM    8  C   UNL     1      -8.151   8.703  68.465  1.00  0.00    -0.117 A  
HETATM    9  C   UNL     1      -9.525   8.557  68.621  1.00  0.00    -0.143 A  
HETATM   10  C   UNL     1      -9.815   8.974  66.250  1.00  0.00    -0.361 A  
HETATM   11  C   UNL     1     -10.359   8.660  67.505  1.00  0.00    -0.336 A  
BRANCH   9  12
HETATM   12  O   UNL     1     -10.163   8.322  69.865  1.00  0.00    -0.193 OA 
BRANCH  12  13
HETATM   13  C   UNL     1     -10.756   7.105  70.210  1.00  0.00    -0.238 C  
HETATM   14  O   UNL     1     -11.745   6.597  69.705  1.00  0.00    -0.298 OA 
BRANCH  13  15
HETATM   15  C   UNL     1      -9.972   6.448  71.288  1.00  0.00    -0.204 A  
HETATM   16  C   UNL     1     -10.416   6.500  72.622  1.00  0.00    -0.236 A  
HETATM   17  C   UNL     1      -9.702   5.848  73.632  1.00  0.00    -0.160 A  
HETATM   18  C   UNL     1      -8.550   5.129  73.326  1.00  0.00    -0.113 A  
HETATM   19  C   UNL     1      -8.107   5.055  72.009  1.00  0.00    -0.112 A  
HETATM   20  C   UNL     1      -8.803   5.732  70.996  1.00  0.00    -0.138 A  
BRANCH  20  21
HETATM   21  O   UNL     1      -8.354   5.573  69.669  1.00  0.00    -0.099 OA 
BRANCH  21  22
HETATM   22  C   UNL     1      -8.919   4.528  68.943  1.00  0.00    -0.110 C  
HETATM   23  O   UNL     1      -9.206   3.417  69.369  1.00  0.00    -0.124 OA 
HETATM   24  C   UNL     1      -9.234   5.000  67.555  1.00  0.00    -0.129 C  
ENDBRANCH  21  22
ENDBRANCH  20  21
ENDBRANCH  13  15
ENDBRANCH  12  13
ENDBRANCH   9  12
ENDBRANCH   3   6
TORSDOF 6
ENDMDL
MODEL      277
REMARK 921   NORMALIZED FREE ENERGY PREDICTED BY IDOCK:   -2.38 KCAL/MOL
REMARK 922        TOTAL FREE ENERGY PREDICTED BY IDOCK:   -4.69 KCAL/MOL
REMARK 923 INTER-LIGAND FREE ENERGY PREDICTED BY IDOCK:   -4.02 KCAL/MOL
REMARK 924 INTRA-LIGAND FREE ENERGY PREDICTED BY IDOCK:   -0.67 KCAL/MOL
REMARK 927      BINDING AFFINITY PREDICTED BY RF-SCORE:    0.00 PKD
ROOT
HETATM    1  C   UNL     1      -9.213  10.515  62.707  1.00  0.00    -0.324 C  
HETATM    2  C   UNL     1      -9.282  10.162  64.172  1.00  0.00    -0.270 C  
HETATM    3  N   UNL     1      -8.095   9.630  64.649  1.00  0.00    -0.132 N  
HETATM    4  O   UNL     1     -10.311  10.363  64.805  1.00  0.00    -0.320 OA 
HETATM    5  H   UNL     1      -7.331   9.541  63.979  1.00  0.00     0.000 HD 
ENDROOT
BRANCH   3   6
HETATM    6  C   UNL     1      -7.832   9.195  65.970  1.00  0.00    -0.102 A  
HETATM    7  C   UNL     1      -6.997   9.883  66.853  1.00  0.00    -0.088 A  
HETATM    8  C   UNL     1      -6.791   9.427  68.157  1.00  0.00    -0.064 A  
HETATM    9  C   UNL     1      -7.441   8.285  68.609  1.00  0.00    -0.097 A  
HETATM   10  C   UNL     1      -8.445   8.016  66.418  1.00  0.00    -0.138 A  
HETATM   11  C   UNL     1      -8.245   7.557  67.729  1.00  0.00    -0.119 A  
BRANCH   9  12
HETATM   12  O   UNL     1      -7.360   7.798  69.938  1.00  0.00    -0.075 OA 
BRANCH  12  13
HETATM   13  C   UNL     1      -7.653   8.574  71.063  1.00  0.00    -0.090 C  
HETATM   14  O   UNL     1      -7.089   9.596  71.421  1.00  0.00    -0.324 OA 
BRANCH  13  15
HETATM   15  C   UNL     1      -8.823   8.004  71.780  1.00  0.00    -0.184 A  
HETATM   16  C   UNL     1     -10.035   8.715  71.842  1.00  0.00    -0.392 A  
HETATM   17  C   UNL     1     -11.149   8.162  72.480  1.00  0.00    -0.446 A  
HETATM   18  C   UNL     1     -11.074   6.896  73.053  1.00  0.00    -0.267 A  
HETATM   19  C   UNL     1      -9.886   6.173  72.987  1.00  0.00    -0.173 A  
HETATM   20  C   UNL     1      -8.757   6.735  72.373  1.00  0.00    -0.127 A  
BRANCH  20  21
HETATM   21  O   UNL     1      -7.598   5.939  72.273  1.00  0.00    -0.098 OA 
BRANCH  21  22
HETATM   22  C   UNL     1      -6.774   5.898  73.394  1.00  0.00    -0.075 C  
HETATM   23  O   UNL     1      -7.059   5.436  74.491  1.00  0.00    -0.080 OA 
HETATM   24  C   UNL     1      -5.415   6.419  73.032  1.00  0.00    -0.037 C  
ENDBRANCH  21  22
ENDBRANCH  20  21
ENDBRANCH  13  15
ENDBRANCH  12  13
ENDBRANCH   9  12
ENDBRANCH   3   6
TORSDOF 6
ENDMDL
MODEL      278
REMARK 921   NORMALIZED FREE ENERGY PREDICTED BY IDOCK:   -2.38 KCAL/MOL
REMARK 922        TOTAL FREE ENERGY PREDICTED BY IDOCK:   -4.69 KCAL/MOL
REMARK 923 INTER-LIGAND FREE ENERGY PREDICTED BY IDOCK:   -3.73 KCAL/MOL
REMARK 924 INTRA-LIGAND FREE ENERGY PREDICTED BY IDOCK:   -0.96 KCAL/MOL
REMARK 927      BINDING AFFINITY PREDICTED BY RF-SCORE:    0.00 PKD
ROOT
HETATM    1  C   UNL     1     -12.057  14.300  64.965  1.00  0.00    -0.428 C  
HETATM    2  C   UNL     1     -11.749  12.992  65.649  1.00  0.00    -0.375 C  
HETATM    3  N   UNL     1     -10.886  13.141  66.723  1.00  0.00    -0.274 N  
HETATM    4  O   UNL     1     -12.253  11.952  65.242  1.00  0.00    -0.357 OA 
HETATM    5  H   UNL     1     -10.569  14.089  66.926  1.00  0.00     0.000 HD 
ENDROOT
BRANCH   3   6
HETATM    6  C   UNL     1     -10.399  12.115  67.567  1.00  0.00    -0.205 A  
HETATM    7  C   UNL     1     -11.056  11.698  68.727  1.00  0.00    -0.283 A  
HETATM    8  C   UNL     1     -10.548  10.662  69.513  1.00  0.00    -0.265 A  
HETATM    9  C   UNL     1      -9.383  10.005  69.135  1.00  0.00    -0.193 A  
HETATM   10  C   UNL     1      -9.198  11.481  67.220  1.00  0.00    -0.168 A  
HETATM   11  C   UNL     1      -8.686  10.435  68.004  1.00  0.00    -0.123 A  
BRANCH   9  12
HETATM   12  O   UNL     1      -8.842   8.888  69.822  1.00  0.00    -0.135 OA 
BRANCH  12  13
HETATM   13  C   UNL     1      -7.564   8.874  70.386  1.00  0.00    -0.088 C  
HETATM   14  O   UNL     1      -6.947   9.827  70.838  1.00  0.00    -0.277 OA 
BRANCH  13  15
HETATM   15  C   UNL     1      -7.038   7.485  70.414  1.00  0.00    -0.059 A  
HETATM   16  C   UNL     1      -7.123   6.717  71.590  1.00  0.00    -0.080 A  
HETATM   17  C   UNL     1      -6.668   5.395  71.607  1.00  0.00    -0.056 A  
HETATM   18  C   UNL     1      -6.134   4.821  70.457  1.00  0.00    -0.018 A  
HETATM   19  C   UNL     1      -6.058   5.563  69.281  1.00  0.00    -0.025 A  
HETATM   20  C   UNL     1      -6.487   6.899  69.266  1.00  0.00    -0.043 A  
BRANCH  20  21
HETATM   21  O   UNL     1      -6.451   7.588  68.038  1.00  0.00    -0.046 OA 
BRANCH  21  22
HETATM   22  C   UNL     1      -7.205   7.047  66.999  1.00  0.00    -0.081 C  
HETATM   23  O   UNL     1      -8.408   7.185  66.825  1.00  0.00    -0.111 OA 
HETATM   24  C   UNL     1      -6.295   6.340  66.040  1.00  0.00    -0.039 C  
ENDBRANCH  21  22
ENDBRANCH  20  21
ENDBRANCH  13  15
ENDBRANCH  12  13
ENDBRANCH   9  12
ENDBRANCH   3   6
TORSDOF 6
ENDMDL
MODEL      279
REMARK 921   NORMALIZED FREE ENERGY PREDICTED BY IDOCK:   -2.36 KCAL/MOL
REMARK 922        TOTAL FREE ENERGY PREDICTED BY IDOCK:   -4.66 KCAL/MOL
REMARK 923 INTER-LIGAND FREE ENERGY PREDICTED BY IDOCK:   -4.05 KCAL/MOL
REMARK 924 INTRA-LIGAND FREE ENERGY PREDICTED BY IDOCK:   -0.61 KCAL/MOL
REMARK 927      BINDING AFFINITY PREDICTED BY RF-SCORE:    0.00 PKD
ROOT
HETATM    1  C   UNL     1      -9.441   2.647  63.310  1.00  0.00    -0.096 C  
HETATM    2  C   UNL     1      -8.563   3.646  64.020  1.00  0.00    -0.091 C  
HETATM    3  N   UNL     1      -9.085   4.930  63.991  1.00  0.00    -0.329 N  
HETATM    4  O   UNL     1      -7.520   3.282  64.549  1.00  0.00    -0.072 OA 
HETATM    5  H   UNL     1      -9.976   5.051  63.510  1.00  0.00     0.000 HD 
ENDROOT
BRANCH   3   6
HETATM    6  C   UNL     1      -8.508   6.092  64.558  1.00  0.00     0.025 A  
HETATM    7  C   UNL     1      -7.781   7.027  63.819  1.00  0.00    -0.111 A  
HETATM    8  C   UNL     1      -7.255   8.172  64.421  1.00  0.00    -0.084 A  
HETATM    9  C   UNL     1      -7.472   8.415  65.772  1.00  0.00    -0.077 A  
HETATM   10  C   UNL     1      -8.681   6.318  65.931  1.00  0.00    -0.154 A  
HETATM   11  C   UNL     1      -8.159   7.471  66.539  1.00  0.00    -0.120 A  
BRANCH   9  12
HETATM   12  O   UNL     1      -7.052   9.589  66.446  1.00  0.00    -0.086 OA 
BRANCH  12  13
HETATM   13  C   UNL     1      -7.703  10.110  67.568  1.00  0.00    -0.091 C  
HETATM   14  O   UNL     1      -7.328  10.057  68.728  1.00  0.00    -0.074 OA 
BRANCH  13  15
HETATM   15  C   UNL     1      -8.945  10.810  67.151  1.00  0.00    -0.145 A  
HETATM   16  C   UNL     1      -9.096  11.264  65.828  1.00  0.00    -0.216 A  
HETATM   17  C   UNL     1     -10.281  11.886  65.422  1.00  0.00    -0.300 A  
HETATM   18  C   UNL     1     -11.329  12.054  66.323  1.00  0.00    -0.415 A  
HETATM   19  C   UNL     1     -11.202  11.597  67.631  1.00  0.00    -0.345 A  
HETATM   20  C   UNL     1     -10.004  10.998  68.051  1.00  0.00    -0.173 A  
BRANCH  20  21
HETATM   21  O   UNL     1      -9.946  10.493  69.365  1.00  0.00    -0.222 OA 
BRANCH  21  22
HETATM   22  C   UNL     1     -10.769   9.405  69.649  1.00  0.00    -0.235 C  
HETATM   23  O   UNL     1     -10.758   8.319  69.086  1.00  0.00    -0.196 OA 
HETATM   24  C   UNL     1     -11.619   9.723  70.843  1.00  0.00    -0.441 C  
ENDBRANCH  21  22
ENDBRANCH  20  21
ENDBRANCH  13  15
ENDBRANCH  12  13
ENDBRANCH   9  12
ENDBRANCH   3   6
TORSDOF 6
ENDMDL
MODEL      280
REMARK 921   NORMALIZED FREE ENERGY PREDICTED BY IDOCK:   -2.33 KCAL/MOL
REMARK 922        TOTAL FREE ENERGY PREDICTED BY IDOCK:   -4.63 KCAL/MOL
REMARK 923 INTER-LIGAND FREE ENERGY PREDICTED BY IDOCK:   -4.13 KCAL/MOL
REMARK 924 INTRA-LIGAND FREE ENERGY PREDICTED BY IDOCK:   -0.50 KCAL/MOL
REMARK 927      BINDING AFFINITY PREDICTED BY RF-SCORE:    0.00 PKD
ROOT
HETATM    1  C   UNL     1     -10.733   3.517  62.369  1.00  0.00    -0.176 C  
HETATM    2  C   UNL     1     -10.193   3.382  63.771  1.00  0.00    -0.214 C  
HETATM    3  N   UNL     1     -10.122   4.596  64.435  1.00  0.00    -0.376 N  
HETATM    4  O   UNL     1      -9.880   2.280  64.206  1.00  0.00    -0.135 OA 
HETATM    5  H   UNL     1     -10.436   5.418  63.920  1.00  0.00     0.000 HD 
ENDROOT
BRANCH   3   6
HETATM    6  C   UNL     1      -9.660   4.813  65.755  1.00  0.00    -0.179 A  
HETATM    7  C   UNL     1      -8.334   4.611  66.147  1.00  0.00    -0.110 A  
HETATM    8  C   UNL     1      -7.921   4.866  67.456  1.00  0.00    -0.095 A  
HETATM    9  C   UNL     1      -8.825   5.356  68.392  1.00  0.00    -0.100 A  
HETATM   10  C   UNL     1     -10.576   5.260  66.717  1.00  0.00    -0.309 A  
HETATM   11  C   UNL     1     -10.164   5.523  68.033  1.00  0.00    -0.233 A  
BRANCH   9  12
HETATM   12  O   UNL     1      -8.477   5.725  69.716  1.00  0.00    -0.119 OA 
BRANCH  12  13
HETATM   13  C   UNL     1      -8.122   7.025  70.087  1.00  0.00    -0.130 C  
HETATM   14  O   UNL     1      -7.912   7.971  69.345  1.00  0.00    -0.111 OA 
BRANCH  13  15
HETATM   15  C   UNL     1      -8.074   7.133  71.568  1.00  0.00    -0.103 A  
HETATM   16  C   UNL     1      -7.076   6.462  72.298  1.00  0.00    -0.082 A  
HETATM   17  C   UNL     1      -7.003   6.596  73.688  1.00  0.00    -0.076 A  
HETATM   18  C   UNL     1      -7.913   7.403  74.364  1.00  0.00    -0.199 A  
HETATM   19  C   UNL     1      -8.898   8.086  73.655  1.00  0.00    -0.326 A  
HETATM   20  C   UNL     1      -8.993   7.932  72.263  1.00  0.00    -0.156 A  
BRANCH  20  21
HETATM   21  O   UNL     1      -9.963   8.694  71.581  1.00  0.00    -0.226 OA 
BRANCH  21  22
HETATM   22  C   UNL     1     -11.032   7.991  71.033  1.00  0.00    -0.241 C  
HETATM   23  O   UNL     1     -11.400   8.019  69.866  1.00  0.00    -0.114 OA 
HETATM   24  C   UNL     1     -11.622   7.089  72.076  1.00  0.00    -0.322 C  
ENDBRANCH  21  22
ENDBRANCH  20  21
ENDBRANCH  13  15
ENDBRANCH  12  13
ENDBRANCH   9  12
ENDBRANCH   3   6
TORSDOF 6
ENDMDL
MODEL      281
REMARK 921   NORMALIZED FREE ENERGY PREDICTED BY IDOCK:   -2.33 KCAL/MOL
REMARK 922        TOTAL FREE ENERGY PREDICTED BY IDOCK:   -4.63 KCAL/MOL
REMARK 923 INTER-LIGAND FREE ENERGY PREDICTED BY IDOCK:   -4.17 KCAL/MOL
REMARK 924 INTRA-LIGAND FREE ENERGY PREDICTED BY IDOCK:   -0.46 KCAL/MOL
REMARK 927      BINDING AFFINITY PREDICTED BY RF-SCORE:    0.00 PKD
ROOT
HETATM    1  C   UNL     1      -9.657  14.861  66.356  1.00  0.00    -0.317 C  
HETATM    2  C   UNL     1      -9.760  13.495  66.986  1.00  0.00    -0.251 C  
HETATM    3  N   UNL     1      -8.823  12.604  66.486  1.00  0.00    -0.408 N  
HETATM    4  O   UNL     1     -10.604  13.277  67.848  1.00  0.00    -0.229 OA 
HETATM    5  H   UNL     1      -8.187  12.962  65.773  1.00  0.00     0.000 HD 
ENDROOT
BRANCH   3   6
HETATM    6  C   UNL     1      -8.657  11.250  66.862  1.00  0.00    -0.150 A  
HETATM    7  C   UNL     1      -7.575  10.467  66.454  1.00  0.00    -0.123 A  
HETATM    8  C   UNL     1      -7.443   9.142  66.874  1.00  0.00    -0.091 A  
HETATM    9  C   UNL     1      -8.380   8.585  67.736  1.00  0.00    -0.130 A  
HETATM   10  C   UNL     1      -9.624  10.666  67.692  1.00  0.00    -0.178 A  
HETATM   11  C   UNL     1      -9.493   9.336  68.122  1.00  0.00    -0.150 A  
BRANCH   9  12
HETATM   12  O   UNL     1      -8.280   7.280  68.283  1.00  0.00    -0.122 OA 
BRANCH  12  13
HETATM   13  C   UNL     1      -7.538   6.978  69.427  1.00  0.00    -0.099 C  
HETATM   14  O   UNL     1      -6.629   7.634  69.911  1.00  0.00    -0.040 OA 
BRANCH  13  15
HETATM   15  C   UNL     1      -8.044   5.723  70.042  1.00  0.00    -0.108 A  
HETATM   16  C   UNL     1      -7.387   4.502  69.808  1.00  0.00    -0.051 A  
HETATM   17  C   UNL     1      -7.836   3.327  70.418  1.00  0.00    -0.045 A  
HETATM   18  C   UNL     1      -8.934   3.355  71.273  1.00  0.00    -0.157 A  
HETATM   19  C   UNL     1      -9.586   4.559  71.527  1.00  0.00    -0.227 A  
HETATM   20  C   UNL     1      -9.157   5.735  70.894  1.00  0.00    -0.145 A  
BRANCH  20  21
HETATM   21  O   UNL     1      -9.806   6.939  71.234  1.00  0.00    -0.176 OA 
BRANCH  21  22
HETATM   22  C   UNL     1     -11.189   6.968  71.068  1.00  0.00    -0.274 C  
HETATM   23  O   UNL     1     -12.013   7.341  71.891  1.00  0.00    -0.287 OA 
HETATM   24  C   UNL     1     -11.529   6.565  69.664  1.00  0.00    -0.417 C  
ENDBRANCH  21  22
ENDBRANCH  20  21
ENDBRANCH  13  15
ENDBRANCH  12  13
ENDBRANCH   9  12
ENDBRANCH   3   6
TORSDOF 6
ENDMDL
MODEL      282
REMARK 921   NORMALIZED FREE ENERGY PREDICTED BY IDOCK:   -2.33 KCAL/MOL
REMARK 922        TOTAL FREE ENERGY PREDICTED BY IDOCK:   -4.62 KCAL/MOL
REMARK 923 INTER-LIGAND FREE ENERGY PREDICTED BY IDOCK:   -3.61 KCAL/MOL
REMARK 924 INTRA-LIGAND FREE ENERGY PREDICTED BY IDOCK:   -1.01 KCAL/MOL
REMARK 927      BINDING AFFINITY PREDICTED BY RF-SCORE:    0.00 PKD
ROOT
HETATM    1  C   UNL     1      -6.889  10.858  66.564  1.00  0.00    -0.132 C  
HETATM    2  C   UNL     1      -7.343  10.085  67.776  1.00  0.00    -0.089 C  
HETATM    3  N   UNL     1      -8.216   9.057  67.457  1.00  0.00    -0.108 N  
HETATM    4  O   UNL     1      -6.934  10.390  68.890  1.00  0.00    -0.060 OA 
HETATM    5  H   UNL     1      -8.443   8.940  66.469  1.00  0.00     0.000 HD 
ENDROOT
BRANCH   3   6
HETATM    6  C   UNL     1      -8.825   8.152  68.358  1.00  0.00    -0.133 A  
HETATM    7  C   UNL     1     -10.107   8.335  68.881  1.00  0.00    -0.208 A  
HETATM    8  C   UNL     1     -10.675   7.399  69.747  1.00  0.00    -0.252 A  
HETATM    9  C   UNL     1      -9.976   6.245  70.086  1.00  0.00    -0.172 A  
HETATM   10  C   UNL     1      -8.107   7.011  68.744  1.00  0.00    -0.121 A  
HETATM   11  C   UNL     1      -8.676   6.064  69.610  1.00  0.00    -0.133 A  
BRANCH   9  12
HETATM   12  O   UNL     1     -10.506   5.201  70.886  1.00  0.00    -0.237 OA 
BRANCH  12  13
HETATM   13  C   UNL     1     -10.649   5.290  72.273  1.00  0.00    -0.222 C  
HETATM   14  O   UNL     1     -11.647   5.626  72.892  1.00  0.00    -0.277 OA 
BRANCH  13  15
HETATM   15  C   UNL     1      -9.393   4.859  72.939  1.00  0.00    -0.145 A  
HETATM   16  C   UNL     1      -8.860   3.580  72.694  1.00  0.00    -0.099 A  
HETATM   17  C   UNL     1      -7.656   3.187  73.286  1.00  0.00    -0.056 A  
HETATM   18  C   UNL     1      -6.965   4.063  74.119  1.00  0.00    -0.060 A  
HETATM   19  C   UNL     1      -7.471   5.338  74.360  1.00  0.00    -0.086 A  
HETATM   20  C   UNL     1      -8.693   5.726  73.791  1.00  0.00    -0.121 A  
BRANCH  20  21
HETATM   21  O   UNL     1      -9.131   7.047  74.010  1.00  0.00    -0.175 OA 
BRANCH  21  22
HETATM   22  C   UNL     1      -8.328   8.062  73.496  1.00  0.00    -0.233 C  
HETATM   23  O   UNL     1      -8.415   8.566  72.384  1.00  0.00    -0.263 OA 
HETATM   24  C   UNL     1      -7.383   8.535  74.560  1.00  0.00    -0.230 C  
ENDBRANCH  21  22
ENDBRANCH  20  21
ENDBRANCH  13  15
ENDBRANCH  12  13
ENDBRANCH   9  12
ENDBRANCH   3   6
TORSDOF 6
ENDMDL
MODEL      283
REMARK 921   NORMALIZED FREE ENERGY PREDICTED BY IDOCK:   -2.32 KCAL/MOL
REMARK 922        TOTAL FREE ENERGY PREDICTED BY IDOCK:   -4.61 KCAL/MOL
REMARK 923 INTER-LIGAND FREE ENERGY PREDICTED BY IDOCK:   -3.82 KCAL/MOL
REMARK 924 INTRA-LIGAND FREE ENERGY PREDICTED BY IDOCK:   -0.79 KCAL/MOL
REMARK 927      BINDING AFFINITY PREDICTED BY RF-SCORE:    0.00 PKD
ROOT
HETATM    1  C   UNL     1     -12.966   1.678  73.612  1.00  0.00     0.063 C  
HETATM    2  C   UNL     1     -11.627   2.245  73.213  1.00  0.00    -0.023 C  
HETATM    3  N   UNL     1     -11.659   3.620  73.041  1.00  0.00     0.169 N  
HETATM    4  O   UNL     1     -10.659   1.504  73.082  1.00  0.00    -0.103 OA 
HETATM    5  H   UNL     1     -12.555   4.080  73.202  1.00  0.00     0.000 HD 
ENDROOT
BRANCH   3   6
HETATM    6  C   UNL     1     -10.577   4.452  72.665  1.00  0.00    -0.162 A  
HETATM    7  C   UNL     1      -9.675   4.127  71.650  1.00  0.00    -0.246 A  
HETATM    8  C   UNL     1      -8.640   4.995  71.298  1.00  0.00    -0.132 A  
HETATM    9  C   UNL     1      -8.505   6.220  71.941  1.00  0.00    -0.124 A  
HETATM   10  C   UNL     1     -10.405   5.667  73.343  1.00  0.00    -0.242 A  
HETATM   11  C   UNL     1      -9.369   6.546  72.989  1.00  0.00    -0.145 A  
BRANCH   9  12
HETATM   12  O   UNL     1      -7.541   7.199  71.592  1.00  0.00    -0.086 OA 
BRANCH  12  13
HETATM   13  C   UNL     1      -7.865   8.433  71.022  1.00  0.00    -0.100 C  
HETATM   14  O   UNL     1      -7.601   9.541  71.463  1.00  0.00    -0.285 OA 
BRANCH  13  15
HETATM   15  C   UNL     1      -8.564   8.224  69.728  1.00  0.00    -0.129 A  
HETATM   16  C   UNL     1      -7.993   7.408  68.735  1.00  0.00    -0.123 A  
HETATM   17  C   UNL     1      -8.668   7.175  67.533  1.00  0.00    -0.121 A  
HETATM   18  C   UNL     1      -9.920   7.743  67.310  1.00  0.00    -0.277 A  
HETATM   19  C   UNL     1     -10.506   8.541  68.289  1.00  0.00    -0.222 A  
HETATM   20  C   UNL     1      -9.819   8.800  69.485  1.00  0.00    -0.180 A  
BRANCH  20  21
HETATM   21  O   UNL     1     -10.480   9.559  70.472  1.00  0.00    -0.252 OA 
BRANCH  21  22
HETATM   22  C   UNL     1     -11.617   8.987  71.038  1.00  0.00    -0.300 C  
HETATM   23  O   UNL     1     -11.830   7.792  71.192  1.00  0.00    -0.288 OA 
HETATM   24  C   UNL     1     -12.521  10.072  71.541  1.00  0.00    -0.516 C  
ENDBRANCH  21  22
ENDBRANCH  20  21
ENDBRANCH  13  15
ENDBRANCH  12  13
ENDBRANCH   9  12
ENDBRANCH   3   6
TORSDOF 6
ENDMDL
MODEL      284
REMARK 921   NORMALIZED FREE ENERGY PREDICTED BY IDOCK:   -2.31 KCAL/MOL
REMARK 922        TOTAL FREE ENERGY PREDICTED BY IDOCK:   -4.59 KCAL/MOL
REMARK 923 INTER-LIGAND FREE ENERGY PREDICTED BY IDOCK:   -3.55 KCAL/MOL
REMARK 924 INTRA-LIGAND FREE ENERGY PREDICTED BY IDOCK:   -1.04 KCAL/MOL
REMARK 927      BINDING AFFINITY PREDICTED BY RF-SCORE:    0.00 PKD
ROOT
HETATM    1  C   UNL     1      -7.957   7.940  74.509  1.00  0.00    -0.280 C  
HETATM    2  C   UNL     1      -8.666   7.655  73.209  1.00  0.00    -0.190 C  
HETATM    3  N   UNL     1      -8.031   6.678  72.458  1.00  0.00    -0.102 N  
HETATM    4  O   UNL     1      -9.693   8.259  72.922  1.00  0.00    -0.270 OA 
HETATM    5  H   UNL     1      -7.185   6.272  72.857  1.00  0.00     0.000 HD 
ENDROOT
BRANCH   3   6
HETATM    6  C   UNL     1      -8.435   6.185  71.194  1.00  0.00    -0.125 A  
HETATM    7  C   UNL     1      -7.742   6.447  70.010  1.00  0.00    -0.102 A  
HETATM    8  C   UNL     1      -8.166   5.915  68.791  1.00  0.00    -0.103 A  
HETATM    9  C   UNL     1      -9.281   5.085  68.740  1.00  0.00    -0.122 A  
HETATM   10  C   UNL     1      -9.586   5.388  71.127  1.00  0.00    -0.214 A  
HETATM   11  C   UNL     1     -10.014   4.846  69.904  1.00  0.00    -0.317 A  
BRANCH   9  12
HETATM   12  O   UNL     1      -9.732   4.432  67.566  1.00  0.00    -0.177 OA 
BRANCH  12  13
HETATM   13  C   UNL     1     -10.368   5.093  66.511  1.00  0.00    -0.291 C  
HETATM   14  O   UNL     1     -11.112   6.057  66.588  1.00  0.00    -0.263 OA 
BRANCH  13  15
HETATM   15  C   UNL     1      -9.971   4.479  65.218  1.00  0.00    -0.178 A  
HETATM   16  C   UNL     1     -10.906   3.747  64.462  1.00  0.00    -0.073 A  
HETATM   17  C   UNL     1     -10.548   3.204  63.225  1.00  0.00    -0.238 A  
HETATM   18  C   UNL     1      -9.263   3.390  62.721  1.00  0.00    -0.093 A  
HETATM   19  C   UNL     1      -8.331   4.125  63.450  1.00  0.00    -0.096 A  
HETATM   20  C   UNL     1      -8.677   4.647  64.705  1.00  0.00    -0.150 A  
BRANCH  20  21
HETATM   21  O   UNL     1      -7.722   5.439  65.374  1.00  0.00    -0.087 OA 
BRANCH  21  22
HETATM   22  C   UNL     1      -6.529   4.810  65.723  1.00  0.00    -0.040 C  
HETATM   23  O   UNL     1      -6.409   3.816  66.426  1.00  0.00    -0.031 OA 
HETATM   24  C   UNL     1      -5.390   5.477  65.012  1.00  0.00    -0.010 C  
ENDBRANCH  21  22
ENDBRANCH  20  21
ENDBRANCH  13  15
ENDBRANCH  12  13
ENDBRANCH   9  12
ENDBRANCH   3   6
TORSDOF 6
ENDMDL
MODEL      285
REMARK 921   NORMALIZED FREE ENERGY PREDICTED BY IDOCK:   -2.30 KCAL/MOL
REMARK 922        TOTAL FREE ENERGY PREDICTED BY IDOCK:   -4.58 KCAL/MOL
REMARK 923 INTER-LIGAND FREE ENERGY PREDICTED BY IDOCK:   -3.57 KCAL/MOL
REMARK 924 INTRA-LIGAND FREE ENERGY PREDICTED BY IDOCK:   -1.01 KCAL/MOL
REMARK 927      BINDING AFFINITY PREDICTED BY RF-SCORE:    0.00 PKD
ROOT
HETATM    1  C   UNL     1     -10.382  11.701  64.589  1.00  0.00    -0.341 C  
HETATM    2  C   UNL     1     -10.209  10.648  65.654  1.00  0.00    -0.253 C  
HETATM    3  N   UNL     1      -9.561   9.516  65.185  1.00  0.00    -0.428 N  
HETATM    4  O   UNL     1     -10.617  10.850  66.792  1.00  0.00    -0.244 OA 
HETATM    5  H   UNL     1      -9.281   9.523  64.204  1.00  0.00     0.000 HD 
ENDROOT
BRANCH   3   6
HETATM    6  C   UNL     1      -9.249   8.351  65.925  1.00  0.00    -0.155 A  
HETATM    7  C   UNL     1      -7.955   8.031  66.344  1.00  0.00    -0.102 A  
HETATM    8  C   UNL     1      -7.703   6.882  67.096  1.00  0.00    -0.108 A  
HETATM    9  C   UNL     1      -8.749   6.044  67.466  1.00  0.00    -0.107 A  
HETATM   10  C   UNL     1     -10.291   7.475  66.260  1.00  0.00     0.310 A  
HETATM   11  C   UNL     1     -10.043   6.322  67.021  1.00  0.00    -0.225 A  
BRANCH   9  12
HETATM   12  O   UNL     1      -8.599   4.907  68.300  1.00  0.00    -0.101 OA 
BRANCH  12  13
HETATM   13  C   UNL     1      -9.070   4.846  69.614  1.00  0.00    -0.107 C  
HETATM   14  O   UNL     1     -10.046   4.235  70.020  1.00  0.00    -0.196 OA 
BRANCH  13  15
HETATM   15  C   UNL     1      -8.169   5.615  70.510  1.00  0.00    -0.116 A  
HETATM   16  C   UNL     1      -6.842   5.194  70.715  1.00  0.00    -0.044 A  
HETATM   17  C   UNL     1      -5.979   5.939  71.525  1.00  0.00    -0.030 A  
HETATM   18  C   UNL     1      -6.421   7.113  72.129  1.00  0.00    -0.048 A  
HETATM   19  C   UNL     1      -7.726   7.552  71.923  1.00  0.00    -0.088 A  
HETATM   20  C   UNL     1      -8.604   6.792  71.135  1.00  0.00    -0.132 A  
BRANCH  20  21
HETATM   21  O   UNL     1      -9.894   7.310  70.902  1.00  0.00    -0.184 OA 
BRANCH  21  22
HETATM   22  C   UNL     1     -10.670   7.575  72.028  1.00  0.00    -0.225 C  
HETATM   23  O   UNL     1     -10.530   7.084  73.141  1.00  0.00    -0.243 OA 
HETATM   24  C   UNL     1     -11.661   8.654  71.707  1.00  0.00    -0.403 C  
ENDBRANCH  21  22
ENDBRANCH  20  21
ENDBRANCH  13  15
ENDBRANCH  12  13
ENDBRANCH   9  12
ENDBRANCH   3   6
TORSDOF 6
ENDMDL
MODEL      286
REMARK 921   NORMALIZED FREE ENERGY PREDICTED BY IDOCK:   -2.30 KCAL/MOL
REMARK 922        TOTAL FREE ENERGY PREDICTED BY IDOCK:   -4.58 KCAL/MOL
REMARK 923 INTER-LIGAND FREE ENERGY PREDICTED BY IDOCK:   -3.59 KCAL/MOL
REMARK 924 INTRA-LIGAND FREE ENERGY PREDICTED BY IDOCK:   -0.99 KCAL/MOL
REMARK 927      BINDING AFFINITY PREDICTED BY RF-SCORE:    0.00 PKD
ROOT
HETATM    1  C   UNL     1     -10.560  10.828  65.194  1.00  0.00    -0.239 C  
HETATM    2  C   UNL     1     -10.250  10.424  66.613  1.00  0.00    -0.234 C  
HETATM    3  N   UNL     1      -8.961   9.936  66.759  1.00  0.00    -0.138 N  
HETATM    4  O   UNL     1     -11.098  10.551  67.489  1.00  0.00    -0.310 OA 
HETATM    5  H   UNL     1      -8.384   9.909  65.918  1.00  0.00     0.000 HD 
ENDROOT
BRANCH   3   6
HETATM    6  C   UNL     1      -8.361   9.471  67.954  1.00  0.00    -0.115 A  
HETATM    7  C   UNL     1      -8.512  10.109  69.187  1.00  0.00    -0.157 A  
HETATM    8  C   UNL     1      -7.921   9.595  70.343  1.00  0.00    -0.191 A  
HETATM    9  C   UNL     1      -7.190   8.414  70.289  1.00  0.00    -0.044 A  
HETATM   10  C   UNL     1      -7.581   8.308  67.898  1.00  0.00    -0.102 A  
HETATM   11  C   UNL     1      -6.990   7.784  69.059  1.00  0.00    -0.069 A  
BRANCH   9  12
HETATM   12  O   UNL     1      -6.630   7.774  71.424  1.00  0.00    -0.041 OA 
BRANCH  12  13
HETATM   13  C   UNL     1      -6.981   6.485  71.834  1.00  0.00    -0.072 C  
HETATM   14  O   UNL     1      -6.225   5.562  72.092  1.00  0.00    -0.036 OA 
BRANCH  13  15
HETATM   15  C   UNL     1      -8.457   6.383  71.971  1.00  0.00    -0.115 A  
HETATM   16  C   UNL     1      -9.131   7.111  72.969  1.00  0.00    -0.166 A  
HETATM   17  C   UNL     1     -10.524   7.049  73.073  1.00  0.00    -0.307 A  
HETATM   18  C   UNL     1     -11.261   6.274  72.182  1.00  0.00    -0.326 A  
HETATM   19  C   UNL     1     -10.611   5.560  71.179  1.00  0.00    -0.303 A  
HETATM   20  C   UNL     1      -9.211   5.596  71.089  1.00  0.00    -0.149 A  
BRANCH  20  21
HETATM   21  O   UNL     1      -8.603   4.911  70.018  1.00  0.00    -0.088 OA 
BRANCH  21  22
HETATM   22  C   UNL     1      -9.071   3.625  69.757  1.00  0.00    -0.124 C  
HETATM   23  O   UNL     1      -9.656   3.254  68.749  1.00  0.00    -0.160 OA 
HETATM   24  C   UNL     1      -8.654   2.709  70.869  1.00  0.00    -0.104 C  
ENDBRANCH  21  22
ENDBRANCH  20  21
ENDBRANCH  13  15
ENDBRANCH  12  13
ENDBRANCH   9  12
ENDBRANCH   3   6
TORSDOF 6
ENDMDL
MODEL      287
REMARK 921   NORMALIZED FREE ENERGY PREDICTED BY IDOCK:   -2.29 KCAL/MOL
REMARK 922        TOTAL FREE ENERGY PREDICTED BY IDOCK:   -4.57 KCAL/MOL
REMARK 923 INTER-LIGAND FREE ENERGY PREDICTED BY IDOCK:   -4.17 KCAL/MOL
REMARK 924 INTRA-LIGAND FREE ENERGY PREDICTED BY IDOCK:   -0.40 KCAL/MOL
REMARK 927      BINDING AFFINITY PREDICTED BY RF-SCORE:    0.00 PKD
ROOT
HETATM    1  C   UNL     1     -14.382   8.871  72.557  1.00  0.00    -0.309 C  
HETATM    2  C   UNL     1     -13.234   8.985  71.587  1.00  0.00    -0.371 C  
HETATM    3  N   UNL     1     -12.358   7.914  71.668  1.00  0.00    -0.306 N  
HETATM    4  O   UNL     1     -13.157   9.949  70.835  1.00  0.00    -0.348 OA 
HETATM    5  H   UNL     1     -12.583   7.189  72.350  1.00  0.00     0.000 HD 
ENDROOT
BRANCH   3   6
HETATM    6  C   UNL     1     -11.184   7.720  70.902  1.00  0.00    -0.271 A  
HETATM    7  C   UNL     1     -11.140   6.934  69.748  1.00  0.00    -0.316 A  
HETATM    8  C   UNL     1      -9.962   6.796  69.012  1.00  0.00    -0.161 A  
HETATM    9  C   UNL     1      -8.809   7.466  69.405  1.00  0.00    -0.137 A  
HETATM   10  C   UNL     1     -10.004   8.353  71.320  1.00  0.00    -0.261 A  
HETATM   11  C   UNL     1      -8.818   8.221  70.580  1.00  0.00    -0.151 A  
BRANCH   9  12
HETATM   12  O   UNL     1      -7.594   7.455  68.674  1.00  0.00    -0.105 OA 
BRANCH  12  13
HETATM   13  C   UNL     1      -7.138   6.347  67.953  1.00  0.00    -0.085 C  
HETATM   14  O   UNL     1      -6.655   5.322  68.406  1.00  0.00    -0.045 OA 
BRANCH  13  15
HETATM   15  C   UNL     1      -7.367   6.560  66.501  1.00  0.00    -0.078 A  
HETATM   16  C   UNL     1      -7.039   7.791  65.902  1.00  0.00    -0.064 A  
HETATM   17  C   UNL     1      -7.214   7.980  64.528  1.00  0.00    -0.084 A  
HETATM   18  C   UNL     1      -7.705   6.947  63.734  1.00  0.00    -0.118 A  
HETATM   19  C   UNL     1      -8.020   5.718  64.308  1.00  0.00    -0.125 A  
HETATM   20  C   UNL     1      -7.873   5.533  65.692  1.00  0.00    -0.101 A  
BRANCH  20  21
HETATM   21  O   UNL     1      -8.142   4.253  66.216  1.00  0.00    -0.101 OA 
BRANCH  21  22
HETATM   22  C   UNL     1      -9.447   4.018  66.642  1.00  0.00    -0.197 C  
HETATM   23  O   UNL     1      -9.786   3.519  67.708  1.00  0.00    -0.165 OA 
HETATM   24  C   UNL     1     -10.407   4.571  65.632  1.00  0.00    -0.274 C  
ENDBRANCH  21  22
ENDBRANCH  20  21
ENDBRANCH  13  15
ENDBRANCH  12  13
ENDBRANCH   9  12
ENDBRANCH   3   6
TORSDOF 6
ENDMDL
MODEL      288
REMARK 921   NORMALIZED FREE ENERGY PREDICTED BY IDOCK:   -2.26 KCAL/MOL
REMARK 922        TOTAL FREE ENERGY PREDICTED BY IDOCK:   -4.54 KCAL/MOL
REMARK 923 INTER-LIGAND FREE ENERGY PREDICTED BY IDOCK:   -4.32 KCAL/MOL
REMARK 924 INTRA-LIGAND FREE ENERGY PREDICTED BY IDOCK:   -0.22 KCAL/MOL
REMARK 927      BINDING AFFINITY PREDICTED BY RF-SCORE:    0.00 PKD
ROOT
HETATM    1  C   UNL     1     -11.727  14.979  64.178  1.00  0.00    -0.125 C  
HETATM    2  C   UNL     1     -11.811  13.818  65.137  1.00  0.00    -0.352 C  
HETATM    3  N   UNL     1     -10.647  13.066  65.167  1.00  0.00    -0.302 N  
HETATM    4  O   UNL     1     -12.831  13.631  65.789  1.00  0.00    -0.456 OA 
HETATM    5  H   UNL     1      -9.887  13.374  64.560  1.00  0.00     0.000 HD 
ENDROOT
BRANCH   3   6
HETATM    6  C   UNL     1     -10.402  11.915  65.954  1.00  0.00    -0.242 A  
HETATM    7  C   UNL     1     -11.058  11.656  67.160  1.00  0.00    -0.354 A  
HETATM    8  C   UNL     1     -10.801  10.491  67.886  1.00  0.00    -0.333 A  
HETATM    9  C   UNL     1      -9.899   9.550  67.402  1.00  0.00    -0.170 A  
HETATM   10  C   UNL     1      -9.458  10.985  65.497  1.00  0.00    -0.250 A  
HETATM   11  C   UNL     1      -9.200   9.810  66.221  1.00  0.00    -0.207 A  
BRANCH   9  12
HETATM   12  O   UNL     1      -9.641   8.303  68.026  1.00  0.00    -0.148 OA 
BRANCH  12  13
HETATM   13  C   UNL     1      -8.356   7.840  68.323  1.00  0.00    -0.125 C  
HETATM   14  O   UNL     1      -7.570   7.307  67.557  1.00  0.00    -0.104 OA 
BRANCH  13  15
HETATM   15  C   UNL     1      -8.030   8.133  69.743  1.00  0.00    -0.111 A  
HETATM   16  C   UNL     1      -6.961   8.989  70.064  1.00  0.00    -0.050 A  
HETATM   17  C   UNL     1      -6.678   9.299  71.398  1.00  0.00    -0.011 A  
HETATM   18  C   UNL     1      -7.458   8.771  72.423  1.00  0.00     0.066 A  
HETATM   19  C   UNL     1      -8.529   7.935  72.120  1.00  0.00    -0.173 A  
HETATM   20  C   UNL     1      -8.800   7.597  70.785  1.00  0.00    -0.144 A  
BRANCH  20  21
HETATM   21  O   UNL     1      -9.933   6.801  70.524  1.00  0.00    -0.183 OA 
BRANCH  21  22
HETATM   22  C   UNL     1      -9.770   5.425  70.660  1.00  0.00    -0.181 C  
HETATM   23  O   UNL     1     -10.012   4.758  71.657  1.00  0.00    -0.175 OA 
HETATM   24  C   UNL     1      -9.344   4.843  69.345  1.00  0.00    -0.186 C  
ENDBRANCH  21  22
ENDBRANCH  20  21
ENDBRANCH  13  15
ENDBRANCH  12  13
ENDBRANCH   9  12
ENDBRANCH   3   6
TORSDOF 6
ENDMDL
MODEL      289
REMARK 921   NORMALIZED FREE ENERGY PREDICTED BY IDOCK:   -2.25 KCAL/MOL
REMARK 922        TOTAL FREE ENERGY PREDICTED BY IDOCK:   -4.52 KCAL/MOL
REMARK 923 INTER-LIGAND FREE ENERGY PREDICTED BY IDOCK:   -4.65 KCAL/MOL
REMARK 924 INTRA-LIGAND FREE ENERGY PREDICTED BY IDOCK:    0.13 KCAL/MOL
REMARK 927      BINDING AFFINITY PREDICTED BY RF-SCORE:    0.00 PKD
ROOT
HETATM    1  C   UNL     1      -9.676  14.247  66.110  1.00  0.00    -0.325 C  
HETATM    2  C   UNL     1      -9.823  13.078  67.052  1.00  0.00    -0.238 C  
HETATM    3  N   UNL     1      -9.649  11.858  66.419  1.00  0.00    -0.220 N  
HETATM    4  O   UNL     1     -10.063  13.270  68.238  1.00  0.00    -0.240 OA 
HETATM    5  H   UNL     1      -9.444  11.885  65.420  1.00  0.00     0.000 HD 
ENDROOT
BRANCH   3   6
HETATM    6  C   UNL     1      -9.726  10.576  67.015  1.00  0.00    -0.177 A  
HETATM    7  C   UNL     1      -9.700   9.386  66.283  1.00  0.00    -0.330 A  
HETATM    8  C   UNL     1      -9.752   8.145  66.920  1.00  0.00    -0.291 A  
HETATM    9  C   UNL     1      -9.802   8.073  68.308  1.00  0.00    -0.170 A  
HETATM   10  C   UNL     1      -9.827  10.496  68.411  1.00  0.00    -0.171 A  
HETATM   11  C   UNL     1      -9.874   9.250  69.056  1.00  0.00    -0.168 A  
BRANCH   9  12
HETATM   12  O   UNL     1      -9.769   6.860  69.042  1.00  0.00    -0.149 OA 
BRANCH  12  13
HETATM   13  C   UNL     1      -8.589   6.259  69.486  1.00  0.00    -0.132 C  
HETATM   14  O   UNL     1      -7.464   6.429  69.044  1.00  0.00    -0.090 OA 
BRANCH  13  15
HETATM   15  C   UNL     1      -8.875   5.380  70.649  1.00  0.00    -0.145 A  
HETATM   16  C   UNL     1      -9.537   4.152  70.466  1.00  0.00    -0.261 A  
HETATM   17  C   UNL     1      -9.770   3.304  71.553  1.00  0.00    -0.233 A  
HETATM   18  C   UNL     1      -9.341   3.662  72.828  1.00  0.00    -0.145 A  
HETATM   19  C   UNL     1      -8.672   4.867  73.024  1.00  0.00    -0.113 A  
HETATM   20  C   UNL     1      -8.461   5.735  71.941  1.00  0.00    -0.127 A  
BRANCH  20  21
HETATM   21  O   UNL     1      -7.721   6.911  72.175  1.00  0.00    -0.092 OA 
BRANCH  21  22
HETATM   22  C   UNL     1      -8.432   8.108  72.144  1.00  0.00    -0.161 C  
HETATM   23  O   UNL     1      -8.077   9.152  71.612  1.00  0.00    -0.346 OA 
HETATM   24  C   UNL     1      -9.775   7.906  72.779  1.00  0.00    -0.322 C  
ENDBRANCH  21  22
ENDBRANCH  20  21
ENDBRANCH  13  15
ENDBRANCH  12  13
ENDBRANCH   9  12
ENDBRANCH   3   6
TORSDOF 6
ENDMDL
MODEL      290
REMARK 921   NORMALIZED FREE ENERGY PREDICTED BY IDOCK:   -2.24 KCAL/MOL
REMARK 922        TOTAL FREE ENERGY PREDICTED BY IDOCK:   -4.51 KCAL/MOL
REMARK 923 INTER-LIGAND FREE ENERGY PREDICTED BY IDOCK:   -3.48 KCAL/MOL
REMARK 924 INTRA-LIGAND FREE ENERGY PREDICTED BY IDOCK:   -1.02 KCAL/MOL
REMARK 927      BINDING AFFINITY PREDICTED BY RF-SCORE:    0.00 PKD
ROOT
HETATM    1  C   UNL     1      -9.037   2.307  64.522  1.00  0.00    -0.126 C  
HETATM    2  C   UNL     1      -8.650   3.413  65.470  1.00  0.00    -0.112 C  
HETATM    3  N   UNL     1      -9.587   4.433  65.512  1.00  0.00    -0.173 N  
HETATM    4  O   UNL     1      -7.604   3.341  66.106  1.00  0.00    -0.076 OA 
HETATM    5  H   UNL     1     -10.410   4.323  64.919  1.00  0.00     0.000 HD 
ENDROOT
BRANCH   3   6
HETATM    6  C   UNL     1      -9.522   5.612  66.293  1.00  0.00    -0.155 A  
HETATM    7  C   UNL     1      -8.774   6.734  65.929  1.00  0.00    -0.147 A  
HETATM    8  C   UNL     1      -8.764   7.884  66.720  1.00  0.00    -0.143 A  
HETATM    9  C   UNL     1      -9.528   7.941  67.881  1.00  0.00    -0.145 A  
HETATM   10  C   UNL     1     -10.250   5.659  67.490  1.00  0.00    -0.246 A  
HETATM   11  C   UNL     1     -10.248   6.815  68.286  1.00  0.00    -0.194 A  
BRANCH   9  12
HETATM   12  O   UNL     1      -9.647   9.093  68.698  1.00  0.00    -0.149 OA 
BRANCH  12  13
HETATM   13  C   UNL     1     -10.690  10.017  68.582  1.00  0.00    -0.226 C  
HETATM   14  O   UNL     1     -11.646  10.146  69.329  1.00  0.00    -0.169 OA 
BRANCH  13  15
HETATM   15  C   UNL     1     -10.457  10.896  67.407  1.00  0.00    -0.263 A  
HETATM   16  C   UNL     1     -11.250  10.764  66.252  1.00  0.00     0.167 A  
HETATM   17  C   UNL     1     -11.061  11.618  65.161  1.00  0.00    -0.300 A  
HETATM   18  C   UNL     1     -10.093  12.617  65.211  1.00  0.00    -0.271 A  
HETATM   19  C   UNL     1      -9.311  12.771  66.352  1.00  0.00    -0.196 A  
HETATM   20  C   UNL     1      -9.477  11.898  67.438  1.00  0.00    -0.175 A  
BRANCH  20  21
HETATM   21  O   UNL     1      -8.709  12.135  68.596  1.00  0.00    -0.111 OA 
BRANCH  21  22
HETATM   22  C   UNL     1      -7.326  12.157  68.430  1.00  0.00    -0.108 C  
HETATM   23  O   UNL     1      -6.543  12.941  68.951  1.00  0.00    -0.084 OA 
HETATM   24  C   UNL     1      -6.908  10.991  67.586  1.00  0.00    -0.081 C  
ENDBRANCH  21  22
ENDBRANCH  20  21
ENDBRANCH  13  15
ENDBRANCH  12  13
ENDBRANCH   9  12
ENDBRANCH   3   6
TORSDOF 6
ENDMDL
MODEL      291
REMARK 921   NORMALIZED FREE ENERGY PREDICTED BY IDOCK:   -2.22 KCAL/MOL
REMARK 922        TOTAL FREE ENERGY PREDICTED BY IDOCK:   -4.48 KCAL/MOL
REMARK 923 INTER-LIGAND FREE ENERGY PREDICTED BY IDOCK:   -4.21 KCAL/MOL
REMARK 924 INTRA-LIGAND FREE ENERGY PREDICTED BY IDOCK:   -0.27 KCAL/MOL
REMARK 927      BINDING AFFINITY PREDICTED BY RF-SCORE:    0.00 PKD
ROOT
HETATM    1  C   UNL     1      -7.816  10.235  62.545  1.00  0.00    -0.158 C  
HETATM    2  C   UNL     1      -8.612   9.899  63.781  1.00  0.00    -0.199 C  
HETATM    3  N   UNL     1      -7.906   9.109  64.673  1.00  0.00    -0.113 N  
HETATM    4  O   UNL     1      -9.754  10.324  63.911  1.00  0.00    -0.307 OA 
HETATM    5  H   UNL     1      -6.955   8.854  64.405  1.00  0.00     0.000 HD 
ENDROOT
BRANCH   3   6
HETATM    6  C   UNL     1      -8.366   8.619  65.919  1.00  0.00    -0.136 A  
HETATM    7  C   UNL     1      -7.529   8.027  66.868  1.00  0.00    -0.091 A  
HETATM    8  C   UNL     1      -8.027   7.584  68.094  1.00  0.00    -0.123 A  
HETATM    9  C   UNL     1      -9.372   7.749  68.404  1.00  0.00    -0.143 A  
HETATM   10  C   UNL     1      -9.730   8.737  66.218  1.00  0.00    -0.342 A  
HETATM   11  C   UNL     1     -10.235   8.297  67.452  1.00  0.00    -0.326 A  
BRANCH   9  12
HETATM   12  O   UNL     1      -9.947   7.410  69.655  1.00  0.00    -0.177 OA 
BRANCH  12  13
HETATM   13  C   UNL     1     -10.896   6.397  69.818  1.00  0.00    -0.314 C  
HETATM   14  O   UNL     1     -12.073   6.431  69.497  1.00  0.00     0.067 OA 
BRANCH  13  15
HETATM   15  C   UNL     1     -10.257   5.197  70.417  1.00  0.00    -0.334 A  
HETATM   16  C   UNL     1      -9.758   4.171  69.593  1.00  0.00    -0.269 A  
HETATM   17  C   UNL     1      -9.118   3.061  70.151  1.00  0.00    -0.189 A  
HETATM   18  C   UNL     1      -8.958   2.963  71.531  1.00  0.00    -0.148 A  
HETATM   19  C   UNL     1      -9.433   3.976  72.359  1.00  0.00    -0.182 A  
HETATM   20  C   UNL     1     -10.101   5.079  71.805  1.00  0.00    -0.200 A  
BRANCH  20  21
HETATM   21  O   UNL     1     -10.505   6.110  72.677  1.00  0.00    -0.194 OA 
BRANCH  21  22
HETATM   22  C   UNL     1      -9.535   7.048  73.021  1.00  0.00    -0.150 C  
HETATM   23  O   UNL     1      -8.347   6.828  73.219  1.00  0.00    -0.117 OA 
HETATM   24  C   UNL     1     -10.143   8.419  73.010  1.00  0.00    -0.062 C  
ENDBRANCH  21  22
ENDBRANCH  20  21
ENDBRANCH  13  15
ENDBRANCH  12  13
ENDBRANCH   9  12
ENDBRANCH   3   6
TORSDOF 6
ENDMDL
MODEL      292
REMARK 921   NORMALIZED FREE ENERGY PREDICTED BY IDOCK:   -2.21 KCAL/MOL
REMARK 922        TOTAL FREE ENERGY PREDICTED BY IDOCK:   -4.46 KCAL/MOL
REMARK 923 INTER-LIGAND FREE ENERGY PREDICTED BY IDOCK:   -4.83 KCAL/MOL
REMARK 924 INTRA-LIGAND FREE ENERGY PREDICTED BY IDOCK:    0.37 KCAL/MOL
REMARK 927      BINDING AFFINITY PREDICTED BY RF-SCORE:    0.00 PKD
ROOT
HETATM    1  C   UNL     1      -9.342   4.529  67.019  1.00  0.00    -0.160 C  
HETATM    2  C   UNL     1      -9.908   5.832  67.526  1.00  0.00    -0.130 C  
HETATM    3  N   UNL     1      -9.477   6.924  66.790  1.00  0.00    -0.159 N  
HETATM    4  O   UNL     1     -10.667   5.840  68.489  1.00  0.00    -0.236 OA 
HETATM    5  H   UNL     1      -8.849   6.730  66.010  1.00  0.00     0.000 HD 
ENDROOT
BRANCH   3   6
HETATM    6  C   UNL     1      -9.819   8.280  67.007  1.00  0.00    -0.232 A  
HETATM    7  C   UNL     1     -10.276   8.770  68.232  1.00  0.00    -0.240 A  
HETATM    8  C   UNL     1     -10.575  10.123  68.403  1.00  0.00    -0.249 A  
HETATM    9  C   UNL     1     -10.394  11.017  67.354  1.00  0.00    -0.207 A  
HETATM   10  C   UNL     1      -9.687   9.179  65.939  1.00  0.00    -0.336 A  
HETATM   11  C   UNL     1      -9.981  10.541  66.108  1.00  0.00    -0.286 A  
BRANCH   9  12
HETATM   12  O   UNL     1     -10.588  12.418  67.461  1.00  0.00    -0.214 OA 
BRANCH  12  13
HETATM   13  C   UNL     1     -10.899  13.064  68.660  1.00  0.00    -0.259 C  
HETATM   14  O   UNL     1     -11.328  12.553  69.683  1.00  0.00    -0.211 OA 
BRANCH  13  15
HETATM   15  C   UNL     1     -10.586  14.512  68.550  1.00  0.00    -0.252 A  
HETATM   16  C   UNL     1     -11.435  15.469  69.136  1.00  0.00    -0.356 A  
HETATM   17  C   UNL     1     -11.121  16.830  69.070  1.00  0.00    -0.171 A  
HETATM   18  C   UNL     1      -9.958  17.252  68.432  1.00  0.00    -0.322 A  
HETATM   19  C   UNL     1      -9.100  16.317  67.861  1.00  0.00    -0.196 A  
HETATM   20  C   UNL     1      -9.425  14.952  67.899  1.00  0.00    -0.200 A  
BRANCH  20  21
HETATM   21  O   UNL     1      -8.494  14.039  67.366  1.00  0.00    -0.177 OA 
BRANCH  21  22
HETATM   22  C   UNL     1      -7.220  14.051  67.928  1.00  0.00    -0.159 C  
HETATM   23  O   UNL     1      -6.195  14.462  67.400  1.00  0.00    -0.334 OA 
HETATM   24  C   UNL     1      -7.298  13.575  69.348  1.00  0.00     0.255 C  
ENDBRANCH  21  22
ENDBRANCH  20  21
ENDBRANCH  13  15
ENDBRANCH  12  13
ENDBRANCH   9  12
ENDBRANCH   3   6
TORSDOF 6
ENDMDL
MODEL      293
REMARK 921   NORMALIZED FREE ENERGY PREDICTED BY IDOCK:   -2.16 KCAL/MOL
REMARK 922        TOTAL FREE ENERGY PREDICTED BY IDOCK:   -4.39 KCAL/MOL
REMARK 923 INTER-LIGAND FREE ENERGY PREDICTED BY IDOCK:   -3.35 KCAL/MOL
REMARK 924 INTRA-LIGAND FREE ENERGY PREDICTED BY IDOCK:   -1.04 KCAL/MOL
REMARK 927      BINDING AFFINITY PREDICTED BY RF-SCORE:    0.00 PKD
ROOT
HETATM    1  C   UNL     1      -8.527  14.684  67.667  1.00  0.00    -0.187 C  
HETATM    2  C   UNL     1      -7.993  13.278  67.779  1.00  0.00    -0.166 C  
HETATM    3  N   UNL     1      -8.729  12.496  68.654  1.00  0.00    -0.373 N  
HETATM    4  O   UNL     1      -7.012  12.939  67.127  1.00  0.00    -0.103 OA 
HETATM    5  H   UNL     1      -9.526  12.943  69.108  1.00  0.00     0.000 HD 
ENDROOT
BRANCH   3   6
HETATM    6  C   UNL     1      -8.490  11.141  68.985  1.00  0.00    -0.037 A  
HETATM    7  C   UNL     1      -9.374  10.106  68.669  1.00  0.00    -0.161 A  
HETATM    8  C   UNL     1      -9.080   8.780  68.993  1.00  0.00    -0.141 A  
HETATM    9  C   UNL     1      -7.878   8.463  69.617  1.00  0.00    -0.100 A  
HETATM   10  C   UNL     1      -7.304  10.818  69.658  1.00  0.00    -0.107 A  
HETATM   11  C   UNL     1      -7.001   9.486  69.982  1.00  0.00    -0.081 A  
BRANCH   9  12
HETATM   12  O   UNL     1      -7.458   7.140  69.905  1.00  0.00    -0.082 OA 
BRANCH  12  13
HETATM   13  C   UNL     1      -7.211   6.672  71.199  1.00  0.00    -0.078 C  
HETATM   14  O   UNL     1      -6.135   6.341  71.670  1.00  0.00    -0.038 OA 
BRANCH  13  15
HETATM   15  C   UNL     1      -8.472   6.671  71.985  1.00  0.00    -0.116 A  
HETATM   16  C   UNL     1      -8.831   7.794  72.754  1.00  0.00    -0.227 A  
HETATM   17  C   UNL     1     -10.037   7.812  73.461  1.00  0.00    -0.257 A  
HETATM   18  C   UNL     1     -10.902   6.723  73.403  1.00  0.00    -0.282 A  
HETATM   19  C   UNL     1     -10.568   5.611  72.634  1.00  0.00    -0.266 A  
HETATM   20  C   UNL     1      -9.346   5.576  71.946  1.00  0.00    -0.144 A  
BRANCH  20  21
HETATM   21  O   UNL     1      -9.083   4.458  71.129  1.00  0.00    -0.116 OA 
BRANCH  21  22
HETATM   22  C   UNL     1      -8.519   3.350  71.756  1.00  0.00    -0.069 C  
HETATM   23  O   UNL     1      -7.708   3.366  72.672  1.00  0.00    -0.063 OA 
HETATM   24  C   UNL     1      -9.139   2.099  71.208  1.00  0.00    -0.158 C  
ENDBRANCH  21  22
ENDBRANCH  20  21
ENDBRANCH  13  15
ENDBRANCH  12  13
ENDBRANCH   9  12
ENDBRANCH   3   6
TORSDOF 6
ENDMDL
MODEL      294
REMARK 921   NORMALIZED FREE ENERGY PREDICTED BY IDOCK:   -2.13 KCAL/MOL
REMARK 922        TOTAL FREE ENERGY PREDICTED BY IDOCK:   -4.36 KCAL/MOL
REMARK 923 INTER-LIGAND FREE ENERGY PREDICTED BY IDOCK:   -3.26 KCAL/MOL
REMARK 924 INTRA-LIGAND FREE ENERGY PREDICTED BY IDOCK:   -1.10 KCAL/MOL
REMARK 927      BINDING AFFINITY PREDICTED BY RF-SCORE:    0.00 PKD
ROOT
HETATM    1  C   UNL     1      -8.417   7.866  73.981  1.00  0.00    -0.321 C  
HETATM    2  C   UNL     1      -8.929   6.712  73.157  1.00  0.00    -0.127 C  
HETATM    3  N   UNL     1      -8.275   6.592  71.941  1.00  0.00    -0.103 N  
HETATM    4  O   UNL     1      -9.826   5.997  73.589  1.00  0.00    -0.159 OA 
HETATM    5  H   UNL     1      -7.541   7.274  71.747  1.00  0.00     0.000 HD 
ENDROOT
BRANCH   3   6
HETATM    6  C   UNL     1      -8.519   5.622  70.940  1.00  0.00    -0.125 A  
HETATM    7  C   UNL     1      -9.618   5.666  70.080  1.00  0.00    -0.214 A  
HETATM    8  C   UNL     1      -9.800   4.699  69.089  1.00  0.00    -0.242 A  
HETATM    9  C   UNL     1      -8.866   3.682  68.925  1.00  0.00    -0.108 A  
HETATM   10  C   UNL     1      -7.608   4.566  70.800  1.00  0.00    -0.053 A  
HETATM   11  C   UNL     1      -7.783   3.594  69.802  1.00  0.00    -0.051 A  
BRANCH   9  12
HETATM   12  O   UNL     1      -8.923   2.710  67.894  1.00  0.00    -0.125 OA 
BRANCH  12  13
HETATM   13  C   UNL     1      -8.131   2.759  66.744  1.00  0.00    -0.081 C  
HETATM   14  O   UNL     1      -6.911   2.753  66.687  1.00  0.00    -0.047 OA 
BRANCH  13  15
HETATM   15  C   UNL     1      -8.995   2.772  65.535  1.00  0.00    -0.135 A  
HETATM   16  C   UNL     1      -9.263   1.579  64.839  1.00  0.00    -0.111 A  
HETATM   17  C   UNL     1     -10.109   1.581  63.727  1.00  0.00    -0.112 A  
HETATM   18  C   UNL     1     -10.706   2.765  63.301  1.00  0.00    -0.231 A  
HETATM   19  C   UNL     1     -10.464   3.951  63.988  1.00  0.00    -0.237 A  
HETATM   20  C   UNL     1      -9.592   3.959  65.088  1.00  0.00    -0.181 A  
BRANCH  20  21
HETATM   21  O   UNL     1      -9.430   5.170  65.791  1.00  0.00    -0.159 OA 
BRANCH  21  22
HETATM   22  C   UNL     1      -8.273   5.895  65.520  1.00  0.00    -0.137 C  
HETATM   23  O   UNL     1      -7.719   6.003  64.434  1.00  0.00    -0.090 OA 
HETATM   24  C   UNL     1      -7.848   6.632  66.754  1.00  0.00    -0.107 C  
ENDBRANCH  21  22
ENDBRANCH  20  21
ENDBRANCH  13  15
ENDBRANCH  12  13
ENDBRANCH   9  12
ENDBRANCH   3   6
TORSDOF 6
ENDMDL
MODEL      295
REMARK 921   NORMALIZED FREE ENERGY PREDICTED BY IDOCK:   -2.11 KCAL/MOL
REMARK 922        TOTAL FREE ENERGY PREDICTED BY IDOCK:   -4.33 KCAL/MOL
REMARK 923 INTER-LIGAND FREE ENERGY PREDICTED BY IDOCK:   -5.03 KCAL/MOL
REMARK 924 INTRA-LIGAND FREE ENERGY PREDICTED BY IDOCK:    0.70 KCAL/MOL
REMARK 927      BINDING AFFINITY PREDICTED BY RF-SCORE:    0.00 PKD
ROOT
HETATM    1  C   UNL     1      -6.447   6.360  63.358  1.00  0.00    -0.033 C  
HETATM    2  C   UNL     1      -7.558   7.337  63.653  1.00  0.00    -0.114 C  
HETATM    3  N   UNL     1      -7.668   7.628  65.003  1.00  0.00    -0.101 N  
HETATM    4  O   UNL     1      -8.240   7.786  62.739  1.00  0.00    -0.140 OA 
HETATM    5  H   UNL     1      -7.006   7.166  65.626  1.00  0.00     0.000 HD 
ENDROOT
BRANCH   3   6
HETATM    6  C   UNL     1      -8.606   8.499  65.608  1.00  0.00    -0.177 A  
HETATM    7  C   UNL     1      -8.679   9.865  65.324  1.00  0.00    -0.181 A  
HETATM    8  C   UNL     1      -9.640  10.678  65.928  1.00  0.00    -0.253 A  
HETATM    9  C   UNL     1     -10.566  10.130  66.809  1.00  0.00    -0.169 A  
HETATM   10  C   UNL     1      -9.511   7.964  66.535  1.00  0.00    -0.277 A  
HETATM   11  C   UNL     1     -10.483   8.776  67.140  1.00  0.00    -0.354 A  
BRANCH   9  12
HETATM   12  O   UNL     1     -11.628  10.860  67.400  1.00  0.00    -0.509 OA 
BRANCH  12  13
HETATM   13  C   UNL     1     -11.435  11.942  68.263  1.00  0.00    -0.311 C  
HETATM   14  O   UNL     1     -12.238  12.402  69.059  1.00  0.00    -0.190 OA 
BRANCH  13  15
HETATM   15  C   UNL     1     -10.050  12.460  68.122  1.00  0.00    -0.224 A  
HETATM   16  C   UNL     1      -8.967  11.758  68.684  1.00  0.00    -0.069 A  
HETATM   17  C   UNL     1      -7.659  12.221  68.517  1.00  0.00    -0.118 A  
HETATM   18  C   UNL     1      -7.411  13.378  67.783  1.00  0.00    -0.160 A  
HETATM   19  C   UNL     1      -8.470  14.075  67.208  1.00  0.00    -0.220 A  
HETATM   20  C   UNL     1      -9.787  13.631  67.397  1.00  0.00    -0.234 A  
BRANCH  20  21
HETATM   21  O   UNL     1     -10.819  14.332  66.741  1.00  0.00    -0.292 OA 
BRANCH  21  22
HETATM   22  C   UNL     1     -10.461  15.031  65.591  1.00  0.00    -0.350 C  
HETATM   23  O   UNL     1     -10.215  14.549  64.493  1.00  0.00    -0.221 OA 
HETATM   24  C   UNL     1     -10.525  16.504  65.865  1.00  0.00    -0.335 C  
ENDBRANCH  21  22
ENDBRANCH  20  21
ENDBRANCH  13  15
ENDBRANCH  12  13
ENDBRANCH   9  12
ENDBRANCH   3   6
TORSDOF 6
ENDMDL
MODEL      296
REMARK 921   NORMALIZED FREE ENERGY PREDICTED BY IDOCK:   -2.05 KCAL/MOL
REMARK 922        TOTAL FREE ENERGY PREDICTED BY IDOCK:   -4.24 KCAL/MOL
REMARK 923 INTER-LIGAND FREE ENERGY PREDICTED BY IDOCK:   -3.96 KCAL/MOL
REMARK 924 INTRA-LIGAND FREE ENERGY PREDICTED BY IDOCK:   -0.28 KCAL/MOL
REMARK 927      BINDING AFFINITY PREDICTED BY RF-SCORE:    0.00 PKD
ROOT
HETATM    1  C   UNL     1      -9.597  10.735  64.355  1.00  0.00    -0.330 C  
HETATM    2  C   UNL     1      -9.999   9.885  65.534  1.00  0.00    -0.292 C  
HETATM    3  N   UNL     1      -9.351   8.660  65.556  1.00  0.00    -0.436 N  
HETATM    4  O   UNL     1     -10.813  10.308  66.348  1.00  0.00    -0.095 OA 
HETATM    5  H   UNL     1      -8.694   8.478  64.798  1.00  0.00     0.000 HD 
ENDROOT
BRANCH   3   6
HETATM    6  C   UNL     1      -9.507   7.637  66.520  1.00  0.00    -0.190 A  
HETATM    7  C   UNL     1      -8.564   6.628  66.729  1.00  0.00    -0.118 A  
HETATM    8  C   UNL     1      -8.752   5.655  67.712  1.00  0.00    -0.107 A  
HETATM    9  C   UNL     1      -9.879   5.690  68.525  1.00  0.00    -0.143 A  
HETATM   10  C   UNL     1     -10.665   7.637  67.311  1.00  0.00    -0.344 A  
HETATM   11  C   UNL     1     -10.856   6.664  68.305  1.00  0.00    -0.322 A  
BRANCH   9  12
HETATM   12  O   UNL     1     -10.110   4.798  69.603  1.00  0.00    -0.229 OA 
BRANCH  12  13
HETATM   13  C   UNL     1     -10.213   5.208  70.935  1.00  0.00    -0.229 C  
HETATM   14  O   UNL     1     -10.908   4.712  71.807  1.00  0.00     0.001 OA 
BRANCH  13  15
HETATM   15  C   UNL     1      -9.293   6.348  71.186  1.00  0.00    -0.166 A  
HETATM   16  C   UNL     1      -9.775   7.669  71.158  1.00  0.00    -0.172 A  
HETATM   17  C   UNL     1      -8.921   8.741  71.435  1.00  0.00    -0.307 A  
HETATM   18  C   UNL     1      -7.586   8.511  71.753  1.00  0.00    -0.147 A  
HETATM   19  C   UNL     1      -7.097   7.208  71.800  1.00  0.00    -0.068 A  
HETATM   20  C   UNL     1      -7.943   6.131  71.494  1.00  0.00    -0.110 A  
BRANCH  20  21
HETATM   21  O   UNL     1      -7.420   4.828  71.619  1.00  0.00    -0.067 OA 
BRANCH  21  22
HETATM   22  C   UNL     1      -6.745   4.321  70.512  1.00  0.00    -0.032 C  
HETATM   23  O   UNL     1      -5.827   4.861  69.909  1.00  0.00    -0.015 OA 
HETATM   24  C   UNL     1      -7.241   2.936  70.219  1.00  0.00    -0.037 C  
ENDBRANCH  21  22
ENDBRANCH  20  21
ENDBRANCH  13  15
ENDBRANCH  12  13
ENDBRANCH   9  12
ENDBRANCH   3   6
TORSDOF 6
ENDMDL
MODEL      297
REMARK 921   NORMALIZED FREE ENERGY PREDICTED BY IDOCK:   -2.04 KCAL/MOL
REMARK 922        TOTAL FREE ENERGY PREDICTED BY IDOCK:   -4.23 KCAL/MOL
REMARK 923 INTER-LIGAND FREE ENERGY PREDICTED BY IDOCK:   -4.82 KCAL/MOL
REMARK 924 INTRA-LIGAND FREE ENERGY PREDICTED BY IDOCK:    0.58 KCAL/MOL
REMARK 927      BINDING AFFINITY PREDICTED BY RF-SCORE:    0.00 PKD
ROOT
HETATM    1  C   UNL     1     -11.881  17.552  74.090  1.00  0.00     0.314 C  
HETATM    2  C   UNL     1     -12.331  16.399  73.229  1.00  0.00    -0.452 C  
HETATM    3  N   UNL     1     -11.597  16.288  72.059  1.00  0.00    -0.421 N  
HETATM    4  O   UNL     1     -13.251  15.678  73.598  1.00  0.00    -0.485 OA 
HETATM    5  H   UNL     1     -10.856  16.975  71.917  1.00  0.00     0.000 HD 
ENDROOT
BRANCH   3   6
HETATM    6  C   UNL     1     -11.768  15.321  71.040  1.00  0.00    -0.348 A  
HETATM    7  C   UNL     1     -12.280  15.621  69.775  1.00  0.00    -0.293 A  
HETATM    8  C   UNL     1     -12.405  14.635  68.794  1.00  0.00    -0.041 A  
HETATM    9  C   UNL     1     -11.992  13.333  69.054  1.00  0.00    -0.293 A  
HETATM   10  C   UNL     1     -11.401  13.996  71.311  1.00  0.00     0.890 A  
HETATM   11  C   UNL     1     -11.519  13.002  70.326  1.00  0.00     0.104 A  
BRANCH   9  12
HETATM   12  O   UNL     1     -12.000  12.290  68.093  1.00  0.00    -0.386 OA 
BRANCH  12  13
HETATM   13  C   UNL     1     -11.079  12.199  67.046  1.00  0.00    -0.294 C  
HETATM   14  O   UNL     1     -11.231  11.626  65.979  1.00  0.00    -0.300 OA 
BRANCH  13  15
HETATM   15  C   UNL     1      -9.850  12.961  67.386  1.00  0.00    -0.207 A  
HETATM   16  C   UNL     1      -8.857  12.383  68.199  1.00  0.00    -0.191 A  
HETATM   17  C   UNL     1      -7.681  13.082  68.486  1.00  0.00    -0.111 A  
HETATM   18  C   UNL     1      -7.474  14.355  67.961  1.00  0.00    -0.144 A  
HETATM   19  C   UNL     1      -8.440  14.934  67.142  1.00  0.00    -0.244 A  
HETATM   20  C   UNL     1      -9.635  14.249  66.875  1.00  0.00    -0.262 A  
BRANCH  20  21
HETATM   21  O   UNL     1     -10.552  14.848  65.989  1.00  0.00    -0.292 OA 
BRANCH  21  22
HETATM   22  C   UNL     1     -10.503  16.236  65.887  1.00  0.00    -0.345 C  
HETATM   23  O   UNL     1     -10.775  16.903  64.898  1.00  0.00    -0.725 OA 
HETATM   24  C   UNL     1     -10.163  16.820  67.226  1.00  0.00    -0.292 C  
ENDBRANCH  21  22
ENDBRANCH  20  21
ENDBRANCH  13  15
ENDBRANCH  12  13
ENDBRANCH   9  12
ENDBRANCH   3   6
TORSDOF 6
ENDMDL
MODEL      298
REMARK 921   NORMALIZED FREE ENERGY PREDICTED BY IDOCK:   -2.04 KCAL/MOL
REMARK 922        TOTAL FREE ENERGY PREDICTED BY IDOCK:   -4.23 KCAL/MOL
REMARK 923 INTER-LIGAND FREE ENERGY PREDICTED BY IDOCK:   -3.81 KCAL/MOL
REMARK 924 INTRA-LIGAND FREE ENERGY PREDICTED BY IDOCK:   -0.42 KCAL/MOL
REMARK 927      BINDING AFFINITY PREDICTED BY RF-SCORE:    0.00 PKD
ROOT
HETATM    1  C   UNL     1     -13.182  10.586  71.324  1.00  0.00    -0.399 C  
HETATM    2  C   UNL     1     -11.939   9.907  70.809  1.00  0.00    -0.323 C  
HETATM    3  N   UNL     1     -12.066   8.528  70.757  1.00  0.00    -0.483 N  
HETATM    4  O   UNL     1     -10.963  10.574  70.484  1.00  0.00    -0.271 OA 
HETATM    5  H   UNL     1     -12.959   8.140  71.060  1.00  0.00     0.000 HD 
ENDROOT
BRANCH   3   6
HETATM    6  C   UNL     1     -11.086   7.602  70.327  1.00  0.00    -0.244 A  
HETATM    7  C   UNL     1     -11.384   6.297  69.930  1.00  0.00    -0.504 A  
HETATM    8  C   UNL     1     -10.383   5.429  69.488  1.00  0.00    -0.350 A  
HETATM    9  C   UNL     1      -9.065   5.864  69.410  1.00  0.00    -0.127 A  
HETATM   10  C   UNL     1      -9.747   8.017  70.293  1.00  0.00    -0.175 A  
HETATM   11  C   UNL     1      -8.738   7.150  69.844  1.00  0.00    -0.142 A  
BRANCH   9  12
HETATM   12  O   UNL     1      -8.000   5.084  68.893  1.00  0.00    -0.080 OA 
BRANCH  12  13
HETATM   13  C   UNL     1      -6.972   4.561  69.682  1.00  0.00    -0.049 C  
HETATM   14  O   UNL     1      -5.797   4.888  69.673  1.00  0.00    -0.015 OA 
BRANCH  13  15
HETATM   15  C   UNL     1      -7.520   3.540  70.613  1.00  0.00    -0.040 A  
HETATM   16  C   UNL     1      -8.333   2.499  70.129  1.00  0.00    -0.074 A  
HETATM   17  C   UNL     1      -8.814   1.514  70.996  1.00  0.00    -0.105 A  
HETATM   18  C   UNL     1      -8.486   1.547  72.348  1.00  0.00    -0.053 A  
HETATM   19  C   UNL     1      -7.669   2.562  72.841  1.00  0.00    -0.046 A  
HETATM   20  C   UNL     1      -7.207   3.569  71.980  1.00  0.00    -0.050 A  
BRANCH  20  21
HETATM   21  O   UNL     1      -6.331   4.537  72.510  1.00  0.00    -0.020 OA 
BRANCH  21  22
HETATM   22  C   UNL     1      -6.920   5.617  73.162  1.00  0.00    -0.081 C  
HETATM   23  O   UNL     1      -7.942   6.201  72.825  1.00  0.00    -0.106 OA 
HETATM   24  C   UNL     1      -6.167   5.908  74.425  1.00  0.00    -0.069 C  
ENDBRANCH  21  22
ENDBRANCH  20  21
ENDBRANCH  13  15
ENDBRANCH  12  13
ENDBRANCH   9  12
ENDBRANCH   3   6
TORSDOF 6
ENDMDL
MODEL      299
REMARK 921   NORMALIZED FREE ENERGY PREDICTED BY IDOCK:   -2.01 KCAL/MOL
REMARK 922        TOTAL FREE ENERGY PREDICTED BY IDOCK:   -4.20 KCAL/MOL
REMARK 923 INTER-LIGAND FREE ENERGY PREDICTED BY IDOCK:   -5.49 KCAL/MOL
REMARK 924 INTRA-LIGAND FREE ENERGY PREDICTED BY IDOCK:    1.29 KCAL/MOL
REMARK 927      BINDING AFFINITY PREDICTED BY RF-SCORE:    0.00 PKD
ROOT
HETATM    1  C   UNL     1      -8.246   9.681  62.330  1.00  0.00    -0.148 C  
HETATM    2  C   UNL     1      -9.313  10.336  63.172  1.00  0.00    -0.312 C  
HETATM    3  N   UNL     1      -9.184  10.042  64.520  1.00  0.00    -0.243 N  
HETATM    4  O   UNL     1     -10.163  11.045  62.646  1.00  0.00    -0.095 OA 
HETATM    5  H   UNL     1      -8.406   9.438  64.784  1.00  0.00     0.000 HD 
ENDROOT
BRANCH   3   6
HETATM    6  C   UNL     1     -10.021  10.493  65.569  1.00  0.00    -0.279 A  
HETATM    7  C   UNL     1     -10.866  11.600  65.456  1.00  0.00    -0.334 A  
HETATM    8  C   UNL     1     -11.693  11.988  66.511  1.00  0.00    -0.330 A  
HETATM    9  C   UNL     1     -11.708  11.257  67.694  1.00  0.00    -0.134 A  
HETATM   10  C   UNL     1     -10.005   9.791  66.782  1.00  0.00    -0.278 A  
HETATM   11  C   UNL     1     -10.839  10.175  67.844  1.00  0.00    -0.336 A  
BRANCH   9  12
HETATM   12  O   UNL     1     -12.576  11.526  68.782  1.00  0.00    -0.183 OA 
BRANCH  12  13
HETATM   13  C   UNL     1     -12.141  12.040  70.007  1.00  0.00    -0.280 C  
HETATM   14  O   UNL     1     -12.070  11.446  71.072  1.00  0.00    -0.318 OA 
BRANCH  13  15
HETATM   15  C   UNL     1     -11.709  13.451  69.838  1.00  0.00    -0.337 A  
HETATM   16  C   UNL     1     -12.504  14.501  70.332  1.00  0.00    -0.407 A  
HETATM   17  C   UNL     1     -12.081  15.828  70.212  1.00  0.00    -0.371 A  
HETATM   18  C   UNL     1     -10.860  16.124  69.611  1.00  0.00    -0.338 A  
HETATM   19  C   UNL     1     -10.055  15.095  69.131  1.00  0.00    -0.245 A  
HETATM   20  C   UNL     1     -10.489  13.764  69.223  1.00  0.00     0.067 A  
BRANCH  20  21
HETATM   21  O   UNL     1      -9.611  12.754  68.783  1.00  0.00    -0.065 OA 
BRANCH  21  22
HETATM   22  C   UNL     1      -8.488  13.172  68.074  1.00  0.00    -0.181 C  
HETATM   23  O   UNL     1      -7.332  12.814  68.262  1.00  0.00    -0.099 OA 
HETATM   24  C   UNL     1      -8.915  14.066  66.948  1.00  0.00    -0.243 C  
ENDBRANCH  21  22
ENDBRANCH  20  21
ENDBRANCH  13  15
ENDBRANCH  12  13
ENDBRANCH   9  12
ENDBRANCH   3   6
TORSDOF 6
ENDMDL
MODEL      300
REMARK 921   NORMALIZED FREE ENERGY PREDICTED BY IDOCK:   -1.92 KCAL/MOL
REMARK 922        TOTAL FREE ENERGY PREDICTED BY IDOCK:   -4.07 KCAL/MOL
REMARK 923 INTER-LIGAND FREE ENERGY PREDICTED BY IDOCK:   -3.78 KCAL/MOL
REMARK 924 INTRA-LIGAND FREE ENERGY PREDICTED BY IDOCK:   -0.29 KCAL/MOL
REMARK 927      BINDING AFFINITY PREDICTED BY RF-SCORE:    0.00 PKD
ROOT
HETATM    1  C   UNL     1     -10.983  11.469  63.729  1.00  0.00    -0.485 C  
HETATM    2  C   UNL     1     -10.414  11.169  65.093  1.00  0.00    -0.277 C  
HETATM    3  N   UNL     1      -9.438  10.186  65.061  1.00  0.00    -0.248 N  
HETATM    4  O   UNL     1     -10.820  11.778  66.077  1.00  0.00    -0.277 OA 
HETATM    5  H   UNL     1      -9.218   9.790  64.146  1.00  0.00     0.000 HD 
ENDROOT
BRANCH   3   6
HETATM    6  C   UNL     1      -8.714   9.673  66.163  1.00  0.00    -0.136 A  
HETATM    7  C   UNL     1      -8.758  10.238  67.440  1.00  0.00    -0.128 A  
HETATM    8  C   UNL     1      -8.046   9.679  68.503  1.00  0.00    -0.104 A  
HETATM    9  C   UNL     1      -7.297   8.523  68.312  1.00  0.00    -0.094 A  
HETATM   10  C   UNL     1      -7.917   8.537  65.967  1.00  0.00    -0.107 A  
HETATM   11  C   UNL     1      -7.204   7.968  67.034  1.00  0.00    -0.087 A  
BRANCH   9  12
HETATM   12  O   UNL     1      -6.615   7.838  69.348  1.00  0.00    -0.038 OA 
BRANCH  12  13
HETATM   13  C   UNL     1      -6.847   6.499  69.671  1.00  0.00    -0.065 C  
HETATM   14  O   UNL     1      -6.011   5.630  69.861  1.00  0.00    -0.022 OA 
BRANCH  13  15
HETATM   15  C   UNL     1      -8.307   6.258  69.809  1.00  0.00    -0.125 A  
HETATM   16  C   UNL     1      -9.050   6.938  70.791  1.00  0.00    -0.154 A  
HETATM   17  C   UNL     1     -10.431   6.745  70.895  1.00  0.00    -0.239 A  
HETATM   18  C   UNL     1     -11.088   5.885  70.020  1.00  0.00    -0.411 A  
HETATM   19  C   UNL     1     -10.369   5.216  69.032  1.00  0.00    -0.205 A  
HETATM   20  C   UNL     1      -8.979   5.384  68.942  1.00  0.00    -0.117 A  
BRANCH  20  21
HETATM   21  O   UNL     1      -8.305   4.738  67.887  1.00  0.00    -0.102 OA 
BRANCH  21  22
HETATM   22  C   UNL     1      -8.027   3.385  68.063  1.00  0.00    -0.074 C  
HETATM   23  O   UNL     1      -6.971   2.903  68.450  1.00  0.00    -0.047 OA 
HETATM   24  C   UNL     1      -9.269   2.585  67.805  1.00  0.00    -0.240 C  
ENDBRANCH  21  22
ENDBRANCH  20  21
ENDBRANCH  13  15
ENDBRANCH  12  13
ENDBRANCH   9  12
ENDBRANCH   3   6
TORSDOF 6
ENDMDL
MODEL      301
REMARK 921   NORMALIZED FREE ENERGY PREDICTED BY IDOCK:   -1.91 KCAL/MOL
REMARK 922        TOTAL FREE ENERGY PREDICTED BY IDOCK:   -4.05 KCAL/MOL
REMARK 923 INTER-LIGAND FREE ENERGY PREDICTED BY IDOCK:   -4.24 KCAL/MOL
REMARK 924 INTRA-LIGAND FREE ENERGY PREDICTED BY IDOCK:    0.18 KCAL/MOL
REMARK 927      BINDING AFFINITY PREDICTED BY RF-SCORE:    0.00 PKD
ROOT
HETATM    1  C   UNL     1     -12.018  14.638  64.151  1.00  0.00    -0.316 C  
HETATM    2  C   UNL     1     -11.074  13.901  65.066  1.00  0.00    -0.353 C  
HETATM    3  N   UNL     1     -10.902  12.575  64.701  1.00  0.00    -0.294 N  
HETATM    4  O   UNL     1     -10.547  14.484  66.007  1.00  0.00    -0.290 OA 
HETATM    5  H   UNL     1     -11.415  12.257  63.879  1.00  0.00     0.000 HD 
ENDROOT
BRANCH   3   6
HETATM    6  C   UNL     1     -10.089  11.616  65.351  1.00  0.00    -0.259 A  
HETATM    7  C   UNL     1      -9.873  10.329  64.853  1.00  0.00    -0.404 A  
HETATM    8  C   UNL     1      -9.040   9.427  65.517  1.00  0.00    -0.270 A  
HETATM    9  C   UNL     1      -8.385   9.809  66.683  1.00  0.00    -0.124 A  
HETATM   10  C   UNL     1      -9.465  11.976  66.553  1.00  0.00    -0.234 A  
HETATM   11  C   UNL     1      -8.622  11.075  67.222  1.00  0.00    -0.130 A  
BRANCH   9  12
HETATM   12  O   UNL     1      -7.456   8.992  67.376  1.00  0.00    -0.084 OA 
BRANCH  12  13
HETATM   13  C   UNL     1      -7.448   7.597  67.300  1.00  0.00    -0.100 C  
HETATM   14  O   UNL     1      -7.655   6.912  66.311  1.00  0.00    -0.085 OA 
BRANCH  13  15
HETATM   15  C   UNL     1      -7.092   7.021  68.622  1.00  0.00    -0.092 A  
HETATM   16  C   UNL     1      -5.753   6.718  68.929  1.00  0.00    -0.018 A  
HETATM   17  C   UNL     1      -5.410   6.215  70.188  1.00  0.00    -0.013 A  
HETATM   18  C   UNL     1      -6.391   6.018  71.156  1.00  0.00    -0.044 A  
HETATM   19  C   UNL     1      -7.719   6.327  70.873  1.00  0.00    -0.098 A  
HETATM   20  C   UNL     1      -8.072   6.805  69.602  1.00  0.00    -0.126 A  
BRANCH  20  21
HETATM   21  O   UNL     1      -9.417   7.165  69.385  1.00  0.00    -0.154 OA 
BRANCH  21  22
HETATM   22  C   UNL     1     -10.110   7.669  70.482  1.00  0.00    -0.189 C  
HETATM   23  O   UNL     1      -9.854   8.696  71.097  1.00  0.00    -0.186 OA 
HETATM   24  C   UNL     1     -11.310   6.810  70.749  1.00  0.00    -0.374 C  
ENDBRANCH  21  22
ENDBRANCH  20  21
ENDBRANCH  13  15
ENDBRANCH  12  13
ENDBRANCH   9  12
ENDBRANCH   3   6
TORSDOF 6
ENDMDL
MODEL      302
REMARK 921   NORMALIZED FREE ENERGY PREDICTED BY IDOCK:   -1.65 KCAL/MOL
REMARK 922        TOTAL FREE ENERGY PREDICTED BY IDOCK:   -3.71 KCAL/MOL
REMARK 923 INTER-LIGAND FREE ENERGY PREDICTED BY IDOCK:   -3.32 KCAL/MOL
REMARK 924 INTRA-LIGAND FREE ENERGY PREDICTED BY IDOCK:   -0.39 KCAL/MOL
REMARK 927      BINDING AFFINITY PREDICTED BY RF-SCORE:    0.00 PKD
ROOT
HETATM    1  C   UNL     1     -10.261   3.384  62.453  1.00  0.00    -0.130 C  
HETATM    2  C   UNL     1     -10.264   3.769  63.910  1.00  0.00    -0.221 C  
HETATM    3  N   UNL     1      -8.991   3.797  64.458  1.00  0.00    -0.119 N  
HETATM    4  O   UNL     1     -11.320   4.024  64.478  1.00  0.00    -0.295 OA 
HETATM    5  H   UNL     1      -8.219   3.564  63.833  1.00  0.00     0.000 HD 
ENDROOT
BRANCH   3   6
HETATM    6  C   UNL     1      -8.650   4.114  65.794  1.00  0.00    -0.114 A  
HETATM    7  C   UNL     1      -7.391   4.585  66.175  1.00  0.00    -0.077 A  
HETATM    8  C   UNL     1      -7.112   4.910  67.503  1.00  0.00    -0.066 A  
HETATM    9  C   UNL     1      -8.101   4.795  68.474  1.00  0.00    -0.084 A  
HETATM   10  C   UNL     1      -9.626   3.953  66.787  1.00  0.00    -0.222 A  
HETATM   11  C   UNL     1      -9.353   4.284  68.124  1.00  0.00    -0.204 A  
BRANCH   9  12
HETATM   12  O   UNL     1      -7.935   5.183  69.827  1.00  0.00    -0.076 OA 
BRANCH  12  13
HETATM   13  C   UNL     1      -8.974   5.675  70.622  1.00  0.00    -0.146 C  
HETATM   14  O   UNL     1      -9.651   6.669  70.416  1.00  0.00    -0.165 OA 
BRANCH  13  15
HETATM   15  C   UNL     1      -9.197   4.771  71.780  1.00  0.00    -0.175 A  
HETATM   16  C   UNL     1     -10.142   3.732  71.699  1.00  0.00    -0.149 A  
HETATM   17  C   UNL     1     -10.324   2.854  72.772  1.00  0.00    -0.232 A  
HETATM   18  C   UNL     1      -9.563   2.992  73.929  1.00  0.00    -0.120 A  
HETATM   19  C   UNL     1      -8.613   4.006  74.019  1.00  0.00    -0.093 A  
HETATM   20  C   UNL     1      -8.447   4.907  72.957  1.00  0.00    -0.107 A  
BRANCH  20  21
HETATM   21  O   UNL     1      -7.428   5.875  73.068  1.00  0.00    -0.093 OA 
BRANCH  21  22
HETATM   22  C   UNL     1      -7.802   7.115  73.580  1.00  0.00    -0.096 C  
HETATM   23  O   UNL     1      -8.787   7.351  74.267  1.00  0.00    -0.212 OA 
HETATM   24  C   UNL     1      -6.746   8.127  73.251  1.00  0.00    -0.124 C  
ENDBRANCH  21  22
ENDBRANCH  20  21
ENDBRANCH  13  15
ENDBRANCH  12  13
ENDBRANCH   9  12
ENDBRANCH   3   6
TORSDOF 6
ENDMDL
MODEL      303
REMARK 921   NORMALIZED FREE ENERGY PREDICTED BY IDOCK:   -1.61 KCAL/MOL
REMARK 922        TOTAL FREE ENERGY PREDICTED BY IDOCK:   -3.65 KCAL/MOL
REMARK 923 INTER-LIGAND FREE ENERGY PREDICTED BY IDOCK:   -4.39 KCAL/MOL
REMARK 924 INTRA-LIGAND FREE ENERGY PREDICTED BY IDOCK:    0.73 KCAL/MOL
REMARK 927      BINDING AFFINITY PREDICTED BY RF-SCORE:    0.00 PKD
ROOT
HETATM    1  C   UNL     1     -10.489   2.993  62.350  1.00  0.00    -0.135 C  
HETATM    2  C   UNL     1     -10.532   3.650  63.706  1.00  0.00    -0.266 C  
HETATM    3  N   UNL     1      -9.357   3.476  64.421  1.00  0.00    -0.132 N  
HETATM    4  O   UNL     1     -11.532   4.262  64.062  1.00  0.00     0.020 OA 
HETATM    5  H   UNL     1      -8.618   2.942  63.963  1.00  0.00     0.000 HD 
ENDROOT
BRANCH   3   6
HETATM    6  C   UNL     1      -9.077   3.961  65.720  1.00  0.00    -0.145 A  
HETATM    7  C   UNL     1      -7.894   3.677  66.408  1.00  0.00    -0.089 A  
HETATM    8  C   UNL     1      -7.653   4.203  67.678  1.00  0.00    -0.069 A  
HETATM    9  C   UNL     1      -8.583   5.047  68.274  1.00  0.00    -0.102 A  
HETATM   10  C   UNL     1     -10.031   4.773  66.349  1.00  0.00    -0.264 A  
HETATM   11  C   UNL     1      -9.791   5.308  67.624  1.00  0.00    -0.187 A  
BRANCH   9  12
HETATM   12  O   UNL     1      -8.385   5.694  69.520  1.00  0.00    -0.101 OA 
BRANCH  12  13
HETATM   13  C   UNL     1      -9.313   6.568  70.092  1.00  0.00    -0.158 C  
HETATM   14  O   UNL     1      -9.570   7.707  69.734  1.00  0.00    -0.163 OA 
BRANCH  13  15
HETATM   15  C   UNL     1     -10.018   5.895  71.213  1.00  0.00    -0.232 A  
HETATM   16  C   UNL     1      -9.338   4.971  72.028  1.00  0.00    -0.168 A  
HETATM   17  C   UNL     1      -9.987   4.367  73.109  1.00  0.00    -0.189 A  
HETATM   18  C   UNL     1     -11.312   4.682  73.398  1.00  0.00    -0.394 A  
HETATM   19  C   UNL     1     -11.994   5.606  72.611  1.00  0.00    -0.120 A  
HETATM   20  C   UNL     1     -11.356   6.193  71.507  1.00  0.00    -0.280 A  
BRANCH  20  21
HETATM   21  O   UNL     1     -12.065   7.170  70.780  1.00  0.00    -0.331 OA 
BRANCH  21  22
HETATM   22  C   UNL     1     -12.376   8.346  71.460  1.00  0.00    -0.309 C  
HETATM   23  O   UNL     1     -13.321   9.089  71.232  1.00  0.00    -0.303 OA 
HETATM   24  C   UNL     1     -11.428   8.522  72.608  1.00  0.00    -0.267 C  
ENDBRANCH  21  22
ENDBRANCH  20  21
ENDBRANCH  13  15
ENDBRANCH  12  13
ENDBRANCH   9  12
ENDBRANCH   3   6
TORSDOF 6
ENDMDL
MODEL      304
REMARK 921   NORMALIZED FREE ENERGY PREDICTED BY IDOCK:   -1.59 KCAL/MOL
REMARK 922        TOTAL FREE ENERGY PREDICTED BY IDOCK:   -3.63 KCAL/MOL
REMARK 923 INTER-LIGAND FREE ENERGY PREDICTED BY IDOCK:   -2.76 KCAL/MOL
REMARK 924 INTRA-LIGAND FREE ENERGY PREDICTED BY IDOCK:   -0.86 KCAL/MOL
REMARK 927      BINDING AFFINITY PREDICTED BY RF-SCORE:    0.00 PKD
ROOT
HETATM    1  C   UNL     1      -7.311  16.247  68.796  1.00  0.00    -0.191 C  
HETATM    2  C   UNL     1      -7.060  14.821  68.375  1.00  0.00    -0.114 C  
HETATM    3  N   UNL     1      -8.095  13.970  68.729  1.00  0.00    -0.266 N  
HETATM    4  O   UNL     1      -6.030  14.528  67.780  1.00  0.00    -0.204 OA 
HETATM    5  H   UNL     1      -8.886  14.390  69.216  1.00  0.00     0.000 HD 
ENDROOT
BRANCH   3   6
HETATM    6  C   UNL     1      -8.168  12.578  68.485  1.00  0.00    -0.079 A  
HETATM    7  C   UNL     1      -7.450  11.631  69.220  1.00  0.00     0.073 A  
HETATM    8  C   UNL     1      -7.577  10.265  68.958  1.00  0.00    -0.102 A  
HETATM    9  C   UNL     1      -8.448   9.821  67.970  1.00  0.00    -0.118 A  
HETATM   10  C   UNL     1      -9.006  12.125  67.457  1.00  0.00    -0.177 A  
HETATM   11  C   UNL     1      -9.141  10.752  67.193  1.00  0.00    -0.153 A  
BRANCH   9  12
HETATM   12  O   UNL     1      -8.706   8.454  67.694  1.00  0.00    -0.135 OA 
BRANCH  12  13
HETATM   13  C   UNL     1      -7.739   7.569  67.210  1.00  0.00    -0.116 C  
HETATM   14  O   UNL     1      -6.552   7.796  67.040  1.00  0.00    -0.059 OA 
BRANCH  13  15
HETATM   15  C   UNL     1      -8.352   6.239  66.958  1.00  0.00    -0.109 A  
HETATM   16  C   UNL     1      -8.740   5.421  68.035  1.00  0.00    -0.106 A  
HETATM   17  C   UNL     1      -9.355   4.187  67.801  1.00  0.00    -0.211 A  
HETATM   18  C   UNL     1      -9.600   3.759  66.499  1.00  0.00    -0.189 A  
HETATM   19  C   UNL     1      -9.236   4.564  65.423  1.00  0.00    -0.154 A  
HETATM   20  C   UNL     1      -8.592   5.790  65.652  1.00  0.00    -0.151 A  
BRANCH  20  21
HETATM   21  O   UNL     1      -8.302   6.600  64.535  1.00  0.00    -0.065 OA 
BRANCH  21  22
HETATM   22  C   UNL     1      -7.148   6.285  63.822  1.00  0.00    -0.050 C  
HETATM   23  O   UNL     1      -6.086   5.899  64.292  1.00  0.00    -0.024 OA 
HETATM   24  C   UNL     1      -7.428   6.386  62.353  1.00  0.00    -0.066 C  
ENDBRANCH  21  22
ENDBRANCH  20  21
ENDBRANCH  13  15
ENDBRANCH  12  13
ENDBRANCH   9  12
ENDBRANCH   3   6
TORSDOF 6
ENDMDL
MODEL      305
REMARK 921   NORMALIZED FREE ENERGY PREDICTED BY IDOCK:   -1.56 KCAL/MOL
REMARK 922        TOTAL FREE ENERGY PREDICTED BY IDOCK:   -3.58 KCAL/MOL
REMARK 923 INTER-LIGAND FREE ENERGY PREDICTED BY IDOCK:   -2.74 KCAL/MOL
REMARK 924 INTRA-LIGAND FREE ENERGY PREDICTED BY IDOCK:   -0.85 KCAL/MOL
REMARK 927      BINDING AFFINITY PREDICTED BY RF-SCORE:    0.00 PKD
ROOT
HETATM    1  C   UNL     1      -6.889  10.858  66.564  1.00  0.00    -0.132 C  
HETATM    2  C   UNL     1      -7.343  10.085  67.776  1.00  0.00    -0.089 C  
HETATM    3  N   UNL     1      -8.216   9.057  67.457  1.00  0.00    -0.108 N  
HETATM    4  O   UNL     1      -6.934  10.390  68.890  1.00  0.00    -0.060 OA 
HETATM    5  H   UNL     1      -8.443   8.940  66.469  1.00  0.00     0.000 HD 
ENDROOT
BRANCH   3   6
HETATM    6  C   UNL     1      -8.825   8.152  68.358  1.00  0.00    -0.133 A  
HETATM    7  C   UNL     1      -9.490   8.555  69.519  1.00  0.00    -0.165 A  
HETATM    8  C   UNL     1     -10.099   7.624  70.363  1.00  0.00    -0.190 A  
HETATM    9  C   UNL     1     -10.075   6.271  70.045  1.00  0.00    -0.175 A  
HETATM   10  C   UNL     1      -8.762   6.781  68.071  1.00  0.00    -0.118 A  
HETATM   11  C   UNL     1      -9.377   5.842  68.914  1.00  0.00    -0.139 A  
BRANCH   9  12
HETATM   12  O   UNL     1     -10.738   5.267  70.795  1.00  0.00    -0.221 OA 
BRANCH  12  13
HETATM   13  C   UNL     1     -10.275   4.789  72.024  1.00  0.00    -0.195 C  
HETATM   14  O   UNL     1     -10.607   5.169  73.135  1.00  0.00    -0.194 OA 
BRANCH  13  15
HETATM   15  C   UNL     1      -9.316   3.676  71.804  1.00  0.00    -0.195 A  
HETATM   16  C   UNL     1      -9.705   2.536  71.076  1.00  0.00    -0.155 A  
HETATM   17  C   UNL     1      -8.792   1.505  70.832  1.00  0.00    -0.107 A  
HETATM   18  C   UNL     1      -7.484   1.601  71.298  1.00  0.00    -0.032 A  
HETATM   19  C   UNL     1      -7.079   2.729  72.007  1.00  0.00    -0.038 A  
HETATM   20  C   UNL     1      -7.999   3.752  72.280  1.00  0.00    -0.069 A  
BRANCH  20  21
HETATM   21  O   UNL     1      -7.527   4.903  72.943  1.00  0.00    -0.087 OA 
BRANCH  21  22
HETATM   22  C   UNL     1      -6.566   5.656  72.272  1.00  0.00    -0.062 C  
HETATM   23  O   UNL     1      -6.776   6.585  71.504  1.00  0.00    -0.056 OA 
HETATM   24  C   UNL     1      -5.199   5.226  72.715  1.00  0.00    -0.016 C  
ENDBRANCH  21  22
ENDBRANCH  20  21
ENDBRANCH  13  15
ENDBRANCH  12  13
ENDBRANCH   9  12
ENDBRANCH   3   6
TORSDOF 6
ENDMDL
MODEL      306
REMARK 921   NORMALIZED FREE ENERGY PREDICTED BY IDOCK:   -1.44 KCAL/MOL
REMARK 922        TOTAL FREE ENERGY PREDICTED BY IDOCK:   -3.42 KCAL/MOL
REMARK 923 INTER-LIGAND FREE ENERGY PREDICTED BY IDOCK:   -2.79 KCAL/MOL
REMARK 924 INTRA-LIGAND FREE ENERGY PREDICTED BY IDOCK:   -0.63 KCAL/MOL
REMARK 927      BINDING AFFINITY PREDICTED BY RF-SCORE:    0.00 PKD
ROOT
HETATM    1  C   UNL     1      -7.606   8.356  74.489  1.00  0.00    -0.275 C  
HETATM    2  C   UNL     1      -7.732   8.111  73.006  1.00  0.00    -0.148 C  
HETATM    3  N   UNL     1      -7.143   6.921  72.609  1.00  0.00    -0.074 N  
HETATM    4  O   UNL     1      -8.315   8.922  72.296  1.00  0.00    -0.384 OA 
HETATM    5  H   UNL     1      -6.707   6.360  73.342  1.00  0.00     0.000 HD 
ENDROOT
BRANCH   3   6
HETATM    6  C   UNL     1      -7.083   6.403  71.294  1.00  0.00    -0.077 A  
HETATM    7  C   UNL     1      -7.918   5.384  70.831  1.00  0.00    -0.104 A  
HETATM    8  C   UNL     1      -7.837   4.925  69.515  1.00  0.00    -0.067 A  
HETATM    9  C   UNL     1      -6.934   5.500  68.628  1.00  0.00    -0.060 A  
HETATM   10  C   UNL     1      -6.140   6.943  70.408  1.00  0.00    -0.024 A  
HETATM   11  C   UNL     1      -6.059   6.489  69.082  1.00  0.00    -0.026 A  
BRANCH   9  12
HETATM   12  O   UNL     1      -6.843   5.159  67.255  1.00  0.00    -0.057 OA 
BRANCH  12  13
HETATM   13  C   UNL     1      -7.343   5.962  66.226  1.00  0.00    -0.081 C  
HETATM   14  O   UNL     1      -6.808   6.209  65.157  1.00  0.00    -0.049 OA 
BRANCH  13  15
HETATM   15  C   UNL     1      -8.693   6.466  66.588  1.00  0.00    -0.127 A  
HETATM   16  C   UNL     1      -8.882   7.821  66.918  1.00  0.00    -0.143 A  
HETATM   17  C   UNL     1     -10.158   8.306  67.218  1.00  0.00    -0.315 A  
HETATM   18  C   UNL     1     -11.259   7.455  67.185  1.00  0.00     0.199 A  
HETATM   19  C   UNL     1     -11.092   6.115  66.846  1.00  0.00    -0.301 A  
HETATM   20  C   UNL     1      -9.809   5.616  66.572  1.00  0.00    -0.168 A  
BRANCH  20  21
HETATM   21  O   UNL     1      -9.698   4.270  66.170  1.00  0.00    -0.179 OA 
BRANCH  21  22
HETATM   22  C   UNL     1      -9.539   4.040  64.805  1.00  0.00    -0.178 C  
HETATM   23  O   UNL     1      -8.509   3.698  64.240  1.00  0.00    -0.090 OA 
HETATM   24  C   UNL     1     -10.867   4.172  64.121  1.00  0.00    -0.065 C  
ENDBRANCH  21  22
ENDBRANCH  20  21
ENDBRANCH  13  15
ENDBRANCH  12  13
ENDBRANCH   9  12
ENDBRANCH   3   6
TORSDOF 6
ENDMDL
MODEL      307
REMARK 921   NORMALIZED FREE ENERGY PREDICTED BY IDOCK:   -1.05 KCAL/MOL
REMARK 922        TOTAL FREE ENERGY PREDICTED BY IDOCK:   -2.90 KCAL/MOL
REMARK 923 INTER-LIGAND FREE ENERGY PREDICTED BY IDOCK:   -2.58 KCAL/MOL
REMARK 924 INTRA-LIGAND FREE ENERGY PREDICTED BY IDOCK:   -0.31 KCAL/MOL
REMARK 927      BINDING AFFINITY PREDICTED BY RF-SCORE:    0.00 PKD
ROOT
HETATM    1  C   UNL     1      -8.615  15.374  67.001  1.00  0.00    -0.262 C  
HETATM    2  C   UNL     1      -9.229  14.113  67.554  1.00  0.00    -0.192 C  
HETATM    3  N   UNL     1      -8.282  13.152  67.870  1.00  0.00    -0.149 N  
HETATM    4  O   UNL     1     -10.444  14.028  67.688  1.00  0.00    -0.243 OA 
HETATM    5  H   UNL     1      -7.306  13.399  67.701  1.00  0.00     0.000 HD 
ENDROOT
BRANCH   3   6
HETATM    6  C   UNL     1      -8.527  11.864  68.402  1.00  0.00    -0.155 A  
HETATM    7  C   UNL     1      -9.538  11.595  69.328  1.00  0.00     0.377 A  
HETATM    8  C   UNL     1      -9.756  10.301  69.803  1.00  0.00    -0.183 A  
HETATM    9  C   UNL     1      -8.982   9.244  69.338  1.00  0.00    -0.147 A  
HETATM   10  C   UNL     1      -7.717  10.802  67.976  1.00  0.00    -0.101 A  
HETATM   11  C   UNL     1      -7.937   9.498  68.446  1.00  0.00    -0.093 A  
BRANCH   9  12
HETATM   12  O   UNL     1      -9.188   7.889  69.697  1.00  0.00    -0.152 OA 
BRANCH  12  13
HETATM   13  C   UNL     1      -8.177   7.057  70.186  1.00  0.00    -0.133 C  
HETATM   14  O   UNL     1      -7.216   7.386  70.863  1.00  0.00    -0.066 OA 
BRANCH  13  15
HETATM   15  C   UNL     1      -8.452   5.648  69.803  1.00  0.00    -0.107 A  
HETATM   16  C   UNL     1      -9.059   4.769  70.718  1.00  0.00    -0.178 A  
HETATM   17  C   UNL     1      -9.357   3.454  70.347  1.00  0.00    -0.240 A  
HETATM   18  C   UNL     1      -9.065   3.004  69.062  1.00  0.00    -0.205 A  
HETATM   19  C   UNL     1      -8.479   3.866  68.140  1.00  0.00    -0.106 A  
HETATM   20  C   UNL     1      -8.151   5.178  68.517  1.00  0.00    -0.086 A  
BRANCH  20  21
HETATM   21  O   UNL     1      -7.619   6.033  67.531  1.00  0.00    -0.087 OA 
BRANCH  21  22
HETATM   22  C   UNL     1      -6.232   6.141  67.485  1.00  0.00    -0.032 C  
HETATM   23  O   UNL     1      -5.427   5.224  67.580  1.00  0.00    -0.011 OA 
HETATM   24  C   UNL     1      -5.854   7.562  67.190  1.00  0.00    -0.032 C  
ENDBRANCH  21  22
ENDBRANCH  20  21
ENDBRANCH  13  15
ENDBRANCH  12  13
ENDBRANCH   9  12
ENDBRANCH   3   6
TORSDOF 6
ENDMDL
MODEL      308
REMARK 921   NORMALIZED FREE ENERGY PREDICTED BY IDOCK:   -0.95 KCAL/MOL
REMARK 922        TOTAL FREE ENERGY PREDICTED BY IDOCK:   -2.76 KCAL/MOL
REMARK 923 INTER-LIGAND FREE ENERGY PREDICTED BY IDOCK:   -2.09 KCAL/MOL
REMARK 924 INTRA-LIGAND FREE ENERGY PREDICTED BY IDOCK:   -0.67 KCAL/MOL
REMARK 927      BINDING AFFINITY PREDICTED BY RF-SCORE:    0.00 PKD
ROOT
HETATM    1  C   UNL     1      -8.100   8.149  74.546  1.00  0.00    -0.265 C  
HETATM    2  C   UNL     1      -8.300   7.840  73.084  1.00  0.00    -0.157 C  
HETATM    3  N   UNL     1      -7.213   7.188  72.523  1.00  0.00    -0.071 N  
HETATM    4  O   UNL     1      -9.343   8.157  72.525  1.00  0.00    -0.206 OA 
HETATM    5  H   UNL     1      -6.427   6.993  73.143  1.00  0.00     0.000 HD 
ENDROOT
BRANCH   3   6
HETATM    6  C   UNL     1      -7.081   6.764  71.180  1.00  0.00    -0.075 A  
HETATM    7  C   UNL     1      -7.853   5.745  70.616  1.00  0.00    -0.101 A  
HETATM    8  C   UNL     1      -7.703   5.382  69.276  1.00  0.00    -0.085 A  
HETATM    9  C   UNL     1      -6.793   6.052  68.467  1.00  0.00    -0.070 A  
HETATM   10  C   UNL     1      -6.130   7.402  70.370  1.00  0.00    -0.031 A  
HETATM   11  C   UNL     1      -5.980   7.044  69.021  1.00  0.00    -0.022 A  
BRANCH   9  12
HETATM   12  O   UNL     1      -6.635   5.811  67.079  1.00  0.00    -0.052 OA 
BRANCH  12  13
HETATM   13  C   UNL     1      -5.970   4.696  66.560  1.00  0.00    -0.027 C  
HETATM   14  O   UNL     1      -5.287   3.894  67.176  1.00  0.00    -0.011 OA 
BRANCH  13  15
HETATM   15  C   UNL     1      -6.248   4.574  65.106  1.00  0.00    -0.034 A  
HETATM   16  C   UNL     1      -5.259   4.908  64.163  1.00  0.00    -0.009 A  
HETATM   17  C   UNL     1      -5.503   4.754  62.795  1.00  0.00    -0.013 A  
HETATM   18  C   UNL     1      -6.726   4.257  62.351  1.00  0.00    -0.030 A  
HETATM   19  C   UNL     1      -7.709   3.907  63.272  1.00  0.00    -0.063 A  
HETATM   20  C   UNL     1      -7.480   4.087  64.645  1.00  0.00    -0.072 A  
BRANCH  20  21
HETATM   21  O   UNL     1      -8.479   3.658  65.541  1.00  0.00    -0.107 OA 
BRANCH  21  22
HETATM   22  C   UNL     1      -9.690   4.343  65.496  1.00  0.00    -0.200 C  
HETATM   23  O   UNL     1     -10.696   4.003  64.888  1.00  0.00    -0.215 OA 
HETATM   24  C   UNL     1      -9.622   5.533  66.406  1.00  0.00    -0.174 C  
ENDBRANCH  21  22
ENDBRANCH  20  21
ENDBRANCH  13  15
ENDBRANCH  12  13
ENDBRANCH   9  12
ENDBRANCH   3   6
TORSDOF 6
ENDMDL
MODEL      309
REMARK 921   NORMALIZED FREE ENERGY PREDICTED BY IDOCK:   -0.93 KCAL/MOL
REMARK 922        TOTAL FREE ENERGY PREDICTED BY IDOCK:   -2.74 KCAL/MOL
REMARK 923 INTER-LIGAND FREE ENERGY PREDICTED BY IDOCK:   -3.39 KCAL/MOL
REMARK 924 INTRA-LIGAND FREE ENERGY PREDICTED BY IDOCK:    0.65 KCAL/MOL
REMARK 927      BINDING AFFINITY PREDICTED BY RF-SCORE:    0.00 PKD
ROOT
HETATM    1  C   UNL     1     -14.019  15.664  71.994  1.00  0.00    -0.515 C  
HETATM    2  C   UNL     1     -12.831  14.805  71.641  1.00  0.00    -0.332 C  
HETATM    3  N   UNL     1     -12.274  15.142  70.417  1.00  0.00    -0.319 N  
HETATM    4  O   UNL     1     -12.455  13.929  72.410  1.00  0.00    -0.132 OA 
HETATM    5  H   UNL     1     -12.714  15.910  69.910  1.00  0.00     0.000 HD 
ENDROOT
BRANCH   3   6
HETATM    6  C   UNL     1     -11.159  14.530  69.797  1.00  0.00    -0.200 A  
HETATM    7  C   UNL     1     -10.028  15.237  69.381  1.00  0.00    -0.257 A  
HETATM    8  C   UNL     1      -8.941  14.582  68.798  1.00  0.00    -0.157 A  
HETATM    9  C   UNL     1      -8.956  13.201  68.645  1.00  0.00     0.049 A  
HETATM   10  C   UNL     1     -11.188  13.143  69.594  1.00  0.00    -0.088 A  
HETATM   11  C   UNL     1     -10.095  12.480  69.013  1.00  0.00     0.153 A  
BRANCH   9  12
HETATM   12  O   UNL     1      -7.866  12.445  68.145  1.00  0.00    -0.127 OA 
BRANCH  12  13
HETATM   13  C   UNL     1      -7.563  12.334  66.785  1.00  0.00     0.104 C  
HETATM   14  O   UNL     1      -6.467  12.129  66.289  1.00  0.00     0.246 OA 
BRANCH  13  15
HETATM   15  C   UNL     1      -8.805  12.455  65.979  1.00  0.00     0.201 A  
HETATM   16  C   UNL     1      -9.538  13.656  65.979  1.00  0.00    -0.186 A  
HETATM   17  C   UNL     1     -10.684  13.787  65.188  1.00  0.00    -0.365 A  
HETATM   18  C   UNL     1     -11.107  12.732  64.384  1.00  0.00    -0.386 A  
HETATM   19  C   UNL     1     -10.384  11.543  64.361  1.00  0.00    -0.364 A  
HETATM   20  C   UNL     1      -9.250  11.396  65.174  1.00  0.00    -0.103 A  
BRANCH  20  21
HETATM   21  O   UNL     1      -8.514  10.199  65.068  1.00  0.00    -0.148 OA 
BRANCH  21  22
HETATM   22  C   UNL     1      -8.836   9.190  65.971  1.00  0.00    -0.168 C  
HETATM   23  O   UNL     1      -9.479   9.316  67.005  1.00  0.00    -0.148 OA 
HETATM   24  C   UNL     1      -8.362   7.872  65.434  1.00  0.00    -0.146 C  
ENDBRANCH  21  22
ENDBRANCH  20  21
ENDBRANCH  13  15
ENDBRANCH  12  13
ENDBRANCH   9  12
ENDBRANCH   3   6
TORSDOF 6
ENDMDL
MODEL      310
REMARK 921   NORMALIZED FREE ENERGY PREDICTED BY IDOCK:   -0.92 KCAL/MOL
REMARK 922        TOTAL FREE ENERGY PREDICTED BY IDOCK:   -2.72 KCAL/MOL
REMARK 923 INTER-LIGAND FREE ENERGY PREDICTED BY IDOCK:   -3.73 KCAL/MOL
REMARK 924 INTRA-LIGAND FREE ENERGY PREDICTED BY IDOCK:    1.01 KCAL/MOL
REMARK 927      BINDING AFFINITY PREDICTED BY RF-SCORE:    0.00 PKD
ROOT
HETATM    1  C   UNL     1     -10.806   6.610  73.824  1.00  0.00    -0.084 C  
HETATM    2  C   UNL     1     -11.094   6.839  72.362  1.00  0.00    -0.257 C  
HETATM    3  N   UNL     1      -9.942   7.009  71.611  1.00  0.00    -0.179 N  
HETATM    4  O   UNL     1     -12.251   6.852  71.958  1.00  0.00    -0.310 OA 
HETATM    5  H   UNL     1      -9.056   6.958  72.114  1.00  0.00     0.000 HD 
ENDROOT
BRANCH   3   6
HETATM    6  C   UNL     1      -9.866   7.245  70.217  1.00  0.00    -0.179 A  
HETATM    7  C   UNL     1      -9.139   8.296  69.655  1.00  0.00    -0.154 A  
HETATM    8  C   UNL     1      -9.073   8.471  68.271  1.00  0.00    -0.138 A  
HETATM    9  C   UNL     1      -9.716   7.577  67.422  1.00  0.00    -0.159 A  
HETATM   10  C   UNL     1     -10.553   6.377  69.356  1.00  0.00    -0.310 A  
HETATM   11  C   UNL     1     -10.485   6.545  67.964  1.00  0.00    -0.265 A  
BRANCH   9  12
HETATM   12  O   UNL     1      -9.633   7.625  66.008  1.00  0.00    -0.070 OA 
BRANCH  12  13
HETATM   13  C   UNL     1      -8.671   6.932  65.267  1.00  0.00     0.086 C  
HETATM   14  O   UNL     1      -8.432   5.735  65.306  1.00  0.00    -0.146 OA 
BRANCH  13  15
HETATM   15  C   UNL     1      -7.971   7.866  64.348  1.00  0.00    -0.132 A  
HETATM   16  C   UNL     1      -6.864   7.429  63.598  1.00  0.00    -0.054 A  
HETATM   17  C   UNL     1      -6.229   8.294  62.701  1.00  0.00    -0.087 A  
HETATM   18  C   UNL     1      -6.695   9.595  62.531  1.00  0.00    -0.098 A  
HETATM   19  C   UNL     1      -7.799  10.038  63.254  1.00  0.00    -0.150 A  
HETATM   20  C   UNL     1      -8.421   9.183  64.177  1.00  0.00    -0.185 A  
BRANCH  20  21
HETATM   21  O   UNL     1      -9.574   9.654  64.836  1.00  0.00    -0.277 OA 
BRANCH  21  22
HETATM   22  C   UNL     1      -9.403  10.744  65.685  1.00  0.00    -0.207 C  
HETATM   23  O   UNL     1     -10.286  11.470  66.125  1.00  0.00    -0.218 OA 
HETATM   24  C   UNL     1      -7.960  10.845  66.081  1.00  0.00    -0.155 C  
ENDBRANCH  21  22
ENDBRANCH  20  21
ENDBRANCH  13  15
ENDBRANCH  12  13
ENDBRANCH   9  12
ENDBRANCH   3   6
TORSDOF 6
ENDMDL
MODEL      311
REMARK 921   NORMALIZED FREE ENERGY PREDICTED BY IDOCK:   -0.90 KCAL/MOL
REMARK 922        TOTAL FREE ENERGY PREDICTED BY IDOCK:   -2.70 KCAL/MOL
REMARK 923 INTER-LIGAND FREE ENERGY PREDICTED BY IDOCK:   -2.52 KCAL/MOL
REMARK 924 INTRA-LIGAND FREE ENERGY PREDICTED BY IDOCK:   -0.18 KCAL/MOL
REMARK 927      BINDING AFFINITY PREDICTED BY RF-SCORE:    0.00 PKD
ROOT
HETATM    1  C   UNL     1     -10.250   3.274  62.399  1.00  0.00    -0.123 C  
HETATM    2  C   UNL     1      -9.953   3.896  63.740  1.00  0.00    -0.175 C  
HETATM    3  N   UNL     1      -8.596   4.072  63.959  1.00  0.00    -0.099 N  
HETATM    4  O   UNL     1     -10.871   4.194  64.496  1.00  0.00    -0.259 OA 
HETATM    5  H   UNL     1      -7.970   3.773  63.211  1.00  0.00     0.000 HD 
ENDROOT
BRANCH   3   6
HETATM    6  C   UNL     1      -7.989   4.622  65.112  1.00  0.00    -0.095 A  
HETATM    7  C   UNL     1      -6.729   5.226  65.103  1.00  0.00    -0.048 A  
HETATM    8  C   UNL     1      -6.184   5.779  66.263  1.00  0.00    -0.034 A  
HETATM    9  C   UNL     1      -6.905   5.761  67.452  1.00  0.00    -0.064 A  
HETATM   10  C   UNL     1      -8.688   4.565  66.326  1.00  0.00    -0.113 A  
HETATM   11  C   UNL     1      -8.147   5.124  67.494  1.00  0.00    -0.099 A  
BRANCH   9  12
HETATM   12  O   UNL     1      -6.469   6.374  68.654  1.00  0.00    -0.045 OA 
BRANCH  12  13
HETATM   13  C   UNL     1      -7.263   7.240  69.410  1.00  0.00    -0.084 C  
HETATM   14  O   UNL     1      -7.427   8.437  69.229  1.00  0.00    -0.080 OA 
BRANCH  13  15
HETATM   15  C   UNL     1      -7.955   6.484  70.485  1.00  0.00    -0.112 A  
HETATM   16  C   UNL     1      -7.223   5.657  71.357  1.00  0.00    -0.077 A  
HETATM   17  C   UNL     1      -7.866   4.977  72.396  1.00  0.00    -0.100 A  
HETATM   18  C   UNL     1      -9.238   5.118  72.585  1.00  0.00    -0.146 A  
HETATM   19  C   UNL     1      -9.974   5.945  71.741  1.00  0.00    -0.200 A  
HETATM   20  C   UNL     1      -9.339   6.607  70.679  1.00  0.00    -0.162 A  
BRANCH  20  21
HETATM   21  O   UNL     1     -10.113   7.483  69.892  1.00  0.00    -0.188 OA 
BRANCH  21  22
HETATM   22  C   UNL     1     -11.146   6.908  69.156  1.00  0.00    -0.159 C  
HETATM   23  O   UNL     1     -12.095   6.278  69.603  1.00  0.00     0.082 OA 
HETATM   24  C   UNL     1     -10.986   7.269  67.709  1.00  0.00    -0.141 C  
ENDBRANCH  21  22
ENDBRANCH  20  21
ENDBRANCH  13  15
ENDBRANCH  12  13
ENDBRANCH   9  12
ENDBRANCH   3   6
TORSDOF 6
ENDMDL
MODEL      312
REMARK 921   NORMALIZED FREE ENERGY PREDICTED BY IDOCK:   -0.75 KCAL/MOL
REMARK 922        TOTAL FREE ENERGY PREDICTED BY IDOCK:   -2.49 KCAL/MOL
REMARK 923 INTER-LIGAND FREE ENERGY PREDICTED BY IDOCK:   -3.00 KCAL/MOL
REMARK 924 INTRA-LIGAND FREE ENERGY PREDICTED BY IDOCK:    0.51 KCAL/MOL
REMARK 927      BINDING AFFINITY PREDICTED BY RF-SCORE:    0.00 PKD
ROOT
HETATM    1  C   UNL     1     -11.466   4.241  65.304  1.00  0.00     1.142 C  
HETATM    2  C   UNL     1     -10.646   5.411  65.785  1.00  0.00     0.165 C  
HETATM    3  N   UNL     1     -11.314   6.182  66.723  1.00  0.00    -0.681 N  
HETATM    4  O   UNL     1      -9.514   5.589  65.351  1.00  0.00    -0.034 OA 
HETATM    5  H   UNL     1     -12.255   5.880  66.977  1.00  0.00     0.000 HD 
ENDROOT
BRANCH   3   6
HETATM    6  C   UNL     1     -10.828   7.346  67.365  1.00  0.00    -0.229 A  
HETATM    7  C   UNL     1     -11.252   7.760  68.629  1.00  0.00     0.426 A  
HETATM    8  C   UNL     1     -10.722   8.902  69.232  1.00  0.00    -0.177 A  
HETATM    9  C   UNL     1      -9.733   9.637  68.588  1.00  0.00    -0.155 A  
HETATM   10  C   UNL     1      -9.867   8.121  66.700  1.00  0.00    -0.331 A  
HETATM   11  C   UNL     1      -9.327   9.267  67.304  1.00  0.00    -0.161 A  
BRANCH   9  12
HETATM   12  O   UNL     1      -9.077  10.757  69.159  1.00  0.00    -0.167 OA 
BRANCH  12  13
HETATM   13  C   UNL     1      -8.784  11.924  68.449  1.00  0.00    -0.157 C  
HETATM   14  O   UNL     1      -7.747  12.567  68.483  1.00  0.00    -0.129 OA 
BRANCH  13  15
HETATM   15  C   UNL     1      -9.927  12.281  67.569  1.00  0.00    -0.201 A  
HETATM   16  C   UNL     1      -9.771  12.293  66.170  1.00  0.00    -0.256 A  
HETATM   17  C   UNL     1     -10.855  12.587  65.338  1.00  0.00    -0.316 A  
HETATM   18  C   UNL     1     -12.106  12.861  65.885  1.00  0.00    -0.503 A  
HETATM   19  C   UNL     1     -12.281  12.838  67.266  1.00  0.00    -0.042 A  
HETATM   20  C   UNL     1     -11.189  12.572  68.106  1.00  0.00    -0.267 A  
BRANCH  20  21
HETATM   21  O   UNL     1     -11.429  12.495  69.493  1.00  0.00    -0.267 OA 
BRANCH  21  22
HETATM   22  C   UNL     1     -12.333  13.415  70.019  1.00  0.00    -0.226 C  
HETATM   23  O   UNL     1     -12.525  14.556  69.621  1.00  0.00    -0.279 OA 
HETATM   24  C   UNL     1     -13.135  12.759  71.103  1.00  0.00    -0.155 C  
ENDBRANCH  21  22
ENDBRANCH  20  21
ENDBRANCH  13  15
ENDBRANCH  12  13
ENDBRANCH   9  12
ENDBRANCH   3   6
TORSDOF 6
ENDMDL
MODEL      313
REMARK 921   NORMALIZED FREE ENERGY PREDICTED BY IDOCK:   -0.31 KCAL/MOL
REMARK 922        TOTAL FREE ENERGY PREDICTED BY IDOCK:   -1.90 KCAL/MOL
REMARK 923 INTER-LIGAND FREE ENERGY PREDICTED BY IDOCK:   -2.59 KCAL/MOL
REMARK 924 INTRA-LIGAND FREE ENERGY PREDICTED BY IDOCK:    0.70 KCAL/MOL
REMARK 927      BINDING AFFINITY PREDICTED BY RF-SCORE:    0.00 PKD
ROOT
HETATM    1  C   UNL     1     -11.893   9.136  69.872  1.00  0.00     0.336 C  
HETATM    2  C   UNL     1     -11.390   7.751  70.197  1.00  0.00    -0.110 C  
HETATM    3  N   UNL     1     -10.078   7.552  69.797  1.00  0.00    -0.191 N  
HETATM    4  O   UNL     1     -12.123   6.947  70.761  1.00  0.00    -0.374 OA 
HETATM    5  H   UNL     1      -9.613   8.340  69.347  1.00  0.00     0.000 HD 
ENDROOT
BRANCH   3   6
HETATM    6  C   UNL     1      -9.316   6.370  69.950  1.00  0.00    -0.151 A  
HETATM    7  C   UNL     1      -7.921   6.342  69.890  1.00  0.00    -0.115 A  
HETATM    8  C   UNL     1      -7.214   5.152  70.074  1.00  0.00    -0.059 A  
HETATM    9  C   UNL     1      -7.892   3.970  70.349  1.00  0.00    -0.051 A  
HETATM   10  C   UNL     1      -9.996   5.165  70.179  1.00  0.00    -0.324 A  
HETATM   11  C   UNL     1      -9.288   3.967  70.370  1.00  0.00    -0.230 A  
BRANCH   9  12
HETATM   12  O   UNL     1      -7.255   2.737  70.636  1.00  0.00    -0.033 OA 
BRANCH  12  13
HETATM   13  C   UNL     1      -7.186   2.182  71.917  1.00  0.00    -0.038 C  
HETATM   14  O   UNL     1      -6.299   1.476  72.367  1.00  0.00    -0.012 OA 
BRANCH  13  15
HETATM   15  C   UNL     1      -8.359   2.616  72.718  1.00  0.00    -0.070 A  
HETATM   16  C   UNL     1      -9.620   2.028  72.510  1.00  0.00    -0.153 A  
HETATM   17  C   UNL     1     -10.716   2.404  73.291  1.00  0.00    -0.274 A  
HETATM   18  C   UNL     1     -10.570   3.360  74.293  1.00  0.00    -0.253 A  
HETATM   19  C   UNL     1      -9.325   3.940  74.523  1.00  0.00    -0.124 A  
HETATM   20  C   UNL     1      -8.228   3.587  73.722  1.00  0.00    -0.079 A  
BRANCH  20  21
HETATM   21  O   UNL     1      -6.976   4.152  74.035  1.00  0.00    -0.057 OA 
BRANCH  21  22
HETATM   22  C   UNL     1      -6.852   5.527  73.853  1.00  0.00    -0.081 C  
HETATM   23  O   UNL     1      -7.681   6.272  73.348  1.00  0.00    -0.098 OA 
HETATM   24  C   UNL     1      -5.571   5.997  74.475  1.00  0.00    -0.050 C  
ENDBRANCH  21  22
ENDBRANCH  20  21
ENDBRANCH  13  15
ENDBRANCH  12  13
ENDBRANCH   9  12
ENDBRANCH   3   6
TORSDOF 6
ENDMDL
MODEL      314
REMARK 921   NORMALIZED FREE ENERGY PREDICTED BY IDOCK:   -0.10 KCAL/MOL
REMARK 922        TOTAL FREE ENERGY PREDICTED BY IDOCK:   -1.61 KCAL/MOL
REMARK 923 INTER-LIGAND FREE ENERGY PREDICTED BY IDOCK:   -2.94 KCAL/MOL
REMARK 924 INTRA-LIGAND FREE ENERGY PREDICTED BY IDOCK:    1.33 KCAL/MOL
REMARK 927      BINDING AFFINITY PREDICTED BY RF-SCORE:    0.00 PKD
ROOT
HETATM    1  C   UNL     1      -5.611  10.043  62.931  1.00  0.00    -0.106 C  
HETATM    2  C   UNL     1      -6.693   9.394  63.756  1.00  0.00    -0.096 C  
HETATM    3  N   UNL     1      -6.269   9.073  65.036  1.00  0.00    -0.064 N  
HETATM    4  O   UNL     1      -7.807   9.211  63.278  1.00  0.00    -0.119 OA 
HETATM    5  H   UNL     1      -5.304   9.307  65.270  1.00  0.00     0.000 HD 
ENDROOT
BRANCH   3   6
HETATM    6  C   UNL     1      -7.034   8.455  66.053  1.00  0.00    -0.065 A  
HETATM    7  C   UNL     1      -8.100   7.590  65.793  1.00  0.00    -0.127 A  
HETATM    8  C   UNL     1      -8.808   6.983  66.832  1.00  0.00    -0.127 A  
HETATM    9  C   UNL     1      -8.443   7.210  68.154  1.00  0.00    -0.123 A  
HETATM   10  C   UNL     1      -6.704   8.718  67.389  1.00  0.00    -0.066 A  
HETATM   11  C   UNL     1      -7.409   8.105  68.437  1.00  0.00    -0.094 A  
BRANCH   9  12
HETATM   12  O   UNL     1      -9.046   6.571  69.266  1.00  0.00    -0.137 OA 
BRANCH  12  13
HETATM   13  C   UNL     1      -8.754   6.895  70.594  1.00  0.00    -0.149 C  
HETATM   14  O   UNL     1      -8.218   7.912  71.004  1.00  0.00    -0.095 OA 
BRANCH  13  15
HETATM   15  C   UNL     1      -9.241   5.819  71.495  1.00  0.00    -0.159 A  
HETATM   16  C   UNL     1      -9.258   6.013  72.889  1.00  0.00    -0.134 A  
HETATM   17  C   UNL     1      -9.755   5.018  73.737  1.00  0.00    -0.151 A  
HETATM   18  C   UNL     1     -10.249   3.828  73.210  1.00  0.00    -0.220 A  
HETATM   19  C   UNL     1     -10.254   3.628  71.832  1.00  0.00    -0.111 A  
HETATM   20  C   UNL     1      -9.729   4.611  70.979  1.00  0.00    -0.188 A  
BRANCH  20  21
HETATM   21  O   UNL     1      -9.816   4.390  69.590  1.00  0.00    -0.210 OA 
BRANCH  21  22
HETATM   22  C   UNL     1      -8.782   3.659  69.011  1.00  0.00    -0.092 C  
HETATM   23  O   UNL     1      -7.612   3.640  69.372  1.00  0.00    -0.052 OA 
HETATM   24  C   UNL     1      -9.336   2.793  67.919  1.00  0.00    -0.251 C  
ENDBRANCH  21  22
ENDBRANCH  20  21
ENDBRANCH  13  15
ENDBRANCH  12  13
ENDBRANCH   9  12
ENDBRANCH   3   6
TORSDOF 6
ENDMDL
MODEL      315
REMARK 921   NORMALIZED FREE ENERGY PREDICTED BY IDOCK:    0.30 KCAL/MOL
REMARK 922        TOTAL FREE ENERGY PREDICTED BY IDOCK:   -1.07 KCAL/MOL
REMARK 923 INTER-LIGAND FREE ENERGY PREDICTED BY IDOCK:   -2.64 KCAL/MOL
REMARK 924 INTRA-LIGAND FREE ENERGY PREDICTED BY IDOCK:    1.57 KCAL/MOL
REMARK 927      BINDING AFFINITY PREDICTED BY RF-SCORE:    0.00 PKD
ROOT
HETATM    1  C   UNL     1      -6.325  10.798  62.848  1.00  0.00     0.032 C  
HETATM    2  C   UNL     1      -7.173   9.965  63.776  1.00  0.00    -0.125 C  
HETATM    3  N   UNL     1      -6.504   9.612  64.938  1.00  0.00    -0.086 N  
HETATM    4  O   UNL     1      -8.324   9.679  63.468  1.00  0.00    -0.146 OA 
HETATM    5  H   UNL     1      -5.545   9.947  65.033  1.00  0.00     0.000 HD 
ENDROOT
BRANCH   3   6
HETATM    6  C   UNL     1      -7.013   8.835  66.005  1.00  0.00    -0.080 A  
HETATM    7  C   UNL     1      -8.032   7.892  65.852  1.00  0.00    -0.106 A  
HETATM    8  C   UNL     1      -8.480   7.130  66.932  1.00  0.00    -0.123 A  
HETATM    9  C   UNL     1      -7.896   7.280  68.185  1.00  0.00    -0.118 A  
HETATM   10  C   UNL     1      -6.463   9.016  67.282  1.00  0.00    -0.061 A  
HETATM   11  C   UNL     1      -6.907   8.249  68.371  1.00  0.00    -0.065 A  
BRANCH   9  12
HETATM   12  O   UNL     1      -8.227   6.491  69.315  1.00  0.00    -0.119 OA 
BRANCH  12  13
HETATM   13  C   UNL     1      -8.744   5.196  69.228  1.00  0.00    -0.096 C  
HETATM   14  O   UNL     1      -8.712   4.454  68.259  1.00  0.00    -0.097 OA 
BRANCH  13  15
HETATM   15  C   UNL     1      -9.324   4.794  70.535  1.00  0.00    -0.219 A  
HETATM   16  C   UNL     1      -9.778   3.478  70.737  1.00  0.00    -0.207 A  
HETATM   17  C   UNL     1     -10.286   3.085  71.979  1.00  0.00    -0.004 A  
HETATM   18  C   UNL     1     -10.339   3.992  73.034  1.00  0.00    -0.240 A  
HETATM   19  C   UNL     1      -9.879   5.294  72.855  1.00  0.00    -0.179 A  
HETATM   20  C   UNL     1      -9.395   5.701  71.602  1.00  0.00    -0.146 A  
BRANCH  20  21
HETATM   21  O   UNL     1      -8.881   7.007  71.488  1.00  0.00    -0.128 OA 
BRANCH  21  22
HETATM   22  C   UNL     1      -9.785   8.001  71.121  1.00  0.00    -0.160 C  
HETATM   23  O   UNL     1     -10.463   8.028  70.103  1.00  0.00    -0.215 OA 
HETATM   24  C   UNL     1      -9.893   9.008  72.227  1.00  0.00     0.047 C  
ENDBRANCH  21  22
ENDBRANCH  20  21
ENDBRANCH  13  15
ENDBRANCH  12  13
ENDBRANCH   9  12
ENDBRANCH   3   6
TORSDOF 6
ENDMDL
MODEL      316
REMARK 921   NORMALIZED FREE ENERGY PREDICTED BY IDOCK:    0.44 KCAL/MOL
REMARK 922        TOTAL FREE ENERGY PREDICTED BY IDOCK:   -0.88 KCAL/MOL
REMARK 923 INTER-LIGAND FREE ENERGY PREDICTED BY IDOCK:   -2.14 KCAL/MOL
REMARK 924 INTRA-LIGAND FREE ENERGY PREDICTED BY IDOCK:    1.26 KCAL/MOL
REMARK 927      BINDING AFFINITY PREDICTED BY RF-SCORE:    0.00 PKD
ROOT
HETATM    1  C   UNL     1      -7.095  11.038  62.352  1.00  0.00     0.018 C  
HETATM    2  C   UNL     1      -7.387  10.354  63.663  1.00  0.00    -0.013 C  
HETATM    3  N   UNL     1      -6.488   9.338  63.947  1.00  0.00    -0.089 N  
HETATM    4  O   UNL     1      -8.333  10.720  64.351  1.00  0.00    -0.088 OA 
HETATM    5  H   UNL     1      -5.751   9.174  63.261  1.00  0.00     0.000 HD 
ENDROOT
BRANCH   3   6
HETATM    6  C   UNL     1      -6.486   8.503  65.090  1.00  0.00    -0.063 A  
HETATM    7  C   UNL     1      -6.675   7.121  65.032  1.00  0.00    -0.047 A  
HETATM    8  C   UNL     1      -6.637   6.337  66.187  1.00  0.00    -0.048 A  
HETATM    9  C   UNL     1      -6.382   6.923  67.422  1.00  0.00    -0.045 A  
HETATM   10  C   UNL     1      -6.278   9.093  66.345  1.00  0.00    -0.065 A  
HETATM   11  C   UNL     1      -6.234   8.309  67.509  1.00  0.00    -0.053 A  
BRANCH   9  12
HETATM   12  O   UNL     1      -6.239   6.197  68.631  1.00  0.00    -0.032 OA 
BRANCH  12  13
HETATM   13  C   UNL     1      -7.122   5.192  69.037  1.00  0.00    -0.057 C  
HETATM   14  O   UNL     1      -6.878   4.002  69.157  1.00  0.00    -0.044 OA 
BRANCH  13  15
HETATM   15  C   UNL     1      -8.445   5.783  69.365  1.00  0.00    -0.112 A  
HETATM   16  C   UNL     1      -9.629   5.079  69.078  1.00  0.00    -0.214 A  
HETATM   17  C   UNL     1     -10.873   5.614  69.424  1.00  0.00    -0.334 A  
HETATM   18  C   UNL     1     -10.954   6.847  70.066  1.00  0.00    -0.320 A  
HETATM   19  C   UNL     1      -9.791   7.549  70.371  1.00  0.00    -0.183 A  
HETATM   20  C   UNL     1      -8.541   7.029  70.000  1.00  0.00    -0.141 A  
BRANCH  20  21
HETATM   21  O   UNL     1      -7.390   7.744  70.388  1.00  0.00    -0.067 OA 
BRANCH  21  22
HETATM   22  C   UNL     1      -6.570   7.135  71.334  1.00  0.00    -0.051 C  
HETATM   23  O   UNL     1      -6.937   6.488  72.306  1.00  0.00    -0.071 OA 
HETATM   24  C   UNL     1      -5.136   7.297  70.928  1.00  0.00    -0.023 C  
ENDBRANCH  21  22
ENDBRANCH  20  21
ENDBRANCH  13  15
ENDBRANCH  12  13
ENDBRANCH   9  12
ENDBRANCH   3   6
TORSDOF 6
ENDMDL
MODEL      317
REMARK 921   NORMALIZED FREE ENERGY PREDICTED BY IDOCK:    0.71 KCAL/MOL
REMARK 922        TOTAL FREE ENERGY PREDICTED BY IDOCK:   -0.51 KCAL/MOL
REMARK 923 INTER-LIGAND FREE ENERGY PREDICTED BY IDOCK:   -1.00 KCAL/MOL
REMARK 924 INTRA-LIGAND FREE ENERGY PREDICTED BY IDOCK:    0.49 KCAL/MOL
REMARK 927      BINDING AFFINITY PREDICTED BY RF-SCORE:    0.00 PKD
ROOT
HETATM    1  C   UNL     1     -11.747   5.019  65.811  1.00  0.00     1.630 C  
HETATM    2  C   UNL     1     -10.984   5.948  66.721  1.00  0.00    -0.197 C  
HETATM    3  N   UNL     1     -11.362   5.824  68.049  1.00  0.00     0.111 N  
HETATM    4  O   UNL     1     -10.131   6.698  66.261  1.00  0.00    -0.041 OA 
HETATM    5  H   UNL     1     -12.088   5.138  68.255  1.00  0.00     0.000 HD 
ENDROOT
BRANCH   3   6
HETATM    6  C   UNL     1     -10.845   6.550  69.148  1.00  0.00    -0.302 A  
HETATM    7  C   UNL     1     -11.078   7.913  69.346  1.00  0.00     0.068 A  
HETATM    8  C   UNL     1     -10.568   8.579  70.462  1.00  0.00    -0.238 A  
HETATM    9  C   UNL     1      -9.836   7.883  71.418  1.00  0.00    -0.168 A  
HETATM   10  C   UNL     1     -10.064   5.866  70.090  1.00  0.00    -0.261 A  
HETATM   11  C   UNL     1      -9.554   6.530  71.217  1.00  0.00    -0.175 A  
BRANCH   9  12
HETATM   12  O   UNL     1      -9.355   8.456  72.622  1.00  0.00    -0.262 OA 
BRANCH  12  13
HETATM   13  C   UNL     1      -8.230   7.985  73.305  1.00  0.00    -0.198 C  
HETATM   14  O   UNL     1      -8.119   7.807  74.507  1.00  0.00    -0.197 OA 
BRANCH  13  15
HETATM   15  C   UNL     1      -7.148   7.668  72.338  1.00  0.00    -0.078 A  
HETATM   16  C   UNL     1      -6.542   6.399  72.339  1.00  0.00    -0.060 A  
HETATM   17  C   UNL     1      -5.552   6.084  71.403  1.00  0.00    -0.022 A  
HETATM   18  C   UNL     1      -5.163   7.022  70.451  1.00  0.00    -0.023 A  
HETATM   19  C   UNL     1      -5.763   8.277  70.426  1.00  0.00    -0.028 A  
HETATM   20  C   UNL     1      -6.736   8.608  71.382  1.00  0.00    -0.076 A  
BRANCH  20  21
HETATM   21  O   UNL     1      -7.362   9.866  71.275  1.00  0.00    -0.223 OA 
BRANCH  21  22
HETATM   22  C   UNL     1      -7.183  10.550  70.076  1.00  0.00    -0.096 C  
HETATM   23  O   UNL     1      -7.774  10.343  69.024  1.00  0.00    -0.096 OA 
HETATM   24  C   UNL     1      -6.213  11.675  70.284  1.00  0.00    -0.068 C  
ENDBRANCH  21  22
ENDBRANCH  20  21
ENDBRANCH  13  15
ENDBRANCH  12  13
ENDBRANCH   9  12
ENDBRANCH   3   6
TORSDOF 6
ENDMDL
MODEL      318
REMARK 921   NORMALIZED FREE ENERGY PREDICTED BY IDOCK:    1.27 KCAL/MOL
REMARK 922        TOTAL FREE ENERGY PREDICTED BY IDOCK:    0.24 KCAL/MOL
REMARK 923 INTER-LIGAND FREE ENERGY PREDICTED BY IDOCK:    1.09 KCAL/MOL
REMARK 924 INTRA-LIGAND FREE ENERGY PREDICTED BY IDOCK:   -0.85 KCAL/MOL
REMARK 927      BINDING AFFINITY PREDICTED BY RF-SCORE:    0.00 PKD
ROOT
HETATM    1  C   UNL     1      -6.100  17.471  69.577  1.00  0.00    -0.252 C  
HETATM    2  C   UNL     1      -6.229  16.037  69.130  1.00  0.00    -0.145 C  
HETATM    3  N   UNL     1      -7.045  15.289  69.964  1.00  0.00    -0.100 N  
HETATM    4  O   UNL     1      -5.649  15.652  68.121  1.00  0.00    -0.103 OA 
HETATM    5  H   UNL     1      -7.457  15.777  70.759  1.00  0.00     0.000 HD 
ENDROOT
BRANCH   3   6
HETATM    6  C   UNL     1      -7.368  13.918  69.827  1.00  0.00     0.413 A  
HETATM    7  C   UNL     1      -6.760  12.907  70.575  1.00  0.00     1.099 A  
HETATM    8  C   UNL     1      -7.132  11.570  70.422  1.00  0.00     1.323 A  
HETATM    9  C   UNL     1      -8.143  11.223  69.533  1.00  0.00     0.397 A  
HETATM   10  C   UNL     1      -8.351  13.554  68.896  1.00  0.00     0.178 A  
HETATM   11  C   UNL     1      -8.733  12.212  68.743  1.00  0.00     0.109 A  
BRANCH   9  12
HETATM   12  O   UNL     1      -8.646   9.907  69.375  1.00  0.00    -0.146 OA 
BRANCH  12  13
HETATM   13  C   UNL     1      -7.910   8.863  68.809  1.00  0.00    -0.101 C  
HETATM   14  O   UNL     1      -6.698   8.807  68.667  1.00  0.00    -0.057 OA 
BRANCH  13  15
HETATM   15  C   UNL     1      -8.820   7.754  68.423  1.00  0.00    -0.130 A  
HETATM   16  C   UNL     1      -9.158   6.755  69.354  1.00  0.00    -0.144 A  
HETATM   17  C   UNL     1     -10.047   5.733  69.007  1.00  0.00    -0.249 A  
HETATM   18  C   UNL     1     -10.617   5.700  67.737  1.00  0.00    -0.274 A  
HETATM   19  C   UNL     1     -10.306   6.691  66.809  1.00  0.00    -0.280 A  
HETATM   20  C   UNL     1      -9.391   7.701  67.143  1.00  0.00    -0.146 A  
BRANCH  20  21
HETATM   21  O   UNL     1      -9.158   8.717  66.195  1.00  0.00    -0.174 OA 
BRANCH  21  22
HETATM   22  C   UNL     1      -8.174   8.464  65.243  1.00  0.00    -0.151 C  
HETATM   23  O   UNL     1      -7.037   8.064  65.459  1.00  0.00    -0.059 OA 
HETATM   24  C   UNL     1      -8.748   8.655  63.871  1.00  0.00     0.078 C  
ENDBRANCH  21  22
ENDBRANCH  20  21
ENDBRANCH  13  15
ENDBRANCH  12  13
ENDBRANCH   9  12
ENDBRANCH   3   6
TORSDOF 6
ENDMDL
MODEL      319
REMARK 921   NORMALIZED FREE ENERGY PREDICTED BY IDOCK:    6.05 KCAL/MOL
REMARK 922        TOTAL FREE ENERGY PREDICTED BY IDOCK:    6.69 KCAL/MOL
REMARK 923 INTER-LIGAND FREE ENERGY PREDICTED BY IDOCK:    6.48 KCAL/MOL
REMARK 924 INTRA-LIGAND FREE ENERGY PREDICTED BY IDOCK:    0.21 KCAL/MOL
REMARK 927      BINDING AFFINITY PREDICTED BY RF-SCORE:    0.00 PKD
ROOT
HETATM    1  C   UNL     1     -12.891  11.102  66.159  1.00  0.00     5.715 C  
HETATM    2  C   UNL     1     -12.267  12.453  66.399  1.00  0.00     0.065 C  
HETATM    3  N   UNL     1     -11.919  12.653  67.725  1.00  0.00    -0.318 N  
HETATM    4  O   UNL     1     -12.111  13.234  65.466  1.00  0.00    -0.384 OA 
HETATM    5  H   UNL     1     -12.115  11.886  68.369  1.00  0.00     0.000 HD 
ENDROOT
BRANCH   3   6
HETATM    6  C   UNL     1     -11.321  13.809  68.280  1.00  0.00    -0.285 A  
HETATM    7  C   UNL     1      -9.939  13.989  68.375  1.00  0.00    -0.236 A  
HETATM    8  C   UNL     1      -9.397  15.161  68.906  1.00  0.00    -0.207 A  
HETATM    9  C   UNL     1     -10.233  16.189  69.327  1.00  0.00    -0.257 A  
HETATM   10  C   UNL     1     -12.157  14.830  68.753  1.00  0.00    -0.225 A  
HETATM   11  C   UNL     1     -11.617  16.013  69.282  1.00  0.00    -0.331 A  
BRANCH   9  12
HETATM   12  O   UNL     1      -9.772  17.445  69.797  1.00  0.00     0.307 OA 
BRANCH  12  13
HETATM   13  C   UNL     1      -9.222  18.425  68.967  1.00  0.00    -0.075 C  
HETATM   14  O   UNL     1      -8.592  19.413  69.310  1.00  0.00    -0.228 OA 
BRANCH  13  15
HETATM   15  C   UNL     1      -9.467  18.077  67.543  1.00  0.00    -0.262 A  
HETATM   16  C   UNL     1     -10.725  18.316  66.960  1.00  0.00    -0.305 A  
HETATM   17  C   UNL     1     -10.947  18.029  65.610  1.00  0.00     0.254 A  
HETATM   18  C   UNL     1      -9.920  17.513  64.824  1.00  0.00     2.659 A  
HETATM   19  C   UNL     1      -8.665  17.285  65.382  1.00  0.00     1.340 A  
HETATM   20  C   UNL     1      -8.446  17.545  66.744  1.00  0.00    -0.250 A  
BRANCH  20  21
HETATM   21  O   UNL     1      -7.143  17.362  67.247  1.00  0.00    -0.157 OA 
BRANCH  21  22
HETATM   22  C   UNL     1      -6.665  16.054  67.273  1.00  0.00    -0.197 C  
HETATM   23  O   UNL     1      -7.230  15.063  66.829  1.00  0.00    -0.001 OA 
HETATM   24  C   UNL     1      -5.277  16.042  67.841  1.00  0.00    -0.138 C  
ENDBRANCH  21  22
ENDBRANCH  20  21
ENDBRANCH  13  15
ENDBRANCH  12  13
ENDBRANCH   9  12
ENDBRANCH   3   6
TORSDOF 6
ENDMDL
MODEL      320
REMARK 921   NORMALIZED FREE ENERGY PREDICTED BY IDOCK:    7.16 KCAL/MOL
REMARK 922        TOTAL FREE ENERGY PREDICTED BY IDOCK:    8.20 KCAL/MOL
REMARK 923 INTER-LIGAND FREE ENERGY PREDICTED BY IDOCK:    6.25 KCAL/MOL
REMARK 924 INTRA-LIGAND FREE ENERGY PREDICTED BY IDOCK:    1.95 KCAL/MOL
REMARK 927      BINDING AFFINITY PREDICTED BY RF-SCORE:    0.00 PKD
ROOT
HETATM    1  C   UNL     1     -12.309  17.266  65.469  1.00  0.00     5.207 C  
HETATM    2  C   UNL     1     -11.395  16.086  65.680  1.00  0.00     0.194 C  
HETATM    3  N   UNL     1     -10.422  16.328  66.637  1.00  0.00    -0.302 N  
HETATM    4  O   UNL     1     -11.564  15.054  65.040  1.00  0.00    -0.366 OA 
HETATM    5  H   UNL     1     -10.435  17.247  67.080  1.00  0.00     0.000 HD 
ENDROOT
BRANCH   3   6
HETATM    6  C   UNL     1      -9.412  15.433  67.064  1.00  0.00    -0.220 A  
HETATM    7  C   UNL     1      -9.293  14.980  68.380  1.00  0.00    -0.193 A  
HETATM    8  C   UNL     1      -8.295  14.075  68.746  1.00  0.00    -0.048 A  
HETATM    9  C   UNL     1      -7.411  13.585  67.791  1.00  0.00    -0.163 A  
HETATM   10  C   UNL     1      -8.486  14.972  66.117  1.00  0.00     0.407 A  
HETATM   11  C   UNL     1      -7.484  14.058  66.479  1.00  0.00     1.642 A  
BRANCH   9  12
HETATM   12  O   UNL     1      -6.424  12.601  68.052  1.00  0.00    -0.071 OA 
BRANCH  12  13
HETATM   13  C   UNL     1      -6.352  11.382  67.373  1.00  0.00    -0.082 C  
HETATM   14  O   UNL     1      -5.439  10.984  66.667  1.00  0.00    -0.067 OA 
BRANCH  13  15
HETATM   15  C   UNL     1      -7.560  10.568  67.666  1.00  0.00    -0.093 A  
HETATM   16  C   UNL     1      -7.766  10.040  68.954  1.00  0.00    -0.089 A  
HETATM   17  C   UNL     1      -8.922   9.309  69.245  1.00  0.00    -0.147 A  
HETATM   18  C   UNL     1      -9.888   9.104  68.263  1.00  0.00    -0.181 A  
HETATM   19  C   UNL     1      -9.706   9.632  66.988  1.00  0.00    -0.232 A  
HETATM   20  C   UNL     1      -8.534  10.342  66.684  1.00  0.00    -0.124 A  
BRANCH  20  21
HETATM   21  O   UNL     1      -8.425  10.913  65.400  1.00  0.00    -0.163 OA 
BRANCH  21  22
HETATM   22  C   UNL     1      -7.211  10.736  64.742  1.00  0.00     0.285 C  
HETATM   23  O   UNL     1      -6.315  11.563  64.632  1.00  0.00     1.153 OA 
HETATM   24  C   UNL     1      -7.106   9.318  64.265  1.00  0.00    -0.098 C  
ENDBRANCH  21  22
ENDBRANCH  20  21
ENDBRANCH  13  15
ENDBRANCH  12  13
ENDBRANCH   9  12
ENDBRANCH   3   6
TORSDOF 6
ENDMDL
MODEL      321
REMARK 921   NORMALIZED FREE ENERGY PREDICTED BY IDOCK:   26.83 KCAL/MOL
REMARK 922        TOTAL FREE ENERGY PREDICTED BY IDOCK:   34.76 KCAL/MOL
REMARK 923 INTER-LIGAND FREE ENERGY PREDICTED BY IDOCK:   31.75 KCAL/MOL
REMARK 924 INTRA-LIGAND FREE ENERGY PREDICTED BY IDOCK:    3.01 KCAL/MOL
REMARK 927      BINDING AFFINITY PREDICTED BY RF-SCORE:    0.00 PKD
ROOT
HETATM    1  C   UNL     1      -6.847  14.242  64.310  1.00  0.00    22.273 C  
HETATM    2  C   UNL     1      -7.292  13.090  65.175  1.00  0.00     7.526 C  
HETATM    3  N   UNL     1      -7.004  11.857  64.612  1.00  0.00     2.751 N  
HETATM    4  O   UNL     1      -7.835  13.304  66.253  1.00  0.00     0.972 OA 
HETATM    5  H   UNL     1      -6.536  11.866  63.706  1.00  0.00     0.000 HD 
ENDROOT
BRANCH   3   6
HETATM    6  C   UNL     1      -7.293  10.586  65.163  1.00  0.00    -0.029 A  
HETATM    7  C   UNL     1      -8.578  10.183  65.534  1.00  0.00    -0.162 A  
HETATM    8  C   UNL     1      -8.815   8.907  66.049  1.00  0.00    -0.206 A  
HETATM    9  C   UNL     1      -7.769   7.999  66.177  1.00  0.00    -0.087 A  
HETATM   10  C   UNL     1      -6.236   9.682  65.342  1.00  0.00    -0.071 A  
HETATM   11  C   UNL     1      -6.470   8.396  65.854  1.00  0.00    -0.053 A  
BRANCH   9  12
HETATM   12  O   UNL     1      -7.930   6.658  66.607  1.00  0.00    -0.102 OA 
BRANCH  12  13
HETATM   13  C   UNL     1      -6.904   5.904  67.183  1.00  0.00    -0.063 C  
HETATM   14  O   UNL     1      -5.803   6.301  67.528  1.00  0.00    -0.015 OA 
BRANCH  13  15
HETATM   15  C   UNL     1      -7.355   4.501  67.376  1.00  0.00    -0.073 A  
HETATM   16  C   UNL     1      -6.721   3.450  66.690  1.00  0.00    -0.049 A  
HETATM   17  C   UNL     1      -7.115   2.125  66.902  1.00  0.00    -0.048 A  
HETATM   18  C   UNL     1      -8.134   1.831  67.804  1.00  0.00    -0.064 A  
HETATM   19  C   UNL     1      -8.761   2.859  68.502  1.00  0.00    -0.138 A  
HETATM   20  C   UNL     1      -8.389   4.192  68.272  1.00  0.00    -0.092 A  
BRANCH  20  21
HETATM   21  O   UNL     1      -9.006   5.192  69.050  1.00  0.00    -0.098 OA 
BRANCH  21  22
HETATM   22  C   UNL     1      -9.603   6.241  68.354  1.00  0.00    -0.121 C  
HETATM   23  O   UNL     1     -10.262   6.151  67.327  1.00  0.00    -0.148 OA 
HETATM   24  C   UNL     1      -9.411   7.517  69.118  1.00  0.00    -0.150 C  
ENDBRANCH  21  22
ENDBRANCH  20  21
ENDBRANCH  13  15
ENDBRANCH  12  13
ENDBRANCH   9  12
ENDBRANCH   3   6
TORSDOF 6
ENDMDL
