MODEL        1
REMARK 921   NORMALIZED FREE ENERGY PREDICTED BY IDOCK:   -7.87 KCAL/MOL
REMARK 922        TOTAL FREE ENERGY PREDICTED BY IDOCK:  -11.94 KCAL/MOL
REMARK 923 INTER-LIGAND FREE ENERGY PREDICTED BY IDOCK:  -10.63 KCAL/MOL
REMARK 924 INTRA-LIGAND FREE ENERGY PREDICTED BY IDOCK:   -1.31 KCAL/MOL
REMARK 927      BINDING AFFINITY PREDICTED BY RF-SCORE:    0.00 PKD
ROOT
HETATM    1  O   UNL     1     -11.571  16.314  63.671  1.00  0.00    -1.424 OA 
HETATM    2  C   UNL     1     -11.142  16.782  64.822  1.00  0.00    -0.016 A  
HETATM    3  H   UNL     1     -11.757  15.392  63.539  1.00  0.00     0.000 HD 
HETATM    4  N   UNL     1     -10.887  18.047  65.004  1.00  0.00    -0.583 NA 
HETATM    5  C   UNL     1     -10.425  18.115  66.294  1.00  0.00    -0.361 A  
HETATM    6  C   UNL     1      -9.945  19.226  66.999  1.00  0.00    -0.447 A  
HETATM    7  C   UNL     1      -9.512  19.049  68.319  1.00  0.00    -0.401 A  
HETATM    8  C   UNL     1      -9.583  17.801  68.932  1.00  0.00    -0.223 A  
HETATM    9  C   UNL     1     -10.065  16.679  68.249  1.00  0.00    -0.268 A  
HETATM   10  C   UNL     1     -10.448  16.863  66.915  1.00  0.00    -0.271 A  
HETATM   11  N   UNL     1     -10.852  16.012  65.916  1.00  0.00    -0.257 NA 
ENDROOT
BRANCH  11  12
HETATM   12  C   UNL     1     -10.790  14.567  65.877  1.00  0.00    -0.308 C  
HETATM   13  C   UNL     1     -11.873  13.856  66.683  1.00  0.00    -0.447 C  
HETATM   14  C   UNL     1     -11.824  12.376  66.296  1.00  0.00    -0.364 C  
HETATM   15  N   UNL     1     -10.509  11.751  66.531  1.00  0.00    -0.223 NA 
HETATM   16  C   UNL     1      -9.417  12.498  65.887  1.00  0.00    -0.107 C  
HETATM   17  C   UNL     1      -9.416  13.986  66.227  1.00  0.00    -0.249 C  
BRANCH  15  18
HETATM   18  C   UNL     1     -10.229  11.479  67.948  1.00  0.00    -0.184 C  
BRANCH  18  19
HETATM   19  C   UNL     1     -11.207  10.476  68.565  1.00  0.00    -0.332 C  
BRANCH  19  20
HETATM   20  C   UNL     1     -11.103  10.438  70.091  1.00  0.00    -0.383 C  
BRANCH  20  21
HETATM   21  C   UNL     1     -12.379  10.914  70.748  1.00  0.00    -0.390 C  
HETATM   22  O   UNL     1     -13.332  10.172  70.975  1.00  0.00    -0.387 OA 
BRANCH  21  23
HETATM   23  C   UNL     1     -12.486  12.357  71.093  1.00  0.00    -0.323 A  
HETATM   24  C   UNL     1     -13.170  12.701  72.268  1.00  0.00    -0.465 A  
HETATM   25  C   UNL     1     -13.323  14.041  72.620  1.00  0.00    -0.643 A  
HETATM   26  C   UNL     1     -12.782  15.029  71.808  1.00  0.00    -0.339 A  
HETATM   27  C   UNL     1     -12.088  14.702  70.648  1.00  0.00    -0.385 A  
HETATM   28  F   UNL     1     -12.931  16.316  72.146  1.00  0.00    -0.473 F  
HETATM   29  C   UNL     1     -11.937  13.362  70.285  1.00  0.00    -0.378 A  
ENDBRANCH  21  23
ENDBRANCH  20  21
ENDBRANCH  19  20
ENDBRANCH  18  19
ENDBRANCH  15  18
ENDBRANCH  11  12
TORSDOF 6
ENDMDL
MODEL        2
REMARK 921   NORMALIZED FREE ENERGY PREDICTED BY IDOCK:   -7.45 KCAL/MOL
REMARK 922        TOTAL FREE ENERGY PREDICTED BY IDOCK:  -11.37 KCAL/MOL
REMARK 923 INTER-LIGAND FREE ENERGY PREDICTED BY IDOCK:  -10.22 KCAL/MOL
REMARK 924 INTRA-LIGAND FREE ENERGY PREDICTED BY IDOCK:   -1.15 KCAL/MOL
REMARK 927      BINDING AFFINITY PREDICTED BY RF-SCORE:    0.00 PKD
ROOT
HETATM    1  O   UNL     1     -12.031   9.828  70.879  1.00  0.00    -0.292 OA 
HETATM    2  C   UNL     1     -12.319  11.099  71.047  1.00  0.00    -0.382 A  
HETATM    3  H   UNL     1     -11.408   9.534  70.225  1.00  0.00     0.000 HD 
HETATM    4  N   UNL     1     -13.172  11.502  71.946  1.00  0.00    -0.456 NA 
HETATM    5  C   UNL     1     -13.228  12.862  71.771  1.00  0.00    -0.384 A  
HETATM    6  C   UNL     1     -14.033  13.802  72.427  1.00  0.00    -0.651 A  
HETATM    7  C   UNL     1     -13.922  15.150  72.068  1.00  0.00    -0.629 A  
HETATM    8  C   UNL     1     -13.009  15.558  71.099  1.00  0.00    -0.560 A  
HETATM    9  C   UNL     1     -12.191  14.637  70.435  1.00  0.00    -0.391 A  
HETATM   10  C   UNL     1     -12.349  13.288  70.771  1.00  0.00    -0.344 A  
HETATM   11  N   UNL     1     -11.827  12.118  70.277  1.00  0.00    -0.304 NA 
ENDROOT
BRANCH  11  12
HETATM   12  C   UNL     1     -11.085  11.902  69.054  1.00  0.00    -0.246 C  
HETATM   13  C   UNL     1     -10.697  13.174  68.305  1.00  0.00    -0.261 C  
HETATM   14  C   UNL     1      -9.695  12.770  67.222  1.00  0.00    -0.206 C  
HETATM   15  N   UNL     1     -10.216  11.757  66.286  1.00  0.00    -0.215 NA 
HETATM   16  C   UNL     1     -10.737  10.572  66.985  1.00  0.00    -0.250 C  
HETATM   17  C   UNL     1     -11.739  10.909  68.087  1.00  0.00    -0.231 C  
BRANCH  15  18
HETATM   18  C   UNL     1     -11.182  12.291  65.315  1.00  0.00    -0.328 C  
BRANCH  18  19
HETATM   19  C   UNL     1     -10.716  13.599  64.670  1.00  0.00    -0.433 C  
BRANCH  19  20
HETATM   20  C   UNL     1     -11.748  14.716  64.829  1.00  0.00    -0.429 C  
BRANCH  20  21
HETATM   21  C   UNL     1     -11.088  16.072  64.946  1.00  0.00    -0.370 C  
HETATM   22  O   UNL     1     -11.211  16.952  64.096  1.00  0.00    -1.176 OA 
BRANCH  21  23
HETATM   23  C   UNL     1     -10.222  16.323  66.129  1.00  0.00    -0.361 A  
HETATM   24  C   UNL     1     -10.840  16.737  67.317  1.00  0.00    -0.137 A  
HETATM   25  C   UNL     1     -10.069  17.014  68.445  1.00  0.00    -0.302 A  
HETATM   26  C   UNL     1      -8.689  16.862  68.387  1.00  0.00    -0.244 A  
HETATM   27  C   UNL     1      -8.065  16.438  67.219  1.00  0.00    -0.198 A  
HETATM   28  F   UNL     1      -7.950  17.130  69.470  1.00  0.00    -0.077 F  
HETATM   29  C   UNL     1      -8.830  16.167  66.082  1.00  0.00    -0.367 A  
ENDBRANCH  21  23
ENDBRANCH  20  21
ENDBRANCH  19  20
ENDBRANCH  18  19
ENDBRANCH  15  18
ENDBRANCH  11  12
TORSDOF 6
ENDMDL
MODEL        3
REMARK 921   NORMALIZED FREE ENERGY PREDICTED BY IDOCK:   -7.32 KCAL/MOL
REMARK 922        TOTAL FREE ENERGY PREDICTED BY IDOCK:  -11.19 KCAL/MOL
REMARK 923 INTER-LIGAND FREE ENERGY PREDICTED BY IDOCK:  -10.37 KCAL/MOL
REMARK 924 INTRA-LIGAND FREE ENERGY PREDICTED BY IDOCK:   -0.82 KCAL/MOL
REMARK 927      BINDING AFFINITY PREDICTED BY RF-SCORE:    0.00 PKD
ROOT
HETATM    1  O   UNL     1     -11.692  10.082  69.702  1.00  0.00    -0.425 OA 
HETATM    2  C   UNL     1     -12.057  11.250  70.181  1.00  0.00    -0.366 A  
HETATM    3  H   UNL     1     -11.105  10.003  68.960  1.00  0.00     0.000 HD 
HETATM    4  N   UNL     1     -12.863  11.360  71.199  1.00  0.00    -0.371 NA 
HETATM    5  C   UNL     1     -13.030  12.713  71.352  1.00  0.00    -0.258 A  
HETATM    6  C   UNL     1     -13.846  13.402  72.258  1.00  0.00    -0.671 A  
HETATM    7  C   UNL     1     -13.862  14.802  72.220  1.00  0.00    -0.590 A  
HETATM    8  C   UNL     1     -13.062  15.500  71.319  1.00  0.00    -0.581 A  
HETATM    9  C   UNL     1     -12.235  14.832  70.409  1.00  0.00    -0.395 A  
HETATM   10  C   UNL     1     -12.267  13.433  70.428  1.00  0.00    -0.345 A  
HETATM   11  N   UNL     1     -11.704  12.458  69.642  1.00  0.00    -0.313 NA 
ENDROOT
BRANCH  11  12
HETATM   12  C   UNL     1     -11.048  12.595  68.360  1.00  0.00    -0.265 C  
HETATM   13  C   UNL     1      -9.931  13.633  68.317  1.00  0.00    -0.236 C  
HETATM   14  C   UNL     1      -9.183  13.435  66.997  1.00  0.00    -0.242 C  
HETATM   15  N   UNL     1     -10.047  13.554  65.807  1.00  0.00    -0.293 NA 
HETATM   16  C   UNL     1     -11.219  12.668  65.883  1.00  0.00    -0.314 C  
HETATM   17  C   UNL     1     -12.006  12.812  67.183  1.00  0.00    -0.351 C  
BRANCH  15  18
HETATM   18  C   UNL     1     -10.423  14.938  65.486  1.00  0.00    -0.360 C  
BRANCH  18  19
HETATM   19  C   UNL     1      -9.408  15.964  65.998  1.00  0.00    -0.385 C  
BRANCH  19  20
HETATM   20  C   UNL     1     -10.041  16.964  66.965  1.00  0.00    -0.289 C  
BRANCH  20  21
HETATM   21  C   UNL     1      -9.763  18.392  66.552  1.00  0.00    -0.348 C  
HETATM   22  O   UNL     1     -10.391  18.967  65.666  1.00  0.00    -0.531 OA 
BRANCH  21  23
HETATM   23  C   UNL     1      -8.649  19.107  67.230  1.00  0.00    -0.306 A  
HETATM   24  C   UNL     1      -8.037  20.167  66.546  1.00  0.00    -0.315 A  
HETATM   25  C   UNL     1      -6.969  20.849  67.128  1.00  0.00    -0.426 A  
HETATM   26  C   UNL     1      -6.527  20.481  68.392  1.00  0.00    -0.289 A  
HETATM   27  C   UNL     1      -7.134  19.442  69.088  1.00  0.00    -0.384 A  
HETATM   28  F   UNL     1      -5.501  21.135  68.948  1.00  0.00    -0.335 F  
HETATM   29  C   UNL     1      -8.200  18.748  68.508  1.00  0.00    -0.379 A  
ENDBRANCH  21  23
ENDBRANCH  20  21
ENDBRANCH  19  20
ENDBRANCH  18  19
ENDBRANCH  15  18
ENDBRANCH  11  12
TORSDOF 6
ENDMDL
MODEL        4
REMARK 921   NORMALIZED FREE ENERGY PREDICTED BY IDOCK:   -7.19 KCAL/MOL
REMARK 922        TOTAL FREE ENERGY PREDICTED BY IDOCK:  -11.01 KCAL/MOL
REMARK 923 INTER-LIGAND FREE ENERGY PREDICTED BY IDOCK:  -10.43 KCAL/MOL
REMARK 924 INTRA-LIGAND FREE ENERGY PREDICTED BY IDOCK:   -0.59 KCAL/MOL
REMARK 927      BINDING AFFINITY PREDICTED BY RF-SCORE:    0.00 PKD
ROOT
HETATM    1  O   UNL     1     -11.986  15.767  63.714  1.00  0.00    -1.108 OA 
HETATM    2  C   UNL     1     -11.367  16.348  64.717  1.00  0.00    -0.150 A  
HETATM    3  H   UNL     1     -12.186  14.839  63.715  1.00  0.00     0.000 HD 
HETATM    4  N   UNL     1     -11.092  17.622  64.717  1.00  0.00    -0.717 NA 
HETATM    5  C   UNL     1     -10.414  17.820  65.893  1.00  0.00    -0.251 A  
HETATM    6  C   UNL     1      -9.825  18.993  66.382  1.00  0.00    -0.422 A  
HETATM    7  C   UNL     1      -9.168  18.952  67.618  1.00  0.00    -0.318 A  
HETATM    8  C   UNL     1      -9.124  17.776  68.363  1.00  0.00    -0.278 A  
HETATM    9  C   UNL     1      -9.710  16.595  67.896  1.00  0.00    -0.244 A  
HETATM   10  C   UNL     1     -10.320  16.641  66.637  1.00  0.00    -0.296 A  
HETATM   11  N   UNL     1     -10.886  15.694  65.819  1.00  0.00    -0.324 NA 
ENDROOT
BRANCH  11  12
HETATM   12  C   UNL     1     -10.823  14.253  65.924  1.00  0.00    -0.300 C  
HETATM   13  C   UNL     1     -11.983  13.612  66.680  1.00  0.00    -0.458 C  
HETATM   14  C   UNL     1     -11.896  12.103  66.442  1.00  0.00    -0.246 C  
HETATM   15  N   UNL     1     -10.613  11.513  66.866  1.00  0.00    -0.235 NA 
HETATM   16  C   UNL     1      -9.461  12.205  66.269  1.00  0.00    -0.232 C  
HETATM   17  C   UNL     1      -9.492  13.719  66.464  1.00  0.00    -0.282 C  
BRANCH  15  18
HETATM   18  C   UNL     1     -10.478  11.379  68.324  1.00  0.00    -0.198 C  
BRANCH  18  19
HETATM   19  C   UNL     1     -11.822  11.178  69.029  1.00  0.00    -0.418 C  
BRANCH  19  20
HETATM   20  C   UNL     1     -11.921  11.994  70.318  1.00  0.00    -0.398 C  
BRANCH  20  21
HETATM   21  C   UNL     1     -12.754  11.287  71.364  1.00  0.00    -0.396 C  
HETATM   22  O   UNL     1     -13.536  11.875  72.107  1.00  0.00    -0.458 OA 
BRANCH  21  23
HETATM   23  C   UNL     1     -12.578   9.817  71.514  1.00  0.00    -0.493 A  
HETATM   24  C   UNL     1     -11.273   9.325  71.656  1.00  0.00    -0.449 A  
HETATM   25  C   UNL     1     -11.053   7.953  71.770  1.00  0.00    -0.299 A  
HETATM   26  C   UNL     1     -12.135   7.081  71.756  1.00  0.00    -0.336 A  
HETATM   27  C   UNL     1     -13.436   7.557  71.630  1.00  0.00    -0.429 A  
HETATM   28  F   UNL     1     -11.923   5.765  71.864  1.00  0.00    -0.299 F  
HETATM   29  C   UNL     1     -13.663   8.930  71.508  1.00  0.00    -0.394 A  
ENDBRANCH  21  23
ENDBRANCH  20  21
ENDBRANCH  19  20
ENDBRANCH  18  19
ENDBRANCH  15  18
ENDBRANCH  11  12
TORSDOF 6
ENDMDL
MODEL        5
REMARK 921   NORMALIZED FREE ENERGY PREDICTED BY IDOCK:   -7.11 KCAL/MOL
REMARK 922        TOTAL FREE ENERGY PREDICTED BY IDOCK:  -10.91 KCAL/MOL
REMARK 923 INTER-LIGAND FREE ENERGY PREDICTED BY IDOCK:   -9.18 KCAL/MOL
REMARK 924 INTRA-LIGAND FREE ENERGY PREDICTED BY IDOCK:   -1.73 KCAL/MOL
REMARK 927      BINDING AFFINITY PREDICTED BY RF-SCORE:    0.00 PKD
ROOT
HETATM    1  O   UNL     1      -7.676   8.735  70.019  1.00  0.00    -0.073 OA 
HETATM    2  C   UNL     1      -8.900   8.922  70.459  1.00  0.00    -0.192 A  
HETATM    3  H   UNL     1      -7.341   9.184  69.252  1.00  0.00     0.000 HD 
HETATM    4  N   UNL     1      -9.359   8.307  71.512  1.00  0.00    -0.164 NA 
HETATM    5  C   UNL     1     -10.661   8.728  71.606  1.00  0.00    -0.327 A  
HETATM    6  C   UNL     1     -11.649   8.337  72.520  1.00  0.00    -0.454 A  
HETATM    7  C   UNL     1     -12.926   8.901  72.413  1.00  0.00    -0.467 A  
HETATM    8  C   UNL     1     -13.205   9.854  71.437  1.00  0.00    -0.487 A  
HETATM    9  C   UNL     1     -12.233  10.264  70.519  1.00  0.00    -0.390 A  
HETATM   10  C   UNL     1     -10.976   9.655  70.608  1.00  0.00    -0.320 A  
HETATM   11  N   UNL     1      -9.837   9.707  69.843  1.00  0.00    -0.224 NA 
ENDROOT
BRANCH  11  12
HETATM   12  C   UNL     1      -9.659  10.270  68.522  1.00  0.00    -0.161 C  
HETATM   13  C   UNL     1      -9.688  11.794  68.464  1.00  0.00    -0.181 C  
HETATM   14  C   UNL     1      -9.206  12.200  67.070  1.00  0.00    -0.202 C  
HETATM   15  N   UNL     1     -10.011  11.625  65.977  1.00  0.00    -0.220 NA 
HETATM   16  C   UNL     1     -10.129  10.163  66.086  1.00  0.00    -0.246 C  
HETATM   17  C   UNL     1     -10.599   9.691  67.459  1.00  0.00    -0.339 C  
BRANCH  15  18
HETATM   18  C   UNL     1     -11.321  12.270  65.807  1.00  0.00    -0.355 C  
BRANCH  18  19
HETATM   19  C   UNL     1     -11.266  13.788  66.002  1.00  0.00    -0.307 C  
BRANCH  19  20
HETATM   20  C   UNL     1     -12.138  14.248  67.170  1.00  0.00    -0.412 C  
BRANCH  20  21
HETATM   21  C   UNL     1     -11.368  15.131  68.127  1.00  0.00    -0.335 C  
HETATM   22  O   UNL     1     -10.457  15.873  67.767  1.00  0.00    -0.272 OA 
BRANCH  21  23
HETATM   23  C   UNL     1     -11.714  15.056  69.572  1.00  0.00    -0.350 A  
HETATM   24  C   UNL     1     -12.386  13.913  70.027  1.00  0.00    -0.378 A  
HETATM   25  C   UNL     1     -12.759  13.809  71.366  1.00  0.00    -0.450 A  
HETATM   26  C   UNL     1     -12.446  14.837  72.247  1.00  0.00    -0.327 A  
HETATM   27  C   UNL     1     -11.766  15.969  71.812  1.00  0.00    -0.593 A  
HETATM   28  F   UNL     1     -12.806  14.737  73.532  1.00  0.00    -0.537 F  
HETATM   29  C   UNL     1     -11.397  16.084  70.470  1.00  0.00    -0.420 A  
ENDBRANCH  21  23
ENDBRANCH  20  21
ENDBRANCH  19  20
ENDBRANCH  18  19
ENDBRANCH  15  18
ENDBRANCH  11  12
TORSDOF 6
ENDMDL
MODEL        6
REMARK 921   NORMALIZED FREE ENERGY PREDICTED BY IDOCK:   -7.07 KCAL/MOL
REMARK 922        TOTAL FREE ENERGY PREDICTED BY IDOCK:  -10.86 KCAL/MOL
REMARK 923 INTER-LIGAND FREE ENERGY PREDICTED BY IDOCK:   -9.47 KCAL/MOL
REMARK 924 INTRA-LIGAND FREE ENERGY PREDICTED BY IDOCK:   -1.39 KCAL/MOL
REMARK 927      BINDING AFFINITY PREDICTED BY RF-SCORE:    0.00 PKD
ROOT
HETATM    1  O   UNL     1      -9.258   9.595  63.580  1.00  0.00    -0.368 OA 
HETATM    2  C   UNL     1     -10.002  10.569  64.053  1.00  0.00    -0.297 A  
HETATM    3  H   UNL     1      -8.909   8.910  64.138  1.00  0.00     0.000 HD 
HETATM    4  N   UNL     1     -10.483  11.508  63.287  1.00  0.00    -0.375 NA 
HETATM    5  C   UNL     1     -11.147  12.341  64.152  1.00  0.00    -0.366 A  
HETATM    6  C   UNL     1     -11.802  13.549  63.881  1.00  0.00    -0.460 A  
HETATM    7  C   UNL     1     -12.407  14.238  64.939  1.00  0.00    -0.435 A  
HETATM    8  C   UNL     1     -12.385  13.721  66.232  1.00  0.00    -0.479 A  
HETATM    9  C   UNL     1     -11.741  12.514  66.524  1.00  0.00    -0.454 A  
HETATM   10  C   UNL     1     -11.100  11.862  65.464  1.00  0.00    -0.304 A  
HETATM   11  N   UNL     1     -10.296  10.752  65.377  1.00  0.00    -0.266 NA 
ENDROOT
BRANCH  11  12
HETATM   12  C   UNL     1      -9.659  10.010  66.442  1.00  0.00    -0.196 C  
HETATM   13  C   UNL     1     -10.593   9.111  67.247  1.00  0.00    -0.303 C  
HETATM   14  C   UNL     1      -9.712   8.211  68.117  1.00  0.00    -0.161 C  
HETATM   15  N   UNL     1      -8.812   8.959  69.014  1.00  0.00    -0.135 NA 
HETATM   16  C   UNL     1      -7.997   9.944  68.287  1.00  0.00    -0.100 C  
HETATM   17  C   UNL     1      -8.818  10.870  67.392  1.00  0.00    -0.133 C  
BRANCH  15  18
HETATM   18  C   UNL     1      -9.494   9.556  70.171  1.00  0.00    -0.246 C  
BRANCH  18  19
HETATM   19  C   UNL     1     -10.741   8.775  70.594  1.00  0.00    -0.267 C  
BRANCH  19  20
HETATM   20  C   UNL     1     -11.442   9.418  71.792  1.00  0.00    -0.413 C  
BRANCH  20  21
HETATM   21  C   UNL     1     -12.764  10.037  71.398  1.00  0.00    -0.415 C  
HETATM   22  O   UNL     1     -13.766   9.372  71.144  1.00  0.00    -0.304 OA 
BRANCH  21  23
HETATM   23  C   UNL     1     -12.829  11.518  71.278  1.00  0.00    -0.463 A  
HETATM   24  C   UNL     1     -12.126  12.122  70.226  1.00  0.00    -0.385 A  
HETATM   25  C   UNL     1     -12.132  13.509  70.087  1.00  0.00    -0.425 A  
HETATM   26  C   UNL     1     -12.848  14.285  70.989  1.00  0.00    -0.357 A  
HETATM   27  C   UNL     1     -13.562  13.699  72.028  1.00  0.00    -0.585 A  
HETATM   28  F   UNL     1     -12.852  15.617  70.857  1.00  0.00    -0.432 F  
HETATM   29  C   UNL     1     -13.555  12.310  72.178  1.00  0.00    -0.348 A  
ENDBRANCH  21  23
ENDBRANCH  20  21
ENDBRANCH  19  20
ENDBRANCH  18  19
ENDBRANCH  15  18
ENDBRANCH  11  12
TORSDOF 6
ENDMDL
MODEL        7
REMARK 921   NORMALIZED FREE ENERGY PREDICTED BY IDOCK:   -7.05 KCAL/MOL
REMARK 922        TOTAL FREE ENERGY PREDICTED BY IDOCK:  -10.83 KCAL/MOL
REMARK 923 INTER-LIGAND FREE ENERGY PREDICTED BY IDOCK:   -9.15 KCAL/MOL
REMARK 924 INTRA-LIGAND FREE ENERGY PREDICTED BY IDOCK:   -1.68 KCAL/MOL
REMARK 927      BINDING AFFINITY PREDICTED BY RF-SCORE:    0.00 PKD
ROOT
HETATM    1  O   UNL     1     -10.196  10.604  62.621  1.00  0.00    -0.751 OA 
HETATM    2  C   UNL     1     -10.651  11.315  63.628  1.00  0.00    -0.388 A  
HETATM    3  H   UNL     1      -9.758   9.771  62.750  1.00  0.00     0.000 HD 
HETATM    4  N   UNL     1     -11.252  12.458  63.452  1.00  0.00    -0.456 NA 
HETATM    5  C   UNL     1     -11.523  12.896  64.724  1.00  0.00    -0.321 A  
HETATM    6  C   UNL     1     -12.106  14.102  65.135  1.00  0.00    -0.416 A  
HETATM    7  C   UNL     1     -12.273  14.335  66.504  1.00  0.00    -0.419 A  
HETATM    8  C   UNL     1     -11.896  13.378  67.443  1.00  0.00    -0.418 A  
HETATM    9  C   UNL     1     -11.317  12.165  67.055  1.00  0.00    -0.398 A  
HETATM   10  C   UNL     1     -11.112  11.967  65.685  1.00  0.00    -0.313 A  
HETATM   11  N   UNL     1     -10.491  10.989  64.948  1.00  0.00    -0.314 NA 
ENDROOT
BRANCH  11  12
HETATM   12  C   UNL     1      -9.628   9.923  65.404  1.00  0.00    -0.285 C  
HETATM   13  C   UNL     1     -10.283   8.929  66.359  1.00  0.00    -0.273 C  
HETATM   14  C   UNL     1      -9.327   7.743  66.500  1.00  0.00    -0.189 C  
HETATM   15  N   UNL     1      -7.987   8.121  66.985  1.00  0.00    -0.103 NA 
HETATM   16  C   UNL     1      -7.383   9.187  66.170  1.00  0.00    -0.095 C  
HETATM   17  C   UNL     1      -8.292  10.399  65.984  1.00  0.00    -0.149 C  
BRANCH  15  18
HETATM   18  C   UNL     1      -7.945   8.436  68.420  1.00  0.00    -0.118 C  
BRANCH  18  19
HETATM   19  C   UNL     1      -8.283   7.232  69.303  1.00  0.00    -0.131 C  
BRANCH  19  20
HETATM   20  C   UNL     1      -9.084   7.636  70.541  1.00  0.00    -0.151 C  
BRANCH  20  21
HETATM   21  C   UNL     1     -10.574   7.539  70.298  1.00  0.00    -0.229 C  
HETATM   22  O   UNL     1     -11.099   6.585  69.729  1.00  0.00    -0.301 OA 
BRANCH  21  23
HETATM   23  C   UNL     1     -11.425   8.677  70.738  1.00  0.00    -0.293 A  
HETATM   24  C   UNL     1     -11.217   9.923  70.131  1.00  0.00    -0.347 A  
HETATM   25  C   UNL     1     -11.969  11.028  70.529  1.00  0.00    -0.474 A  
HETATM   26  C   UNL     1     -12.931  10.881  71.520  1.00  0.00    -0.451 A  
HETATM   27  C   UNL     1     -13.157   9.648  72.121  1.00  0.00    -0.520 A  
HETATM   28  F   UNL     1     -13.651  11.942  71.904  1.00  0.00    -0.458 F  
HETATM   29  C   UNL     1     -12.403   8.538  71.732  1.00  0.00    -0.388 A  
ENDBRANCH  21  23
ENDBRANCH  20  21
ENDBRANCH  19  20
ENDBRANCH  18  19
ENDBRANCH  15  18
ENDBRANCH  11  12
TORSDOF 6
ENDMDL
MODEL        8
REMARK 921   NORMALIZED FREE ENERGY PREDICTED BY IDOCK:   -6.98 KCAL/MOL
REMARK 922        TOTAL FREE ENERGY PREDICTED BY IDOCK:  -10.74 KCAL/MOL
REMARK 923 INTER-LIGAND FREE ENERGY PREDICTED BY IDOCK:   -9.03 KCAL/MOL
REMARK 924 INTRA-LIGAND FREE ENERGY PREDICTED BY IDOCK:   -1.71 KCAL/MOL
REMARK 927      BINDING AFFINITY PREDICTED BY RF-SCORE:    0.00 PKD
ROOT
HETATM    1  O   UNL     1      -7.581   9.271  70.109  1.00  0.00    -0.081 OA 
HETATM    2  C   UNL     1      -8.845   9.416  70.436  1.00  0.00    -0.249 A  
HETATM    3  H   UNL     1      -7.211   9.677  69.334  1.00  0.00     0.000 HD 
HETATM    4  N   UNL     1      -9.354   8.859  71.499  1.00  0.00    -0.266 NA 
HETATM    5  C   UNL     1     -10.681   9.204  71.457  1.00  0.00    -0.367 A  
HETATM    6  C   UNL     1     -11.717   8.826  72.322  1.00  0.00    -0.398 A  
HETATM    7  C   UNL     1     -13.010   9.299  72.071  1.00  0.00    -0.504 A  
HETATM    8  C   UNL     1     -13.262  10.153  71.000  1.00  0.00    -0.412 A  
HETATM    9  C   UNL     1     -12.242  10.548  70.127  1.00  0.00    -0.358 A  
HETATM   10  C   UNL     1     -10.964  10.027  70.364  1.00  0.00    -0.320 A  
HETATM   11  N   UNL     1      -9.772  10.089  69.686  1.00  0.00    -0.224 NA 
ENDROOT
BRANCH  11  12
HETATM   12  C   UNL     1      -9.518  10.555  68.340  1.00  0.00    -0.157 C  
HETATM   13  C   UNL     1      -9.723  12.052  68.129  1.00  0.00    -0.199 C  
HETATM   14  C   UNL     1      -9.142  12.397  66.756  1.00  0.00    -0.212 C  
HETATM   15  N   UNL     1      -9.749  11.631  65.652  1.00  0.00    -0.233 NA 
HETATM   16  C   UNL     1      -9.701  10.180  65.892  1.00  0.00    -0.232 C  
HETATM   17  C   UNL     1     -10.260   9.771  67.252  1.00  0.00    -0.289 C  
BRANCH  15  18
HETATM   18  C   UNL     1     -11.099  12.084  65.291  1.00  0.00    -0.317 C  
BRANCH  18  19
HETATM   19  C   UNL     1     -11.097  13.119  64.162  1.00  0.00    -0.426 C  
BRANCH  19  20
HETATM   20  C   UNL     1     -12.117  14.232  64.403  1.00  0.00    -0.490 C  
BRANCH  20  21
HETATM   21  C   UNL     1     -11.441  15.555  64.690  1.00  0.00    -0.324 C  
HETATM   22  O   UNL     1     -11.462  16.501  63.906  1.00  0.00    -1.145 OA 
BRANCH  21  23
HETATM   23  C   UNL     1     -10.687  15.687  65.965  1.00  0.00    -0.322 A  
HETATM   24  C   UNL     1      -9.338  16.059  65.893  1.00  0.00    -0.335 A  
HETATM   25  C   UNL     1      -8.580  16.168  67.058  1.00  0.00    -0.233 A  
HETATM   26  C   UNL     1      -9.174  15.919  68.288  1.00  0.00    -0.189 A  
HETATM   27  C   UNL     1     -10.516  15.563  68.376  1.00  0.00    -0.240 A  
HETATM   28  F   UNL     1      -8.446  16.021  69.406  1.00  0.00    -0.236 F  
HETATM   29  C   UNL     1     -11.280  15.445  67.212  1.00  0.00    -0.270 A  
ENDBRANCH  21  23
ENDBRANCH  20  21
ENDBRANCH  19  20
ENDBRANCH  18  19
ENDBRANCH  15  18
ENDBRANCH  11  12
TORSDOF 6
ENDMDL
MODEL        9
REMARK 921   NORMALIZED FREE ENERGY PREDICTED BY IDOCK:   -6.97 KCAL/MOL
REMARK 922        TOTAL FREE ENERGY PREDICTED BY IDOCK:  -10.72 KCAL/MOL
REMARK 923 INTER-LIGAND FREE ENERGY PREDICTED BY IDOCK:   -9.58 KCAL/MOL
REMARK 924 INTRA-LIGAND FREE ENERGY PREDICTED BY IDOCK:   -1.14 KCAL/MOL
REMARK 927      BINDING AFFINITY PREDICTED BY RF-SCORE:    0.00 PKD
ROOT
HETATM    1  O   UNL     1     -10.264  14.683  69.091  1.00  0.00    -0.243 OA 
HETATM    2  C   UNL     1     -10.229  15.886  68.562  1.00  0.00    -0.226 A  
HETATM    3  H   UNL     1     -10.383  13.903  68.562  1.00  0.00     0.000 HD 
HETATM    4  N   UNL     1     -10.066  16.957  69.287  1.00  0.00    -0.258 NA 
HETATM    5  C   UNL     1     -10.137  17.988  68.385  1.00  0.00    -0.387 A  
HETATM    6  C   UNL     1     -10.088  19.368  68.620  1.00  0.00    -0.515 A  
HETATM    7  C   UNL     1     -10.193  20.240  67.531  1.00  0.00    -0.486 A  
HETATM    8  C   UNL     1     -10.314  19.750  66.233  1.00  0.00    -0.626 A  
HETATM    9  C   UNL     1     -10.359  18.375  65.974  1.00  0.00    -0.397 A  
HETATM   10  C   UNL     1     -10.302  17.518  67.079  1.00  0.00    -0.324 A  
HETATM   11  N   UNL     1     -10.427  16.159  67.236  1.00  0.00    -0.306 NA 
ENDROOT
BRANCH  11  12
HETATM   12  C   UNL     1     -10.896  15.177  66.283  1.00  0.00    -0.333 C  
HETATM   13  C   UNL     1     -12.176  14.452  66.685  1.00  0.00    -0.340 C  
HETATM   14  C   UNL     1     -12.663  13.682  65.456  1.00  0.00    -0.466 C  
HETATM   15  N   UNL     1     -11.671  12.728  64.928  1.00  0.00    -0.334 NA 
HETATM   16  C   UNL     1     -10.372  13.366  64.666  1.00  0.00    -0.381 C  
HETATM   17  C   UNL     1      -9.834  14.159  65.854  1.00  0.00    -0.312 C  
BRANCH  15  18
HETATM   18  C   UNL     1     -11.531  11.511  65.741  1.00  0.00    -0.006 C  
BRANCH  18  19
HETATM   19  C   UNL     1     -10.126  10.908  65.670  1.00  0.00    -0.318 C  
BRANCH  19  20
HETATM   20  C   UNL     1      -9.767  10.140  66.943  1.00  0.00    -0.233 C  
BRANCH  20  21
HETATM   21  C   UNL     1      -9.781  11.040  68.159  1.00  0.00    -0.174 C  
HETATM   22  O   UNL     1      -9.091  12.052  68.251  1.00  0.00    -0.188 OA 
BRANCH  21  23
HETATM   23  C   UNL     1     -10.645  10.645  69.304  1.00  0.00    -0.263 A  
HETATM   24  C   UNL     1     -11.910  11.241  69.406  1.00  0.00    -0.424 A  
HETATM   25  C   UNL     1     -12.745  10.927  70.478  1.00  0.00    -0.363 A  
HETATM   26  C   UNL     1     -12.321  10.012  71.433  1.00  0.00    -0.415 A  
HETATM   27  C   UNL     1     -11.075   9.403  71.336  1.00  0.00    -0.450 A  
HETATM   28  F   UNL     1     -13.122   9.712  72.461  1.00  0.00    -0.465 F  
HETATM   29  C   UNL     1     -10.229   9.718  70.269  1.00  0.00    -0.346 A  
ENDBRANCH  21  23
ENDBRANCH  20  21
ENDBRANCH  19  20
ENDBRANCH  18  19
ENDBRANCH  15  18
ENDBRANCH  11  12
TORSDOF 6
ENDMDL
MODEL       10
REMARK 921   NORMALIZED FREE ENERGY PREDICTED BY IDOCK:   -6.95 KCAL/MOL
REMARK 922        TOTAL FREE ENERGY PREDICTED BY IDOCK:  -10.70 KCAL/MOL
REMARK 923 INTER-LIGAND FREE ENERGY PREDICTED BY IDOCK:  -10.06 KCAL/MOL
REMARK 924 INTRA-LIGAND FREE ENERGY PREDICTED BY IDOCK:   -0.64 KCAL/MOL
REMARK 927      BINDING AFFINITY PREDICTED BY RF-SCORE:    0.00 PKD
ROOT
HETATM    1  O   UNL     1     -11.125  15.509  64.466  1.00  0.00    -0.653 OA 
HETATM    2  C   UNL     1     -10.889  16.502  65.294  1.00  0.00    -0.221 A  
HETATM    3  H   UNL     1     -11.263  14.620  64.770  1.00  0.00     0.000 HD 
HETATM    4  N   UNL     1     -10.700  17.722  64.877  1.00  0.00    -0.440 NA 
HETATM    5  C   UNL     1     -10.441  18.433  66.021  1.00  0.00    -0.374 A  
HETATM    6  C   UNL     1     -10.105  19.786  66.159  1.00  0.00    -0.600 A  
HETATM    7  C   UNL     1      -9.872  20.293  67.443  1.00  0.00    -0.586 A  
HETATM    8  C   UNL     1      -9.999  19.479  68.566  1.00  0.00    -0.538 A  
HETATM    9  C   UNL     1     -10.340  18.128  68.451  1.00  0.00    -0.371 A  
HETATM   10  C   UNL     1     -10.522  17.624  67.158  1.00  0.00    -0.319 A  
HETATM   11  N   UNL     1     -10.745  16.369  66.649  1.00  0.00    -0.233 NA 
ENDROOT
BRANCH  11  12
HETATM   12  C   UNL     1     -10.637  15.089  67.314  1.00  0.00    -0.279 C  
HETATM   13  C   UNL     1      -9.438  14.245  66.894  1.00  0.00    -0.272 C  
HETATM   14  C   UNL     1      -9.332  13.087  67.888  1.00  0.00    -0.212 C  
HETATM   15  N   UNL     1     -10.550  12.258  67.957  1.00  0.00    -0.209 NA 
HETATM   16  C   UNL     1     -11.754  13.062  68.217  1.00  0.00    -0.353 C  
HETATM   17  C   UNL     1     -11.913  14.242  67.261  1.00  0.00    -0.439 C  
BRANCH  15  18
HETATM   18  C   UNL     1     -10.724  11.365  66.803  1.00  0.00    -0.271 C  
BRANCH  18  19
HETATM   19  C   UNL     1      -9.820  10.131  66.865  1.00  0.00    -0.244 C  
BRANCH  19  20
HETATM   20  C   UNL     1     -10.379   9.056  67.798  1.00  0.00    -0.304 C  
BRANCH  20  21
HETATM   21  C   UNL     1     -10.063   9.356  69.246  1.00  0.00    -0.196 C  
HETATM   22  O   UNL     1      -8.945   9.690  69.632  1.00  0.00    -0.171 OA 
BRANCH  21  23
HETATM   23  C   UNL     1     -11.155   9.197  70.243  1.00  0.00    -0.272 A  
HETATM   24  C   UNL     1     -11.898  10.334  70.588  1.00  0.00    -0.439 A  
HETATM   25  C   UNL     1     -12.914  10.243  71.539  1.00  0.00    -0.556 A  
HETATM   26  C   UNL     1     -13.191   9.017  72.130  1.00  0.00    -0.446 A  
HETATM   27  C   UNL     1     -12.472   7.878  71.786  1.00  0.00    -0.352 A  
HETATM   28  F   UNL     1     -14.165   8.931  73.044  1.00  0.00    -0.414 F  
HETATM   29  C   UNL     1     -11.449   7.963  70.840  1.00  0.00    -0.294 A  
ENDBRANCH  21  23
ENDBRANCH  20  21
ENDBRANCH  19  20
ENDBRANCH  18  19
ENDBRANCH  15  18
ENDBRANCH  11  12
TORSDOF 6
ENDMDL
MODEL       11
REMARK 921   NORMALIZED FREE ENERGY PREDICTED BY IDOCK:   -6.95 KCAL/MOL
REMARK 922        TOTAL FREE ENERGY PREDICTED BY IDOCK:  -10.69 KCAL/MOL
REMARK 923 INTER-LIGAND FREE ENERGY PREDICTED BY IDOCK:   -9.24 KCAL/MOL
REMARK 924 INTRA-LIGAND FREE ENERGY PREDICTED BY IDOCK:   -1.46 KCAL/MOL
REMARK 927      BINDING AFFINITY PREDICTED BY RF-SCORE:    0.00 PKD
ROOT
HETATM    1  O   UNL     1     -14.103  13.322  72.505  1.00  0.00    -0.709 OA 
HETATM    2  C   UNL     1     -13.366  12.431  71.881  1.00  0.00    -0.349 A  
HETATM    3  H   UNL     1     -14.167  14.221  72.206  1.00  0.00     0.000 HD 
HETATM    4  N   UNL     1     -13.278  11.196  72.290  1.00  0.00    -0.247 NA 
HETATM    5  C   UNL     1     -12.393  10.615  71.419  1.00  0.00    -0.350 A  
HETATM    6  C   UNL     1     -11.880   9.311  71.424  1.00  0.00    -0.428 A  
HETATM    7  C   UNL     1     -10.969   8.942  70.427  1.00  0.00    -0.275 A  
HETATM    8  C   UNL     1     -10.599   9.842  69.430  1.00  0.00    -0.250 A  
HETATM    9  C   UNL     1     -11.102  11.147  69.403  1.00  0.00    -0.314 A  
HETATM   10  C   UNL     1     -11.975  11.515  70.434  1.00  0.00    -0.368 A  
HETATM   11  N   UNL     1     -12.568  12.697  70.802  1.00  0.00    -0.270 NA 
ENDROOT
BRANCH  11  12
HETATM   12  C   UNL     1     -12.283  14.037  70.335  1.00  0.00    -0.363 C  
HETATM   13  C   UNL     1     -11.863  14.132  68.872  1.00  0.00    -0.382 C  
HETATM   14  C   UNL     1     -11.885  15.614  68.493  1.00  0.00    -0.237 C  
HETATM   15  N   UNL     1     -11.013  16.451  69.337  1.00  0.00    -0.327 NA 
HETATM   16  C   UNL     1     -11.293  16.272  70.771  1.00  0.00    -0.299 C  
HETATM   17  C   UNL     1     -11.293  14.811  71.212  1.00  0.00    -0.168 C  
BRANCH  15  18
HETATM   18  C   UNL     1      -9.582  16.306  69.035  1.00  0.00    -0.257 C  
BRANCH  18  19
HETATM   19  C   UNL     1      -9.115  17.236  67.912  1.00  0.00    -0.239 C  
BRANCH  19  20
HETATM   20  C   UNL     1      -8.598  16.458  66.701  1.00  0.00    -0.295 C  
BRANCH  20  21
HETATM   21  C   UNL     1      -9.728  16.021  65.795  1.00  0.00    -0.305 C  
HETATM   22  O   UNL     1     -10.468  16.815  65.218  1.00  0.00    -0.630 OA 
BRANCH  21  23
HETATM   23  C   UNL     1      -9.967  14.562  65.637  1.00  0.00    -0.376 A  
HETATM   24  C   UNL     1     -10.855  14.148  64.635  1.00  0.00    -0.401 A  
HETATM   25  C   UNL     1     -11.135  12.792  64.466  1.00  0.00    -0.365 A  
HETATM   26  C   UNL     1     -10.517  11.857  65.287  1.00  0.00    -0.275 A  
HETATM   27  C   UNL     1      -9.622  12.253  66.275  1.00  0.00    -0.248 A  
HETATM   28  F   UNL     1     -10.787  10.557  65.126  1.00  0.00    -0.266 F  
HETATM   29  C   UNL     1      -9.343  13.610  66.455  1.00  0.00    -0.242 A  
ENDBRANCH  21  23
ENDBRANCH  20  21
ENDBRANCH  19  20
ENDBRANCH  18  19
ENDBRANCH  15  18
ENDBRANCH  11  12
TORSDOF 6
ENDMDL
MODEL       12
REMARK 921   NORMALIZED FREE ENERGY PREDICTED BY IDOCK:   -6.93 KCAL/MOL
REMARK 922        TOTAL FREE ENERGY PREDICTED BY IDOCK:  -10.66 KCAL/MOL
REMARK 923 INTER-LIGAND FREE ENERGY PREDICTED BY IDOCK:   -8.98 KCAL/MOL
REMARK 924 INTRA-LIGAND FREE ENERGY PREDICTED BY IDOCK:   -1.68 KCAL/MOL
REMARK 927      BINDING AFFINITY PREDICTED BY RF-SCORE:    0.00 PKD
ROOT
HETATM    1  O   UNL     1     -10.094  16.686  67.332  1.00  0.00    -0.261 OA 
HETATM    2  C   UNL     1     -10.689  16.180  68.388  1.00  0.00    -0.298 A  
HETATM    3  H   UNL     1      -9.945  16.176  66.544  1.00  0.00     0.000 HD 
HETATM    4  N   UNL     1     -10.895  16.879  69.469  1.00  0.00    -0.248 NA 
HETATM    5  C   UNL     1     -11.483  15.994  70.336  1.00  0.00    -0.377 A  
HETATM    6  C   UNL     1     -11.864  16.190  71.670  1.00  0.00    -0.557 A  
HETATM    7  C   UNL     1     -12.443  15.124  72.368  1.00  0.00    -0.433 A  
HETATM    8  C   UNL     1     -12.665  13.899  71.743  1.00  0.00    -0.393 A  
HETATM    9  C   UNL     1     -12.298  13.683  70.411  1.00  0.00    -0.415 A  
HETATM   10  C   UNL     1     -11.676  14.744  69.742  1.00  0.00    -0.310 A  
HETATM   11  N   UNL     1     -11.091  14.877  68.507  1.00  0.00    -0.255 NA 
ENDROOT
BRANCH  11  12
HETATM   12  C   UNL     1     -10.729  13.845  67.560  1.00  0.00    -0.267 C  
HETATM   13  C   UNL     1     -11.894  12.996  67.059  1.00  0.00    -0.437 C  
HETATM   14  C   UNL     1     -11.374  12.172  65.879  1.00  0.00    -0.356 C  
HETATM   15  N   UNL     1     -10.221  11.319  66.219  1.00  0.00    -0.229 NA 
HETATM   16  C   UNL     1      -9.131  12.084  66.844  1.00  0.00    -0.196 C  
HETATM   17  C   UNL     1      -9.586  12.936  68.026  1.00  0.00    -0.221 C  
BRANCH  15  18
HETATM   18  C   UNL     1     -10.578  10.129  67.005  1.00  0.00    -0.225 C  
BRANCH  18  19
HETATM   19  C   UNL     1      -9.376   9.225  67.295  1.00  0.00    -0.161 C  
BRANCH  19  20
HETATM   20  C   UNL     1      -9.594   8.363  68.539  1.00  0.00    -0.155 C  
BRANCH  20  21
HETATM   21  C   UNL     1      -9.649   9.203  69.796  1.00  0.00    -0.181 C  
HETATM   22  O   UNL     1      -8.703   9.879  70.191  1.00  0.00    -0.200 OA 
BRANCH  21  23
HETATM   23  C   UNL     1     -10.899   9.165  70.601  1.00  0.00    -0.321 A  
HETATM   24  C   UNL     1     -11.134   8.034  71.395  1.00  0.00    -0.278 A  
HETATM   25  C   UNL     1     -12.305   7.938  72.146  1.00  0.00    -0.331 A  
HETATM   26  C   UNL     1     -13.228   8.976  72.111  1.00  0.00    -0.446 A  
HETATM   27  C   UNL     1     -13.001  10.110  71.339  1.00  0.00    -0.528 A  
HETATM   28  F   UNL     1     -14.353   8.882  72.830  1.00  0.00    -0.490 F  
HETATM   29  C   UNL     1     -11.834  10.210  70.579  1.00  0.00    -0.408 A  
ENDBRANCH  21  23
ENDBRANCH  20  21
ENDBRANCH  19  20
ENDBRANCH  18  19
ENDBRANCH  15  18
ENDBRANCH  11  12
TORSDOF 6
ENDMDL
MODEL       13
REMARK 921   NORMALIZED FREE ENERGY PREDICTED BY IDOCK:   -6.89 KCAL/MOL
REMARK 922        TOTAL FREE ENERGY PREDICTED BY IDOCK:  -10.62 KCAL/MOL
REMARK 923 INTER-LIGAND FREE ENERGY PREDICTED BY IDOCK:  -10.01 KCAL/MOL
REMARK 924 INTRA-LIGAND FREE ENERGY PREDICTED BY IDOCK:   -0.61 KCAL/MOL
REMARK 927      BINDING AFFINITY PREDICTED BY RF-SCORE:    0.00 PKD
ROOT
HETATM    1  O   UNL     1     -12.382  16.320  72.038  1.00  0.00    -0.542 OA 
HETATM    2  C   UNL     1     -12.472  15.051  71.708  1.00  0.00    -0.339 A  
HETATM    3  H   UNL     1     -11.938  16.954  71.487  1.00  0.00     0.000 HD 
HETATM    4  N   UNL     1     -13.080  14.181  72.463  1.00  0.00    -0.449 NA 
HETATM    5  C   UNL     1     -12.914  12.989  71.805  1.00  0.00    -0.321 A  
HETATM    6  C   UNL     1     -13.312  11.704  72.196  1.00  0.00    -0.310 A  
HETATM    7  C   UNL     1     -13.020  10.624  71.355  1.00  0.00    -0.545 A  
HETATM    8  C   UNL     1     -12.370  10.821  70.139  1.00  0.00    -0.401 A  
HETATM    9  C   UNL     1     -11.969  12.096  69.726  1.00  0.00    -0.372 A  
HETATM   10  C   UNL     1     -12.226  13.159  70.600  1.00  0.00    -0.321 A  
HETATM   11  N   UNL     1     -11.895  14.491  70.600  1.00  0.00    -0.299 NA 
ENDROOT
BRANCH  11  12
HETATM   12  C   UNL     1     -10.946  15.189  69.760  1.00  0.00    -0.280 C  
HETATM   13  C   UNL     1     -11.374  16.590  69.334  1.00  0.00    -0.105 C  
HETATM   14  C   UNL     1     -10.150  17.263  68.709  1.00  0.00    -0.337 C  
HETATM   15  N   UNL     1      -9.591  16.522  67.564  1.00  0.00    -0.230 NA 
HETATM   16  C   UNL     1      -9.303  15.119  67.899  1.00  0.00    -0.185 C  
HETATM   17  C   UNL     1     -10.484  14.391  68.536  1.00  0.00    -0.254 C  
BRANCH  15  18
HETATM   18  C   UNL     1     -10.390  16.640  66.336  1.00  0.00    -0.306 C  
BRANCH  18  19
HETATM   19  C   UNL     1     -10.163  15.478  65.365  1.00  0.00    -0.409 C  
BRANCH  19  20
HETATM   20  C   UNL     1     -11.397  15.201  64.505  1.00  0.00    -0.297 C  
BRANCH  20  21
HETATM   21  C   UNL     1     -12.085  13.917  64.915  1.00  0.00    -0.414 C  
HETATM   22  O   UNL     1     -13.242  13.880  65.327  1.00  0.00    -0.774 OA 
BRANCH  21  23
HETATM   23  C   UNL     1     -11.299  12.656  64.847  1.00  0.00    -0.347 A  
HETATM   24  C   UNL     1     -10.786  12.270  63.600  1.00  0.00    -0.522 A  
HETATM   25  C   UNL     1     -10.068  11.081  63.479  1.00  0.00    -0.428 A  
HETATM   26  C   UNL     1      -9.854  10.292  64.601  1.00  0.00    -0.327 A  
HETATM   27  C   UNL     1     -10.344  10.670  65.846  1.00  0.00    -0.291 A  
HETATM   28  F   UNL     1      -9.166   9.150  64.483  1.00  0.00    -0.241 F  
HETATM   29  C   UNL     1     -11.071  11.856  65.975  1.00  0.00    -0.369 A  
ENDBRANCH  21  23
ENDBRANCH  20  21
ENDBRANCH  19  20
ENDBRANCH  18  19
ENDBRANCH  15  18
ENDBRANCH  11  12
TORSDOF 6
ENDMDL
MODEL       14
REMARK 921   NORMALIZED FREE ENERGY PREDICTED BY IDOCK:   -6.88 KCAL/MOL
REMARK 922        TOTAL FREE ENERGY PREDICTED BY IDOCK:  -10.60 KCAL/MOL
REMARK 923 INTER-LIGAND FREE ENERGY PREDICTED BY IDOCK:  -10.19 KCAL/MOL
REMARK 924 INTRA-LIGAND FREE ENERGY PREDICTED BY IDOCK:   -0.41 KCAL/MOL
REMARK 927      BINDING AFFINITY PREDICTED BY RF-SCORE:    0.00 PKD
ROOT
HETATM    1  O   UNL     1     -13.527  10.058  70.342  1.00  0.00    -0.561 OA 
HETATM    2  C   UNL     1     -12.465   9.513  70.891  1.00  0.00    -0.202 A  
HETATM    3  H   UNL     1     -13.465  10.644  69.597  1.00  0.00     0.000 HD 
HETATM    4  N   UNL     1     -12.549   8.708  71.913  1.00  0.00    -0.337 NA 
HETATM    5  C   UNL     1     -11.244   8.403  72.210  1.00  0.00    -0.376 A  
HETATM    6  C   UNL     1     -10.739   7.624  73.259  1.00  0.00    -0.409 A  
HETATM    7  C   UNL     1      -9.354   7.460  73.369  1.00  0.00    -0.260 A  
HETATM    8  C   UNL     1      -8.491   8.036  72.438  1.00  0.00    -0.211 A  
HETATM    9  C   UNL     1      -8.974   8.812  71.380  1.00  0.00    -0.307 A  
HETATM   10  C   UNL     1     -10.359   9.006  71.312  1.00  0.00    -0.313 A  
HETATM   11  N   UNL     1     -11.174   9.771  70.515  1.00  0.00    -0.290 NA 
ENDROOT
BRANCH  11  12
HETATM   12  C   UNL     1     -10.810  10.828  69.598  1.00  0.00    -0.241 C  
HETATM   13  C   UNL     1     -11.735  12.042  69.617  1.00  0.00    -0.405 C  
HETATM   14  C   UNL     1     -11.044  13.147  68.814  1.00  0.00    -0.269 C  
HETATM   15  N   UNL     1     -10.729  12.758  67.428  1.00  0.00    -0.228 NA 
HETATM   16  C   UNL     1      -9.960  11.505  67.364  1.00  0.00    -0.190 C  
HETATM   17  C   UNL     1     -10.593  10.362  68.154  1.00  0.00    -0.246 C  
BRANCH  15  18
HETATM   18  C   UNL     1     -11.901  12.728  66.542  1.00  0.00    -0.405 C  
BRANCH  18  19
HETATM   19  C   UNL     1     -12.101  14.039  65.776  1.00  0.00    -0.445 C  
BRANCH  19  20
HETATM   20  C   UNL     1     -10.771  14.705  65.423  1.00  0.00    -0.382 C  
BRANCH  20  21
HETATM   21  C   UNL     1     -10.947  16.178  65.126  1.00  0.00    -0.316 C  
HETATM   22  O   UNL     1     -11.297  16.603  64.028  1.00  0.00    -1.120 OA 
BRANCH  21  23
HETATM   23  C   UNL     1     -10.640  17.147  66.213  1.00  0.00    -0.185 A  
HETATM   24  C   UNL     1     -10.482  16.645  67.512  1.00  0.00    -0.317 A  
HETATM   25  C   UNL     1     -10.223  17.515  68.570  1.00  0.00    -0.378 A  
HETATM   26  C   UNL     1     -10.109  18.878  68.325  1.00  0.00    -0.388 A  
HETATM   27  C   UNL     1     -10.248  19.387  67.039  1.00  0.00    -0.514 A  
HETATM   28  F   UNL     1      -9.862  19.712  69.341  1.00  0.00    -0.463 F  
HETATM   29  C   UNL     1     -10.516  18.522  65.975  1.00  0.00    -0.433 A  
ENDBRANCH  21  23
ENDBRANCH  20  21
ENDBRANCH  19  20
ENDBRANCH  18  19
ENDBRANCH  15  18
ENDBRANCH  11  12
TORSDOF 6
ENDMDL
MODEL       15
REMARK 921   NORMALIZED FREE ENERGY PREDICTED BY IDOCK:   -6.85 KCAL/MOL
REMARK 922        TOTAL FREE ENERGY PREDICTED BY IDOCK:  -10.56 KCAL/MOL
REMARK 923 INTER-LIGAND FREE ENERGY PREDICTED BY IDOCK:   -9.32 KCAL/MOL
REMARK 924 INTRA-LIGAND FREE ENERGY PREDICTED BY IDOCK:   -1.23 KCAL/MOL
REMARK 927      BINDING AFFINITY PREDICTED BY RF-SCORE:    0.00 PKD
ROOT
HETATM    1  O   UNL     1      -9.587   6.880  70.008  1.00  0.00    -0.158 OA 
HETATM    2  C   UNL     1     -10.316   7.928  70.319  1.00  0.00    -0.212 A  
HETATM    3  H   UNL     1      -8.952   6.899  69.301  1.00  0.00     0.000 HD 
HETATM    4  N   UNL     1     -11.187   7.903  71.288  1.00  0.00    -0.251 NA 
HETATM    5  C   UNL     1     -11.761   9.149  71.258  1.00  0.00    -0.326 A  
HETATM    6  C   UNL     1     -12.807   9.655  72.040  1.00  0.00    -0.497 A  
HETATM    7  C   UNL     1     -13.237  10.969  71.819  1.00  0.00    -0.505 A  
HETATM    8  C   UNL     1     -12.621  11.770  70.860  1.00  0.00    -0.384 A  
HETATM    9  C   UNL     1     -11.572  11.286  70.071  1.00  0.00    -0.404 A  
HETATM   10  C   UNL     1     -11.186   9.955  70.271  1.00  0.00    -0.301 A  
HETATM   11  N   UNL     1     -10.304   9.115  69.638  1.00  0.00    -0.211 NA 
ENDROOT
BRANCH  11  12
HETATM   12  C   UNL     1      -9.632   9.297  68.370  1.00  0.00    -0.147 C  
HETATM   13  C   UNL     1      -8.850  10.601  68.238  1.00  0.00    -0.139 C  
HETATM   14  C   UNL     1      -7.993  10.486  66.976  1.00  0.00    -0.118 C  
HETATM   15  N   UNL     1      -8.777  10.227  65.754  1.00  0.00    -0.150 NA 
HETATM   16  C   UNL     1      -9.657   9.057  65.898  1.00  0.00    -0.247 C  
HETATM   17  C   UNL     1     -10.535   9.106  67.146  1.00  0.00    -0.325 C  
BRANCH  15  18
HETATM   18  C   UNL     1      -9.505  11.403  65.258  1.00  0.00    -0.209 C  
BRANCH  18  19
HETATM   19  C   UNL     1     -10.512  11.059  64.157  1.00  0.00    -0.434 C  
BRANCH  19  20
HETATM   20  C   UNL     1     -11.191  12.306  63.591  1.00  0.00    -0.539 C  
BRANCH  20  21
HETATM   21  C   UNL     1     -12.185  12.893  64.569  1.00  0.00    -0.426 C  
HETATM   22  O   UNL     1     -13.364  12.548  64.612  1.00  0.00    -0.804 OA 
BRANCH  21  23
HETATM   23  C   UNL     1     -11.708  13.962  65.486  1.00  0.00    -0.356 A  
HETATM   24  C   UNL     1     -12.090  13.888  66.833  1.00  0.00    -0.467 A  
HETATM   25  C   UNL     1     -11.693  14.881  67.727  1.00  0.00    -0.340 A  
HETATM   26  C   UNL     1     -10.907  15.935  67.277  1.00  0.00    -0.279 A  
HETATM   27  C   UNL     1     -10.509  16.012  65.947  1.00  0.00    -0.373 A  
HETATM   28  F   UNL     1     -10.529  16.889  68.135  1.00  0.00    -0.283 F  
HETATM   29  C   UNL     1     -10.909  15.025  65.044  1.00  0.00    -0.439 A  
ENDBRANCH  21  23
ENDBRANCH  20  21
ENDBRANCH  19  20
ENDBRANCH  18  19
ENDBRANCH  15  18
ENDBRANCH  11  12
TORSDOF 6
ENDMDL
MODEL       16
REMARK 921   NORMALIZED FREE ENERGY PREDICTED BY IDOCK:   -6.83 KCAL/MOL
REMARK 922        TOTAL FREE ENERGY PREDICTED BY IDOCK:  -10.53 KCAL/MOL
REMARK 923 INTER-LIGAND FREE ENERGY PREDICTED BY IDOCK:   -8.93 KCAL/MOL
REMARK 924 INTRA-LIGAND FREE ENERGY PREDICTED BY IDOCK:   -1.61 KCAL/MOL
REMARK 927      BINDING AFFINITY PREDICTED BY RF-SCORE:    0.00 PKD
ROOT
HETATM    1  O   UNL     1      -7.969   7.983  69.887  1.00  0.00    -0.106 OA 
HETATM    2  C   UNL     1      -9.121   8.471  70.289  1.00  0.00    -0.154 A  
HETATM    3  H   UNL     1      -7.535   8.295  69.102  1.00  0.00     0.000 HD 
HETATM    4  N   UNL     1      -9.716   8.044  71.366  1.00  0.00    -0.160 NA 
HETATM    5  C   UNL     1     -10.889   8.755  71.408  1.00  0.00    -0.289 A  
HETATM    6  C   UNL     1     -11.946   8.657  72.321  1.00  0.00    -0.438 A  
HETATM    7  C   UNL     1     -13.059   9.489  72.154  1.00  0.00    -0.522 A  
HETATM    8  C   UNL     1     -13.107  10.418  71.118  1.00  0.00    -0.474 A  
HETATM    9  C   UNL     1     -12.060  10.537  70.197  1.00  0.00    -0.380 A  
HETATM   10  C   UNL     1     -10.975   9.664  70.350  1.00  0.00    -0.299 A  
HETATM   11  N   UNL     1      -9.849   9.408  69.607  1.00  0.00    -0.182 NA 
ENDROOT
BRANCH  11  12
HETATM   12  C   UNL     1      -9.538   9.831  68.260  1.00  0.00    -0.143 C  
HETATM   13  C   UNL     1      -9.508  11.343  68.052  1.00  0.00    -0.181 C  
HETATM   14  C   UNL     1      -8.892  11.595  66.674  1.00  0.00    -0.187 C  
HETATM   15  N   UNL     1      -9.620  10.935  65.574  1.00  0.00    -0.208 NA 
HETATM   16  C   UNL     1      -9.798   9.495  65.813  1.00  0.00    -0.293 C  
HETATM   17  C   UNL     1     -10.402   9.175  67.178  1.00  0.00    -0.337 C  
BRANCH  15  18
HETATM   18  C   UNL     1     -10.887  11.595  65.225  1.00  0.00    -0.283 C  
BRANCH  18  19
HETATM   19  C   UNL     1     -10.723  12.657  64.135  1.00  0.00    -0.435 C  
BRANCH  19  20
HETATM   20  C   UNL     1     -10.821  14.076  64.697  1.00  0.00    -0.416 C  
BRANCH  20  21
HETATM   21  C   UNL     1     -11.980  14.216  65.658  1.00  0.00    -0.396 C  
HETATM   22  O   UNL     1     -13.149  14.030  65.328  1.00  0.00    -0.782 OA 
BRANCH  21  23
HETATM   23  C   UNL     1     -11.679  14.637  67.052  1.00  0.00    -0.379 A  
HETATM   24  C   UNL     1     -12.090  13.794  68.094  1.00  0.00    -0.316 A  
HETATM   25  C   UNL     1     -11.857  14.157  69.420  1.00  0.00    -0.378 A  
HETATM   26  C   UNL     1     -11.205  15.352  69.699  1.00  0.00    -0.283 A  
HETATM   27  C   UNL     1     -10.779  16.190  68.675  1.00  0.00    -0.295 A  
HETATM   28  F   UNL     1     -10.984  15.701  70.971  1.00  0.00    -0.331 F  
HETATM   29  C   UNL     1     -11.015  15.836  67.344  1.00  0.00    -0.279 A  
ENDBRANCH  21  23
ENDBRANCH  20  21
ENDBRANCH  19  20
ENDBRANCH  18  19
ENDBRANCH  15  18
ENDBRANCH  11  12
TORSDOF 6
ENDMDL
MODEL       17
REMARK 921   NORMALIZED FREE ENERGY PREDICTED BY IDOCK:   -6.83 KCAL/MOL
REMARK 922        TOTAL FREE ENERGY PREDICTED BY IDOCK:  -10.53 KCAL/MOL
REMARK 923 INTER-LIGAND FREE ENERGY PREDICTED BY IDOCK:   -9.28 KCAL/MOL
REMARK 924 INTRA-LIGAND FREE ENERGY PREDICTED BY IDOCK:   -1.25 KCAL/MOL
REMARK 927      BINDING AFFINITY PREDICTED BY RF-SCORE:    0.00 PKD
ROOT
HETATM    1  O   UNL     1     -12.639  11.475  63.106  1.00  0.00    -0.909 OA 
HETATM    2  C   UNL     1     -12.130  12.478  63.785  1.00  0.00    -0.529 A  
HETATM    3  H   UNL     1     -12.519  10.571  63.375  1.00  0.00     0.000 HD 
HETATM    4  N   UNL     1     -12.295  13.717  63.416  1.00  0.00    -0.765 NA 
HETATM    5  C   UNL     1     -11.582  14.441  64.339  1.00  0.00    -0.334 A  
HETATM    6  C   UNL     1     -11.360  15.823  64.393  1.00  0.00    -0.274 A  
HETATM    7  C   UNL     1     -10.581  16.339  65.435  1.00  0.00    -0.371 A  
HETATM    8  C   UNL     1     -10.059  15.502  66.418  1.00  0.00    -0.301 A  
HETATM    9  C   UNL     1     -10.273  14.119  66.387  1.00  0.00    -0.292 A  
HETATM   10  C   UNL     1     -11.013  13.614  65.312  1.00  0.00    -0.310 A  
HETATM   11  N   UNL     1     -11.328  12.347  64.886  1.00  0.00    -0.308 NA 
ENDROOT
BRANCH  11  12
HETATM   12  C   UNL     1     -10.779  11.082  65.323  1.00  0.00    -0.164 C  
HETATM   13  C   UNL     1     -11.022  10.748  66.792  1.00  0.00    -0.214 C  
HETATM   14  C   UNL     1     -10.632   9.283  66.991  1.00  0.00    -0.193 C  
HETATM   15  N   UNL     1      -9.236   8.989  66.618  1.00  0.00    -0.157 NA 
HETATM   16  C   UNL     1      -8.922   9.434  65.252  1.00  0.00    -0.204 C  
HETATM   17  C   UNL     1      -9.296  10.890  64.985  1.00  0.00    -0.260 C  
BRANCH  15  18
HETATM   18  C   UNL     1      -8.250   9.474  67.594  1.00  0.00    -0.121 C  
BRANCH  18  19
HETATM   19  C   UNL     1      -7.588   8.341  68.383  1.00  0.00    -0.101 C  
BRANCH  19  20
HETATM   20  C   UNL     1      -8.481   7.832  69.515  1.00  0.00    -0.131 C  
BRANCH  20  21
HETATM   21  C   UNL     1      -8.743   8.908  70.545  1.00  0.00    -0.186 C  
HETATM   22  O   UNL     1      -7.852   9.601  71.030  1.00  0.00    -0.310 OA 
BRANCH  21  23
HETATM   23  C   UNL     1     -10.143   9.096  71.012  1.00  0.00    -0.373 A  
HETATM   24  C   UNL     1     -10.654   8.175  71.937  1.00  0.00    -0.324 A  
HETATM   25  C   UNL     1     -11.971   8.291  72.383  1.00  0.00    -0.447 A  
HETATM   26  C   UNL     1     -12.764   9.331  71.916  1.00  0.00    -0.394 A  
HETATM   27  C   UNL     1     -12.264  10.260  71.010  1.00  0.00    -0.487 A  
HETATM   28  F   UNL     1     -14.027   9.441  72.343  1.00  0.00    -0.441 F  
HETATM   29  C   UNL     1     -10.949  10.146  70.553  1.00  0.00    -0.380 A  
ENDBRANCH  21  23
ENDBRANCH  20  21
ENDBRANCH  19  20
ENDBRANCH  18  19
ENDBRANCH  15  18
ENDBRANCH  11  12
TORSDOF 6
ENDMDL
MODEL       18
REMARK 921   NORMALIZED FREE ENERGY PREDICTED BY IDOCK:   -6.80 KCAL/MOL
REMARK 922        TOTAL FREE ENERGY PREDICTED BY IDOCK:  -10.49 KCAL/MOL
REMARK 923 INTER-LIGAND FREE ENERGY PREDICTED BY IDOCK:   -8.83 KCAL/MOL
REMARK 924 INTRA-LIGAND FREE ENERGY PREDICTED BY IDOCK:   -1.66 KCAL/MOL
REMARK 927      BINDING AFFINITY PREDICTED BY RF-SCORE:    0.00 PKD
ROOT
HETATM    1  O   UNL     1     -11.460  13.199  63.284  1.00  0.00    -0.651 OA 
HETATM    2  C   UNL     1     -10.814  12.426  64.127  1.00  0.00    -0.372 A  
HETATM    3  H   UNL     1     -11.566  14.131  63.433  1.00  0.00     0.000 HD 
HETATM    4  N   UNL     1     -10.667  11.147  63.922  1.00  0.00    -0.378 NA 
HETATM    5  C   UNL     1      -9.995  10.703  65.032  1.00  0.00    -0.305 A  
HETATM    6  C   UNL     1      -9.625   9.395  65.372  1.00  0.00    -0.296 A  
HETATM    7  C   UNL     1      -8.946   9.180  66.577  1.00  0.00    -0.178 A  
HETATM    8  C   UNL     1      -8.616  10.245  67.411  1.00  0.00    -0.125 A  
HETATM    9  C   UNL     1      -8.970  11.560  67.087  1.00  0.00    -0.166 A  
HETATM   10  C   UNL     1      -9.691  11.752  65.903  1.00  0.00    -0.237 A  
HETATM   11  N   UNL     1     -10.294  12.841  65.323  1.00  0.00    -0.292 NA 
ENDROOT
BRANCH  11  12
HETATM   12  C   UNL     1     -10.564  14.140  65.899  1.00  0.00    -0.298 C  
HETATM   13  C   UNL     1      -9.328  14.987  66.185  1.00  0.00    -0.327 C  
HETATM   14  C   UNL     1      -9.815  16.400  66.511  1.00  0.00    -0.274 C  
HETATM   15  N   UNL     1     -10.752  16.451  67.649  1.00  0.00    -0.326 NA 
HETATM   16  C   UNL     1     -11.887  15.532  67.474  1.00  0.00     0.134 C  
HETATM   17  C   UNL     1     -11.467  14.104  67.137  1.00  0.00    -0.373 C  
BRANCH  15  18
HETATM   18  C   UNL     1     -10.102  16.280  68.956  1.00  0.00    -0.259 C  
BRANCH  18  19
HETATM   19  C   UNL     1     -11.084  16.390  70.126  1.00  0.00    -0.285 C  
BRANCH  19  20
HETATM   20  C   UNL     1     -11.115  15.115  70.971  1.00  0.00    -0.283 C  
BRANCH  20  21
HETATM   21  C   UNL     1     -12.436  14.391  70.838  1.00  0.00    -0.354 C  
HETATM   22  O   UNL     1     -13.514  14.974  70.750  1.00  0.00    -0.356 OA 
BRANCH  21  23
HETATM   23  C   UNL     1     -12.417  12.903  70.855  1.00  0.00    -0.383 A  
HETATM   24  C   UNL     1     -13.173  12.250  71.838  1.00  0.00    -0.481 A  
HETATM   25  C   UNL     1     -13.165  10.858  71.915  1.00  0.00    -0.508 A  
HETATM   26  C   UNL     1     -12.415  10.125  71.003  1.00  0.00    -0.375 A  
HETATM   27  C   UNL     1     -11.673  10.760  70.013  1.00  0.00    -0.417 A  
HETATM   28  F   UNL     1     -12.406   8.789  71.078  1.00  0.00    -0.299 F  
HETATM   29  C   UNL     1     -11.670  12.155  69.935  1.00  0.00    -0.361 A  
ENDBRANCH  21  23
ENDBRANCH  20  21
ENDBRANCH  19  20
ENDBRANCH  18  19
ENDBRANCH  15  18
ENDBRANCH  11  12
TORSDOF 6
ENDMDL
MODEL       19
REMARK 921   NORMALIZED FREE ENERGY PREDICTED BY IDOCK:   -6.79 KCAL/MOL
REMARK 922        TOTAL FREE ENERGY PREDICTED BY IDOCK:  -10.48 KCAL/MOL
REMARK 923 INTER-LIGAND FREE ENERGY PREDICTED BY IDOCK:   -9.26 KCAL/MOL
REMARK 924 INTRA-LIGAND FREE ENERGY PREDICTED BY IDOCK:   -1.22 KCAL/MOL
REMARK 927      BINDING AFFINITY PREDICTED BY RF-SCORE:    0.00 PKD
ROOT
HETATM    1  O   UNL     1     -10.631   6.557  66.697  1.00  0.00    -0.423 OA 
HETATM    2  C   UNL     1     -10.685   6.939  67.953  1.00  0.00    -0.232 A  
HETATM    3  H   UNL     1     -10.271   7.113  66.016  1.00  0.00     0.000 HD 
HETATM    4  N   UNL     1     -11.180   6.177  68.888  1.00  0.00    -0.353 NA 
HETATM    5  C   UNL     1     -11.101   6.942  70.023  1.00  0.00    -0.299 A  
HETATM    6  C   UNL     1     -11.548   6.645  71.317  1.00  0.00    -0.374 A  
HETATM    7  C   UNL     1     -11.367   7.598  72.327  1.00  0.00    -0.355 A  
HETATM    8  C   UNL     1     -10.729   8.807  72.061  1.00  0.00    -0.417 A  
HETATM    9  C   UNL     1     -10.269   9.122  70.777  1.00  0.00    -0.325 A  
HETATM   10  C   UNL     1     -10.502   8.179  69.769  1.00  0.00    -0.227 A  
HETATM   11  N   UNL     1     -10.307   8.172  68.410  1.00  0.00    -0.208 NA 
ENDROOT
BRANCH  11  12
HETATM   12  C   UNL     1      -9.988   9.280  67.536  1.00  0.00    -0.202 C  
HETATM   13  C   UNL     1      -8.537   9.749  67.596  1.00  0.00    -0.125 C  
HETATM   14  C   UNL     1      -8.325  10.708  66.424  1.00  0.00    -0.151 C  
HETATM   15  N   UNL     1      -9.243  11.862  66.434  1.00  0.00    -0.214 NA 
HETATM   16  C   UNL     1     -10.652  11.449  66.524  1.00  0.00    -0.263 C  
HETATM   17  C   UNL     1     -10.929  10.482  67.672  1.00  0.00    -0.375 C  
BRANCH  15  18
HETATM   18  C   UNL     1      -8.902  12.878  67.440  1.00  0.00    -0.199 C  
BRANCH  18  19
HETATM   19  C   UNL     1      -9.875  14.061  67.442  1.00  0.00    -0.240 C  
BRANCH  19  20
HETATM   20  C   UNL     1     -10.148  14.577  68.855  1.00  0.00    -0.224 C  
BRANCH  20  21
HETATM   21  C   UNL     1     -11.553  14.246  69.307  1.00  0.00    -0.306 C  
HETATM   22  O   UNL     1     -12.372  13.678  68.587  1.00  0.00    -0.258 OA 
BRANCH  21  23
HETATM   23  C   UNL     1     -11.961  14.668  70.674  1.00  0.00    -0.380 A  
HETATM   24  C   UNL     1     -12.787  13.805  71.407  1.00  0.00    -0.449 A  
HETATM   25  C   UNL     1     -13.220  14.169  72.682  1.00  0.00    -0.612 A  
HETATM   26  C   UNL     1     -12.818  15.383  73.222  1.00  0.00    -0.518 A  
HETATM   27  C   UNL     1     -11.987  16.242  72.512  1.00  0.00    -0.648 A  
HETATM   28  F   UNL     1     -13.236  15.733  74.444  1.00  0.00    -0.375 F  
HETATM   29  C   UNL     1     -11.554  15.888  71.231  1.00  0.00    -0.509 A  
ENDBRANCH  21  23
ENDBRANCH  20  21
ENDBRANCH  19  20
ENDBRANCH  18  19
ENDBRANCH  15  18
ENDBRANCH  11  12
TORSDOF 6
ENDMDL
MODEL       20
REMARK 921   NORMALIZED FREE ENERGY PREDICTED BY IDOCK:   -6.73 KCAL/MOL
REMARK 922        TOTAL FREE ENERGY PREDICTED BY IDOCK:  -10.40 KCAL/MOL
REMARK 923 INTER-LIGAND FREE ENERGY PREDICTED BY IDOCK:   -8.79 KCAL/MOL
REMARK 924 INTRA-LIGAND FREE ENERGY PREDICTED BY IDOCK:   -1.61 KCAL/MOL
REMARK 927      BINDING AFFINITY PREDICTED BY RF-SCORE:    0.00 PKD
ROOT
HETATM    1  O   UNL     1     -10.053   5.959  69.167  1.00  0.00    -0.162 OA 
HETATM    2  C   UNL     1     -10.817   6.781  69.851  1.00  0.00    -0.266 A  
HETATM    3  H   UNL     1      -9.292   6.260  68.684  1.00  0.00     0.000 HD 
HETATM    4  N   UNL     1     -11.860   6.367  70.513  1.00  0.00    -0.331 NA 
HETATM    5  C   UNL     1     -12.403   7.514  71.036  1.00  0.00    -0.235 A  
HETATM    6  C   UNL     1     -13.575   7.669  71.787  1.00  0.00    -0.392 A  
HETATM    7  C   UNL     1     -13.939   8.954  72.208  1.00  0.00    -0.531 A  
HETATM    8  C   UNL     1     -13.139  10.055  71.913  1.00  0.00    -0.563 A  
HETATM    9  C   UNL     1     -11.961   9.921  71.169  1.00  0.00    -0.473 A  
HETATM   10  C   UNL     1     -11.637   8.638  70.715  1.00  0.00    -0.242 A  
HETATM   11  N   UNL     1     -10.658   8.140  69.891  1.00  0.00    -0.238 NA 
ENDROOT
BRANCH  11  12
HETATM   12  C   UNL     1      -9.749   8.860  69.026  1.00  0.00    -0.171 C  
HETATM   13  C   UNL     1      -8.820   9.837  69.740  1.00  0.00    -0.241 C  
HETATM   14  C   UNL     1      -7.764  10.278  68.725  1.00  0.00    -0.096 C  
HETATM   15  N   UNL     1      -8.334  10.896  67.514  1.00  0.00    -0.116 NA 
HETATM   16  C   UNL     1      -9.347  10.040  66.878  1.00  0.00    -0.159 C  
HETATM   17  C   UNL     1     -10.428   9.558  67.842  1.00  0.00    -0.293 C  
BRANCH  15  18
HETATM   18  C   UNL     1      -8.827  12.265  67.725  1.00  0.00    -0.174 C  
BRANCH  18  19
HETATM   19  C   UNL     1      -9.542  12.836  66.497  1.00  0.00    -0.257 C  
BRANCH  19  20
HETATM   20  C   UNL     1     -10.545  13.927  66.874  1.00  0.00    -0.280 C  
BRANCH  20  21
HETATM   21  C   UNL     1     -11.549  13.433  67.893  1.00  0.00    -0.339 C  
HETATM   22  O   UNL     1     -12.280  12.465  67.698  1.00  0.00    -0.425 OA 
BRANCH  21  23
HETATM   23  C   UNL     1     -11.672  14.189  69.168  1.00  0.00    -0.368 A  
HETATM   24  C   UNL     1     -12.270  13.542  70.258  1.00  0.00    -0.417 A  
HETATM   25  C   UNL     1     -12.435  14.217  71.467  1.00  0.00    -0.435 A  
HETATM   26  C   UNL     1     -11.991  15.528  71.586  1.00  0.00    -0.408 A  
HETATM   27  C   UNL     1     -11.383  16.177  70.517  1.00  0.00    -0.392 A  
HETATM   28  F   UNL     1     -12.152  16.176  72.745  1.00  0.00    -0.475 F  
HETATM   29  C   UNL     1     -11.221  15.510  69.301  1.00  0.00    -0.312 A  
ENDBRANCH  21  23
ENDBRANCH  20  21
ENDBRANCH  19  20
ENDBRANCH  18  19
ENDBRANCH  15  18
ENDBRANCH  11  12
TORSDOF 6
ENDMDL
MODEL       21
REMARK 921   NORMALIZED FREE ENERGY PREDICTED BY IDOCK:   -6.72 KCAL/MOL
REMARK 922        TOTAL FREE ENERGY PREDICTED BY IDOCK:  -10.38 KCAL/MOL
REMARK 923 INTER-LIGAND FREE ENERGY PREDICTED BY IDOCK:   -8.22 KCAL/MOL
REMARK 924 INTRA-LIGAND FREE ENERGY PREDICTED BY IDOCK:   -2.16 KCAL/MOL
REMARK 927      BINDING AFFINITY PREDICTED BY RF-SCORE:    0.00 PKD
ROOT
HETATM    1  O   UNL     1     -13.976   8.842  73.265  1.00  0.00    -1.203 OA 
HETATM    2  C   UNL     1     -13.090   9.237  72.380  1.00  0.00    -0.406 A  
HETATM    3  H   UNL     1     -13.799   8.139  73.878  1.00  0.00     0.000 HD 
HETATM    4  N   UNL     1     -13.332  10.202  71.539  1.00  0.00    -0.363 NA 
HETATM    5  C   UNL     1     -12.199  10.272  70.769  1.00  0.00    -0.350 A  
HETATM    6  C   UNL     1     -11.933  11.094  69.666  1.00  0.00    -0.429 A  
HETATM    7  C   UNL     1     -10.694  10.978  69.024  1.00  0.00    -0.258 A  
HETATM    8  C   UNL     1      -9.731  10.085  69.487  1.00  0.00    -0.253 A  
HETATM    9  C   UNL     1      -9.974   9.259  70.590  1.00  0.00    -0.336 A  
HETATM   10  C   UNL     1     -11.234   9.352  71.191  1.00  0.00    -0.357 A  
HETATM   11  N   UNL     1     -11.866   8.652  72.189  1.00  0.00    -0.367 NA 
ENDROOT
BRANCH  11  12
HETATM   12  C   UNL     1     -11.478   7.402  72.803  1.00  0.00    -0.265 C  
HETATM   13  C   UNL     1     -10.241   7.480  73.693  1.00  0.00    -0.333 C  
HETATM   14  C   UNL     1     -10.158   6.162  74.465  1.00  0.00    -0.329 C  
HETATM   15  N   UNL     1     -10.096   4.973  73.594  1.00  0.00    -0.165 NA 
HETATM   16  C   UNL     1     -11.198   4.941  72.620  1.00  0.00    -0.120 C  
HETATM   17  C   UNL     1     -11.340   6.234  71.821  1.00  0.00    -0.346 C  
BRANCH  15  18
HETATM   18  C   UNL     1      -8.788   4.779  72.951  1.00  0.00    -0.116 C  
BRANCH  18  19
HETATM   19  C   UNL     1      -8.870   3.921  71.685  1.00  0.00    -0.142 C  
BRANCH  19  20
HETATM   20  C   UNL     1      -8.295   4.643  70.466  1.00  0.00    -0.096 C  
BRANCH  20  21
HETATM   21  C   UNL     1      -9.176   4.471  69.249  1.00  0.00    -0.133 C  
HETATM   22  O   UNL     1      -9.669   3.392  68.927  1.00  0.00    -0.112 OA 
BRANCH  21  23
HETATM   23  C   UNL     1      -9.417   5.662  68.392  1.00  0.00    -0.142 A  
HETATM   24  C   UNL     1     -10.744   5.989  68.082  1.00  0.00    -0.353 A  
HETATM   25  C   UNL     1     -11.020   7.080  67.257  1.00  0.00    -0.372 A  
HETATM   26  C   UNL     1      -9.974   7.845  66.759  1.00  0.00    -0.263 A  
HETATM   27  C   UNL     1      -8.653   7.540  67.071  1.00  0.00    -0.122 A  
HETATM   28  F   UNL     1     -10.239   8.890  65.966  1.00  0.00    -0.372 F  
HETATM   29  C   UNL     1      -8.368   6.445  67.889  1.00  0.00    -0.118 A  
ENDBRANCH  21  23
ENDBRANCH  20  21
ENDBRANCH  19  20
ENDBRANCH  18  19
ENDBRANCH  15  18
ENDBRANCH  11  12
TORSDOF 6
ENDMDL
MODEL       22
REMARK 921   NORMALIZED FREE ENERGY PREDICTED BY IDOCK:   -6.71 KCAL/MOL
REMARK 922        TOTAL FREE ENERGY PREDICTED BY IDOCK:  -10.37 KCAL/MOL
REMARK 923 INTER-LIGAND FREE ENERGY PREDICTED BY IDOCK:   -8.95 KCAL/MOL
REMARK 924 INTRA-LIGAND FREE ENERGY PREDICTED BY IDOCK:   -1.43 KCAL/MOL
REMARK 927      BINDING AFFINITY PREDICTED BY RF-SCORE:    0.00 PKD
ROOT
HETATM    1  O   UNL     1      -8.622  11.257  63.158  1.00  0.00    -0.436 OA 
HETATM    2  C   UNL     1      -8.949  10.564  64.226  1.00  0.00    -0.216 A  
HETATM    3  H   UNL     1      -8.770  12.193  63.099  1.00  0.00     0.000 HD 
HETATM    4  N   UNL     1      -8.745   9.280  64.308  1.00  0.00    -0.195 NA 
HETATM    5  C   UNL     1      -9.258   8.934  65.532  1.00  0.00    -0.178 A  
HETATM    6  C   UNL     1      -9.364   7.666  66.117  1.00  0.00    -0.141 A  
HETATM    7  C   UNL     1      -9.941   7.556  67.387  1.00  0.00    -0.246 A  
HETATM    8  C   UNL     1     -10.377   8.687  68.073  1.00  0.00    -0.277 A  
HETATM    9  C   UNL     1     -10.276   9.964  67.511  1.00  0.00    -0.265 A  
HETATM   10  C   UNL     1      -9.741  10.051  66.220  1.00  0.00    -0.214 A  
HETATM   11  N   UNL     1      -9.589  11.078  65.322  1.00  0.00    -0.216 NA 
ENDROOT
BRANCH  11  12
HETATM   12  C   UNL     1     -10.164  12.405  65.356  1.00  0.00    -0.278 C  
HETATM   13  C   UNL     1      -9.499  13.368  66.334  1.00  0.00    -0.230 C  
HETATM   14  C   UNL     1     -10.041  14.766  66.028  1.00  0.00    -0.308 C  
HETATM   15  N   UNL     1     -11.509  14.862  66.125  1.00  0.00    -0.316 NA 
HETATM   16  C   UNL     1     -12.186  13.846  65.305  1.00  0.00    -0.433 C  
HETATM   17  C   UNL     1     -11.683  12.427  65.558  1.00  0.00    -0.459 C  
BRANCH  15  18
HETATM   18  C   UNL     1     -12.010  14.876  67.507  1.00  0.00    -0.131 C  
BRANCH  18  19
HETATM   19  C   UNL     1     -11.274  15.883  68.396  1.00  0.00    -0.368 C  
BRANCH  19  20
HETATM   20  C   UNL     1     -10.997  15.322  69.791  1.00  0.00    -0.295 C  
BRANCH  20  21
HETATM   21  C   UNL     1     -12.277  14.954  70.508  1.00  0.00    -0.329 C  
HETATM   22  O   UNL     1     -13.121  15.783  70.840  1.00  0.00    -0.516 OA 
BRANCH  21  23
HETATM   23  C   UNL     1     -12.492  13.524  70.856  1.00  0.00    -0.448 A  
HETATM   24  C   UNL     1     -11.866  12.555  70.059  1.00  0.00    -0.363 A  
HETATM   25  C   UNL     1     -12.059  11.200  70.326  1.00  0.00    -0.462 A  
HETATM   26  C   UNL     1     -12.864  10.819  71.393  1.00  0.00    -0.452 A  
HETATM   27  C   UNL     1     -13.479  11.770  72.200  1.00  0.00    -0.273 A  
HETATM   28  F   UNL     1     -13.050   9.519  71.647  1.00  0.00    -0.355 F  
HETATM   29  C   UNL     1     -13.296  13.129  71.934  1.00  0.00    -0.546 A  
ENDBRANCH  21  23
ENDBRANCH  20  21
ENDBRANCH  19  20
ENDBRANCH  18  19
ENDBRANCH  15  18
ENDBRANCH  11  12
TORSDOF 6
ENDMDL
MODEL       23
REMARK 921   NORMALIZED FREE ENERGY PREDICTED BY IDOCK:   -6.69 KCAL/MOL
REMARK 922        TOTAL FREE ENERGY PREDICTED BY IDOCK:  -10.34 KCAL/MOL
REMARK 923 INTER-LIGAND FREE ENERGY PREDICTED BY IDOCK:   -8.84 KCAL/MOL
REMARK 924 INTRA-LIGAND FREE ENERGY PREDICTED BY IDOCK:   -1.50 KCAL/MOL
REMARK 927      BINDING AFFINITY PREDICTED BY RF-SCORE:    0.00 PKD
ROOT
HETATM    1  O   UNL     1     -13.462  10.101  72.228  1.00  0.00    -0.583 OA 
HETATM    2  C   UNL     1     -13.148  11.292  71.771  1.00  0.00    -0.422 A  
HETATM    3  H   UNL     1     -13.043   9.311  71.907  1.00  0.00     0.000 HD 
HETATM    4  N   UNL     1     -13.722  12.376  72.212  1.00  0.00    -0.344 NA 
HETATM    5  C   UNL     1     -13.164  13.381  71.463  1.00  0.00    -0.312 A  
HETATM    6  C   UNL     1     -13.456  14.751  71.471  1.00  0.00    -0.473 A  
HETATM    7  C   UNL     1     -12.756  15.593  70.599  1.00  0.00    -0.443 A  
HETATM    8  C   UNL     1     -11.767  15.088  69.759  1.00  0.00    -0.341 A  
HETATM    9  C   UNL     1     -11.455  13.724  69.739  1.00  0.00    -0.267 A  
HETATM   10  C   UNL     1     -12.197  12.888  70.581  1.00  0.00    -0.302 A  
HETATM   11  N   UNL     1     -12.260  11.528  70.757  1.00  0.00    -0.381 NA 
ENDROOT
BRANCH  11  12
HETATM   12  C   UNL     1     -11.705  10.482  69.927  1.00  0.00    -0.294 C  
HETATM   13  C   UNL     1     -10.457   9.808  70.490  1.00  0.00    -0.366 C  
HETATM   14  C   UNL     1     -10.192   8.566  69.636  1.00  0.00    -0.209 C  
HETATM   15  N   UNL     1     -10.017   8.864  68.203  1.00  0.00    -0.169 NA 
HETATM   16  C   UNL     1     -11.139   9.644  67.658  1.00  0.00     0.008 C  
HETATM   17  C   UNL     1     -11.461  10.895  68.472  1.00  0.00    -0.380 C  
BRANCH  15  18
HETATM   18  C   UNL     1      -8.718   9.470  67.879  1.00  0.00    -0.119 C  
BRANCH  18  19
HETATM   19  C   UNL     1      -8.350   9.333  66.399  1.00  0.00    -0.120 C  
BRANCH  19  20
HETATM   20  C   UNL     1      -8.179  10.693  65.722  1.00  0.00    -0.161 C  
BRANCH  20  21
HETATM   21  C   UNL     1      -9.145  10.869  64.572  1.00  0.00    -0.163 C  
HETATM   22  O   UNL     1      -9.005  10.306  63.489  1.00  0.00    -0.196 OA 
BRANCH  21  23
HETATM   23  C   UNL     1     -10.290  11.799  64.762  1.00  0.00    -0.333 A  
HETATM   24  C   UNL     1     -10.151  12.824  65.708  1.00  0.00    -0.296 A  
HETATM   25  C   UNL     1     -11.206  13.704  65.945  1.00  0.00    -0.311 A  
HETATM   26  C   UNL     1     -12.388  13.566  65.227  1.00  0.00    -0.467 A  
HETATM   27  C   UNL     1     -12.534  12.563  64.275  1.00  0.00    -0.520 A  
HETATM   28  F   UNL     1     -13.401  14.410  65.456  1.00  0.00    -0.470 F  
HETATM   29  C   UNL     1     -11.484  11.673  64.039  1.00  0.00    -0.404 A  
ENDBRANCH  21  23
ENDBRANCH  20  21
ENDBRANCH  19  20
ENDBRANCH  18  19
ENDBRANCH  15  18
ENDBRANCH  11  12
TORSDOF 6
ENDMDL
MODEL       24
REMARK 921   NORMALIZED FREE ENERGY PREDICTED BY IDOCK:   -6.68 KCAL/MOL
REMARK 922        TOTAL FREE ENERGY PREDICTED BY IDOCK:  -10.33 KCAL/MOL
REMARK 923 INTER-LIGAND FREE ENERGY PREDICTED BY IDOCK:   -8.88 KCAL/MOL
REMARK 924 INTRA-LIGAND FREE ENERGY PREDICTED BY IDOCK:   -1.45 KCAL/MOL
REMARK 927      BINDING AFFINITY PREDICTED BY RF-SCORE:    0.00 PKD
ROOT
HETATM    1  O   UNL     1     -10.306   5.907  69.916  1.00  0.00    -0.199 OA 
HETATM    2  C   UNL     1     -10.876   7.019  70.324  1.00  0.00    -0.254 A  
HETATM    3  H   UNL     1      -9.636   5.902  69.243  1.00  0.00     0.000 HD 
HETATM    4  N   UNL     1     -11.796   7.027  71.248  1.00  0.00    -0.311 NA 
HETATM    5  C   UNL     1     -12.161   8.346  71.348  1.00  0.00    -0.302 A  
HETATM    6  C   UNL     1     -13.157   8.925  72.144  1.00  0.00    -0.475 A  
HETATM    7  C   UNL     1     -13.359  10.308  72.069  1.00  0.00    -0.466 A  
HETATM    8  C   UNL     1     -12.568  11.101  71.241  1.00  0.00    -0.503 A  
HETATM    9  C   UNL     1     -11.564  10.544  70.441  1.00  0.00    -0.430 A  
HETATM   10  C   UNL     1     -11.407   9.154  70.492  1.00  0.00    -0.257 A  
HETATM   11  N   UNL     1     -10.634   8.258  69.795  1.00  0.00    -0.228 NA 
ENDROOT
BRANCH  11  12
HETATM   12  C   UNL     1      -9.868   8.471  68.587  1.00  0.00    -0.170 C  
HETATM   13  C   UNL     1      -8.881   9.633  68.648  1.00  0.00    -0.128 C  
HETATM   14  C   UNL     1      -7.980   9.524  67.416  1.00  0.00    -0.106 C  
HETATM   15  N   UNL     1      -8.721   9.540  66.142  1.00  0.00    -0.141 NA 
HETATM   16  C   UNL     1      -9.784   8.524  66.106  1.00  0.00    -0.189 C  
HETATM   17  C   UNL     1     -10.715   8.574  67.315  1.00  0.00    -0.219 C  
BRANCH  15  18
HETATM   18  C   UNL     1      -9.220  10.870  65.766  1.00  0.00    -0.201 C  
BRANCH  18  19
HETATM   19  C   UNL     1     -10.317  10.814  64.698  1.00  0.00    -0.394 C  
BRANCH  19  20
HETATM   20  C   UNL     1     -10.756  12.210  64.254  1.00  0.00    -0.380 C  
BRANCH  20  21
HETATM   21  C   UNL     1     -11.970  12.683  65.022  1.00  0.00    -0.419 C  
HETATM   22  O   UNL     1     -13.122  12.445  64.666  1.00  0.00    -0.825 OA 
BRANCH  21  23
HETATM   23  C   UNL     1     -11.744  13.505  66.240  1.00  0.00    -0.401 A  
HETATM   24  C   UNL     1     -11.215  14.793  66.073  1.00  0.00    -0.341 A  
HETATM   25  C   UNL     1     -10.957  15.593  67.186  1.00  0.00    -0.270 A  
HETATM   26  C   UNL     1     -11.240  15.110  68.457  1.00  0.00    -0.293 A  
HETATM   27  C   UNL     1     -11.778  13.840  68.637  1.00  0.00    -0.391 A  
HETATM   28  F   UNL     1     -10.990  15.876  69.525  1.00  0.00    -0.228 F  
HETATM   29  C   UNL     1     -12.032  13.031  67.527  1.00  0.00    -0.360 A  
ENDBRANCH  21  23
ENDBRANCH  20  21
ENDBRANCH  19  20
ENDBRANCH  18  19
ENDBRANCH  15  18
ENDBRANCH  11  12
TORSDOF 6
ENDMDL
MODEL       25
REMARK 921   NORMALIZED FREE ENERGY PREDICTED BY IDOCK:   -6.59 KCAL/MOL
REMARK 922        TOTAL FREE ENERGY PREDICTED BY IDOCK:  -10.20 KCAL/MOL
REMARK 923 INTER-LIGAND FREE ENERGY PREDICTED BY IDOCK:   -9.40 KCAL/MOL
REMARK 924 INTRA-LIGAND FREE ENERGY PREDICTED BY IDOCK:   -0.80 KCAL/MOL
REMARK 927      BINDING AFFINITY PREDICTED BY RF-SCORE:    0.00 PKD
ROOT
HETATM    1  O   UNL     1     -13.960   9.590  70.951  1.00  0.00    -0.472 OA 
HETATM    2  C   UNL     1     -12.694   9.314  71.169  1.00  0.00    -0.240 A  
HETATM    3  H   UNL     1     -14.241  10.131  70.222  1.00  0.00     0.000 HD 
HETATM    4  N   UNL     1     -12.309   8.571  72.167  1.00  0.00    -0.359 NA 
HETATM    5  C   UNL     1     -10.940   8.566  72.075  1.00  0.00    -0.340 A  
HETATM    6  C   UNL     1     -10.002   7.974  72.931  1.00  0.00    -0.360 A  
HETATM    7  C   UNL     1      -8.641   8.113  72.637  1.00  0.00    -0.262 A  
HETATM    8  C   UNL     1      -8.223   8.803  71.502  1.00  0.00    -0.190 A  
HETATM    9  C   UNL     1      -9.142   9.397  70.631  1.00  0.00    -0.292 A  
HETATM   10  C   UNL     1     -10.497   9.290  70.965  1.00  0.00    -0.314 A  
HETATM   11  N   UNL     1     -11.651   9.817  70.439  1.00  0.00    -0.264 NA 
ENDROOT
BRANCH  11  12
HETATM   12  C   UNL     1     -11.801  10.873  69.461  1.00  0.00    -0.332 C  
HETATM   13  C   UNL     1     -10.991  10.683  68.182  1.00  0.00    -0.321 C  
HETATM   14  C   UNL     1     -11.489  11.722  67.176  1.00  0.00    -0.295 C  
HETATM   15  N   UNL     1     -11.376  13.111  67.659  1.00  0.00    -0.281 NA 
HETATM   16  C   UNL     1     -12.021  13.297  68.968  1.00  0.00    -0.293 C  
HETATM   17  C   UNL     1     -11.572  12.282  70.017  1.00  0.00    -0.236 C  
BRANCH  15  18
HETATM   18  C   UNL     1     -10.001  13.630  67.646  1.00  0.00    -0.239 C  
BRANCH  18  19
HETATM   19  C   UNL     1      -9.680  14.432  66.382  1.00  0.00    -0.320 C  
BRANCH  19  20
HETATM   20  C   UNL     1     -10.941  15.001  65.729  1.00  0.00    -0.351 C  
BRANCH  20  21
HETATM   21  C   UNL     1     -10.774  16.463  65.376  1.00  0.00    -0.296 C  
HETATM   22  O   UNL     1     -11.193  16.950  64.329  1.00  0.00    -1.204 OA 
BRANCH  21  23
HETATM   23  C   UNL     1     -10.033  17.328  66.333  1.00  0.00    -0.319 A  
HETATM   24  C   UNL     1     -10.716  17.782  67.469  1.00  0.00    -0.315 A  
HETATM   25  C   UNL     1     -10.074  18.620  68.381  1.00  0.00    -0.426 A  
HETATM   26  C   UNL     1      -8.752  18.987  68.162  1.00  0.00    -0.316 A  
HETATM   27  C   UNL     1      -8.059  18.531  67.047  1.00  0.00    -0.254 A  
HETATM   28  F   UNL     1      -8.138  19.792  69.037  1.00  0.00    -0.366 F  
HETATM   29  C   UNL     1      -8.697  17.698  66.125  1.00  0.00    -0.141 A  
ENDBRANCH  21  23
ENDBRANCH  20  21
ENDBRANCH  19  20
ENDBRANCH  18  19
ENDBRANCH  15  18
ENDBRANCH  11  12
TORSDOF 6
ENDMDL
MODEL       26
REMARK 921   NORMALIZED FREE ENERGY PREDICTED BY IDOCK:   -6.58 KCAL/MOL
REMARK 922        TOTAL FREE ENERGY PREDICTED BY IDOCK:  -10.19 KCAL/MOL
REMARK 923 INTER-LIGAND FREE ENERGY PREDICTED BY IDOCK:   -8.63 KCAL/MOL
REMARK 924 INTRA-LIGAND FREE ENERGY PREDICTED BY IDOCK:   -1.56 KCAL/MOL
REMARK 927      BINDING AFFINITY PREDICTED BY RF-SCORE:    0.00 PKD
ROOT
HETATM    1  O   UNL     1     -10.901  16.339  68.226  1.00  0.00    -0.310 OA 
HETATM    2  C   UNL     1     -11.452  15.510  69.084  1.00  0.00    -0.348 A  
HETATM    3  H   UNL     1     -10.530  16.041  67.404  1.00  0.00     0.000 HD 
HETATM    4  N   UNL     1     -11.962  15.918  70.212  1.00  0.00    -0.343 NA 
HETATM    5  C   UNL     1     -12.380  14.766  70.829  1.00  0.00    -0.330 A  
HETATM    6  C   UNL     1     -12.949  14.604  72.099  1.00  0.00    -0.421 A  
HETATM    7  C   UNL     1     -13.290  13.314  72.524  1.00  0.00    -0.569 A  
HETATM    8  C   UNL     1     -13.095  12.214  71.693  1.00  0.00    -0.413 A  
HETATM    9  C   UNL     1     -12.533  12.354  70.419  1.00  0.00    -0.214 A  
HETATM   10  C   UNL     1     -12.154  13.643  70.028  1.00  0.00    -0.348 A  
HETATM   11  N   UNL     1     -11.491  14.149  68.937  1.00  0.00    -0.273 NA 
ENDROOT
BRANCH  11  12
HETATM   12  C   UNL     1     -10.755  13.439  67.914  1.00  0.00    -0.247 C  
HETATM   13  C   UNL     1     -11.607  12.889  66.774  1.00  0.00    -0.416 C  
HETATM   14  C   UNL     1     -10.647  12.435  65.673  1.00  0.00    -0.265 C  
HETATM   15  N   UNL     1      -9.670  11.426  66.123  1.00  0.00    -0.212 NA 
HETATM   16  C   UNL     1      -8.930  11.865  67.316  1.00  0.00    -0.176 C  
HETATM   17  C   UNL     1      -9.833  12.339  68.452  1.00  0.00    -0.199 C  
BRANCH  15  18
HETATM   18  C   UNL     1     -10.244  10.084  66.295  1.00  0.00    -0.215 C  
BRANCH  18  19
HETATM   19  C   UNL     1      -9.239   8.966  66.006  1.00  0.00    -0.287 C  
BRANCH  19  20
HETATM   20  C   UNL     1      -9.022   8.062  67.219  1.00  0.00    -0.148 C  
BRANCH  20  21
HETATM   21  C   UNL     1     -10.316   7.432  67.684  1.00  0.00    -0.231 C  
HETATM   22  O   UNL     1     -11.042   6.771  66.945  1.00  0.00    -0.397 OA 
BRANCH  21  23
HETATM   23  C   UNL     1     -10.736   7.666  69.092  1.00  0.00    -0.153 A  
HETATM   24  C   UNL     1     -11.360   6.612  69.773  1.00  0.00    -0.412 A  
HETATM   25  C   UNL     1     -11.799   6.791  71.085  1.00  0.00    -0.410 A  
HETATM   26  C   UNL     1     -11.600   8.013  71.714  1.00  0.00    -0.285 A  
HETATM   27  C   UNL     1     -10.969   9.063  71.054  1.00  0.00    -0.352 A  
HETATM   28  F   UNL     1     -12.023   8.185  72.972  1.00  0.00    -0.433 F  
HETATM   29  C   UNL     1     -10.534   8.894  69.738  1.00  0.00    -0.217 A  
ENDBRANCH  21  23
ENDBRANCH  20  21
ENDBRANCH  19  20
ENDBRANCH  18  19
ENDBRANCH  15  18
ENDBRANCH  11  12
TORSDOF 6
ENDMDL
MODEL       27
REMARK 921   NORMALIZED FREE ENERGY PREDICTED BY IDOCK:   -6.57 KCAL/MOL
REMARK 922        TOTAL FREE ENERGY PREDICTED BY IDOCK:  -10.19 KCAL/MOL
REMARK 923 INTER-LIGAND FREE ENERGY PREDICTED BY IDOCK:   -8.81 KCAL/MOL
REMARK 924 INTRA-LIGAND FREE ENERGY PREDICTED BY IDOCK:   -1.37 KCAL/MOL
REMARK 927      BINDING AFFINITY PREDICTED BY RF-SCORE:    0.00 PKD
ROOT
HETATM    1  O   UNL     1     -11.906  10.384  68.188  1.00  0.00    -0.761 OA 
HETATM    2  C   UNL     1     -11.966  11.563  68.766  1.00  0.00    -0.271 A  
HETATM    3  H   UNL     1     -12.020   9.577  68.676  1.00  0.00     0.000 HD 
HETATM    4  N   UNL     1     -11.811  12.671  68.097  1.00  0.00    -0.336 NA 
HETATM    5  C   UNL     1     -11.891  13.654  69.050  1.00  0.00    -0.352 A  
HETATM    6  C   UNL     1     -11.732  15.038  68.903  1.00  0.00    -0.354 A  
HETATM    7  C   UNL     1     -11.850  15.853  70.035  1.00  0.00    -0.322 A  
HETATM    8  C   UNL     1     -12.146  15.305  71.281  1.00  0.00    -0.407 A  
HETATM    9  C   UNL     1     -12.314  13.927  71.449  1.00  0.00    -0.383 A  
HETATM   10  C   UNL     1     -12.146  13.121  70.317  1.00  0.00    -0.328 A  
HETATM   11  N   UNL     1     -12.121  11.764  70.111  1.00  0.00    -0.328 NA 
ENDROOT
BRANCH  11  12
HETATM   12  C   UNL     1     -12.039  10.701  71.088  1.00  0.00    -0.341 C  
HETATM   13  C   UNL     1     -10.855   9.755  70.911  1.00  0.00    -0.399 C  
HETATM   14  C   UNL     1     -10.773   8.894  72.173  1.00  0.00    -0.253 C  
HETATM   15  N   UNL     1     -12.007   8.135  72.448  1.00  0.00    -0.371 NA 
HETATM   16  C   UNL     1     -13.196   9.000  72.480  1.00  0.00    -0.406 C  
HETATM   17  C   UNL     1     -13.331   9.893  71.249  1.00  0.00    -0.419 C  
BRANCH  15  18
HETATM   18  C   UNL     1     -12.195   6.975  71.565  1.00  0.00    -0.368 C  
BRANCH  18  19
HETATM   19  C   UNL     1     -11.373   5.758  71.998  1.00  0.00    -0.289 C  
BRANCH  19  20
HETATM   20  C   UNL     1     -10.651   5.104  70.819  1.00  0.00    -0.205 C  
BRANCH  20  21
HETATM   21  C   UNL     1      -9.462   5.923  70.370  1.00  0.00    -0.163 C  
HETATM   22  O   UNL     1      -8.435   6.033  71.035  1.00  0.00    -0.122 OA 
BRANCH  21  23
HETATM   23  C   UNL     1      -9.571   6.656  69.080  1.00  0.00    -0.133 A  
HETATM   24  C   UNL     1      -8.569   7.586  68.768  1.00  0.00    -0.129 A  
HETATM   25  C   UNL     1      -8.642   8.320  67.584  1.00  0.00    -0.130 A  
HETATM   26  C   UNL     1      -9.703   8.112  66.713  1.00  0.00    -0.235 A  
HETATM   27  C   UNL     1     -10.696   7.182  67.003  1.00  0.00    -0.420 A  
HETATM   28  F   UNL     1      -9.773   8.818  65.578  1.00  0.00    -0.275 F  
HETATM   29  C   UNL     1     -10.634   6.449  68.190  1.00  0.00    -0.314 A  
ENDBRANCH  21  23
ENDBRANCH  20  21
ENDBRANCH  19  20
ENDBRANCH  18  19
ENDBRANCH  15  18
ENDBRANCH  11  12
TORSDOF 6
ENDMDL
MODEL       28
REMARK 921   NORMALIZED FREE ENERGY PREDICTED BY IDOCK:   -6.56 KCAL/MOL
REMARK 922        TOTAL FREE ENERGY PREDICTED BY IDOCK:  -10.17 KCAL/MOL
REMARK 923 INTER-LIGAND FREE ENERGY PREDICTED BY IDOCK:   -9.20 KCAL/MOL
REMARK 924 INTRA-LIGAND FREE ENERGY PREDICTED BY IDOCK:   -0.97 KCAL/MOL
REMARK 927      BINDING AFFINITY PREDICTED BY RF-SCORE:    0.00 PKD
ROOT
HETATM    1  O   UNL     1     -11.121  16.921  68.400  1.00  0.00    -0.341 OA 
HETATM    2  C   UNL     1     -10.107  17.552  67.853  1.00  0.00    -0.330 A  
HETATM    3  H   UNL     1     -11.236  15.982  68.314  1.00  0.00     0.000 HD 
HETATM    4  N   UNL     1      -9.947  18.840  67.971  1.00  0.00    -0.337 NA 
HETATM    5  C   UNL     1      -8.824  19.110  67.231  1.00  0.00    -0.289 A  
HETATM    6  C   UNL     1      -8.226  20.347  66.957  1.00  0.00    -0.349 A  
HETATM    7  C   UNL     1      -7.077  20.377  66.159  1.00  0.00    -0.273 A  
HETATM    8  C   UNL     1      -6.518  19.199  65.668  1.00  0.00    -0.288 A  
HETATM    9  C   UNL     1      -7.095  17.953  65.934  1.00  0.00    -0.298 A  
HETATM   10  C   UNL     1      -8.271  17.944  66.694  1.00  0.00    -0.258 A  
HETATM   11  N   UNL     1      -9.161  16.964  67.057  1.00  0.00    -0.228 NA 
ENDROOT
BRANCH  11  12
HETATM   12  C   UNL     1      -9.274  15.612  66.555  1.00  0.00    -0.293 C  
HETATM   13  C   UNL     1     -10.611  15.278  65.901  1.00  0.00    -0.345 C  
HETATM   14  C   UNL     1     -10.442  13.933  65.192  1.00  0.00    -0.393 C  
HETATM   15  N   UNL     1     -10.019  12.843  66.091  1.00  0.00    -0.269 NA 
HETATM   16  C   UNL     1      -8.808  13.190  66.851  1.00  0.00    -0.179 C  
HETATM   17  C   UNL     1      -8.910  14.529  67.577  1.00  0.00    -0.193 C  
BRANCH  15  18
HETATM   18  C   UNL     1     -11.092  12.347  66.963  1.00  0.00    -0.278 C  
BRANCH  18  19
HETATM   19  C   UNL     1     -10.649  11.172  67.840  1.00  0.00    -0.235 C  
BRANCH  19  20
HETATM   20  C   UNL     1     -10.567  11.559  69.318  1.00  0.00    -0.120 C  
BRANCH  20  21
HETATM   21  C   UNL     1     -11.915  11.460  69.996  1.00  0.00    -0.363 C  
HETATM   22  O   UNL     1     -12.602  10.441  69.974  1.00  0.00    -0.219 OA 
BRANCH  21  23
HETATM   23  C   UNL     1     -12.438  12.671  70.683  1.00  0.00    -0.323 A  
HETATM   24  C   UNL     1     -13.204  12.487  71.843  1.00  0.00    -0.495 A  
HETATM   25  C   UNL     1     -13.741  13.590  72.507  1.00  0.00    -0.664 A  
HETATM   26  C   UNL     1     -13.500  14.868  72.019  1.00  0.00    -0.388 A  
HETATM   27  C   UNL     1     -12.729  15.065  70.879  1.00  0.00    -0.437 A  
HETATM   28  F   UNL     1     -14.017  15.925  72.656  1.00  0.00    -0.594 F  
HETATM   29  C   UNL     1     -12.194  13.965  70.204  1.00  0.00    -0.425 A  
ENDBRANCH  21  23
ENDBRANCH  20  21
ENDBRANCH  19  20
ENDBRANCH  18  19
ENDBRANCH  15  18
ENDBRANCH  11  12
TORSDOF 6
ENDMDL
MODEL       29
REMARK 921   NORMALIZED FREE ENERGY PREDICTED BY IDOCK:   -6.56 KCAL/MOL
REMARK 922        TOTAL FREE ENERGY PREDICTED BY IDOCK:  -10.16 KCAL/MOL
REMARK 923 INTER-LIGAND FREE ENERGY PREDICTED BY IDOCK:   -8.87 KCAL/MOL
REMARK 924 INTRA-LIGAND FREE ENERGY PREDICTED BY IDOCK:   -1.29 KCAL/MOL
REMARK 927      BINDING AFFINITY PREDICTED BY RF-SCORE:    0.00 PKD
ROOT
HETATM    1  O   UNL     1     -12.895  16.229  72.196  1.00  0.00    -0.445 OA 
HETATM    2  C   UNL     1     -12.841  14.985  71.776  1.00  0.00    -0.338 A  
HETATM    3  H   UNL     1     -12.519  16.946  71.700  1.00  0.00     0.000 HD 
HETATM    4  N   UNL     1     -13.357  14.001  72.456  1.00  0.00    -0.503 NA 
HETATM    5  C   UNL     1     -13.053  12.885  71.718  1.00  0.00    -0.360 A  
HETATM    6  C   UNL     1     -13.311  11.539  72.010  1.00  0.00    -0.397 A  
HETATM    7  C   UNL     1     -12.892  10.562  71.101  1.00  0.00    -0.513 A  
HETATM    8  C   UNL     1     -12.256  10.917  69.913  1.00  0.00    -0.408 A  
HETATM    9  C   UNL     1     -11.994  12.254  69.599  1.00  0.00    -0.347 A  
HETATM   10  C   UNL     1     -12.376  13.217  70.541  1.00  0.00    -0.304 A  
HETATM   11  N   UNL     1     -12.194  14.574  70.642  1.00  0.00    -0.307 NA 
ENDROOT
BRANCH  11  12
HETATM   12  C   UNL     1     -11.319  15.430  69.871  1.00  0.00    -0.304 C  
HETATM   13  C   UNL     1     -11.763  15.673  68.431  1.00  0.00    -0.301 C  
HETATM   14  C   UNL     1     -10.893  16.803  67.877  1.00  0.00    -0.311 C  
HETATM   15  N   UNL     1      -9.448  16.516  67.932  1.00  0.00    -0.219 NA 
HETATM   16  C   UNL     1      -9.011  16.132  69.284  1.00  0.00    -0.200 C  
HETATM   17  C   UNL     1      -9.845  15.011  69.897  1.00  0.00     0.019 C  
BRANCH  15  18
HETATM   18  C   UNL     1      -8.998  15.554  66.916  1.00  0.00    -0.246 C  
BRANCH  18  19
HETATM   19  C   UNL     1      -7.892  14.626  67.424  1.00  0.00    -0.225 C  
BRANCH  19  20
HETATM   20  C   UNL     1      -7.920  13.265  66.727  1.00  0.00     0.303 C  
BRANCH  20  21
HETATM   21  C   UNL     1      -9.167  12.484  67.080  1.00  0.00    -0.214 C  
HETATM   22  O   UNL     1      -9.349  11.977  68.184  1.00  0.00    -0.188 OA 
BRANCH  21  23
HETATM   23  C   UNL     1     -10.191  12.296  66.018  1.00  0.00    -0.267 A  
HETATM   24  C   UNL     1      -9.845  11.521  64.902  1.00  0.00    -0.289 A  
HETATM   25  C   UNL     1     -10.760  11.339  63.866  1.00  0.00    -0.451 A  
HETATM   26  C   UNL     1     -12.019  11.919  63.955  1.00  0.00    -0.402 A  
HETATM   27  C   UNL     1     -12.382  12.677  65.062  1.00  0.00    -0.561 A  
HETATM   28  F   UNL     1     -12.897  11.746  62.959  1.00  0.00    -0.698 F  
HETATM   29  C   UNL     1     -11.467  12.870  66.101  1.00  0.00    -0.393 A  
ENDBRANCH  21  23
ENDBRANCH  20  21
ENDBRANCH  19  20
ENDBRANCH  18  19
ENDBRANCH  15  18
ENDBRANCH  11  12
TORSDOF 6
ENDMDL
MODEL       30
REMARK 921   NORMALIZED FREE ENERGY PREDICTED BY IDOCK:   -6.55 KCAL/MOL
REMARK 922        TOTAL FREE ENERGY PREDICTED BY IDOCK:  -10.16 KCAL/MOL
REMARK 923 INTER-LIGAND FREE ENERGY PREDICTED BY IDOCK:   -8.11 KCAL/MOL
REMARK 924 INTRA-LIGAND FREE ENERGY PREDICTED BY IDOCK:   -2.05 KCAL/MOL
REMARK 927      BINDING AFFINITY PREDICTED BY RF-SCORE:    0.00 PKD
ROOT
HETATM    1  O   UNL     1     -12.563  13.573  71.632  1.00  0.00    -0.304 OA 
HETATM    2  C   UNL     1     -12.249  13.164  70.423  1.00  0.00    -0.316 A  
HETATM    3  H   UNL     1     -12.487  13.007  72.391  1.00  0.00     0.000 HD 
HETATM    4  N   UNL     1     -12.352  13.941  69.381  1.00  0.00    -0.282 NA 
HETATM    5  C   UNL     1     -11.985  13.142  68.328  1.00  0.00    -0.291 A  
HETATM    6  C   UNL     1     -11.970  13.441  66.959  1.00  0.00    -0.429 A  
HETATM    7  C   UNL     1     -11.563  12.450  66.059  1.00  0.00    -0.455 A  
HETATM    8  C   UNL     1     -11.152  11.198  66.512  1.00  0.00    -0.233 A  
HETATM    9  C   UNL     1     -11.154  10.880  67.874  1.00  0.00    -0.362 A  
HETATM   10  C   UNL     1     -11.609  11.866  68.758  1.00  0.00    -0.309 A  
HETATM   11  N   UNL     1     -11.856  11.892  70.108  1.00  0.00    -0.330 NA 
ENDROOT
BRANCH  11  12
HETATM   12  C   UNL     1     -11.930  10.785  71.036  1.00  0.00    -0.304 C  
HETATM   13  C   UNL     1     -10.788   9.778  70.929  1.00  0.00    -0.399 C  
HETATM   14  C   UNL     1     -10.880   8.861  72.150  1.00  0.00    -0.268 C  
HETATM   15  N   UNL     1     -12.174   8.165  72.268  1.00  0.00    -0.349 NA 
HETATM   16  C   UNL     1     -13.311   9.098  72.227  1.00  0.00    -0.477 C  
HETATM   17  C   UNL     1     -13.274  10.048  71.033  1.00  0.00    -0.399 C  
BRANCH  15  18
HETATM   18  C   UNL     1     -12.338   7.057  71.316  1.00  0.00    -0.383 C  
BRANCH  18  19
HETATM   19  C   UNL     1     -11.455   5.852  71.650  1.00  0.00    -0.238 C  
BRANCH  19  20
HETATM   20  C   UNL     1     -10.653   5.374  70.438  1.00  0.00    -0.322 C  
BRANCH  20  21
HETATM   21  C   UNL     1      -9.447   6.252  70.187  1.00  0.00    -0.159 C  
HETATM   22  O   UNL     1      -8.570   6.440  71.027  1.00  0.00    -0.129 OA 
BRANCH  21  23
HETATM   23  C   UNL     1      -9.353   6.942  68.873  1.00  0.00    -0.134 A  
HETATM   24  C   UNL     1     -10.467   6.890  68.024  1.00  0.00    -0.255 A  
HETATM   25  C   UNL     1     -10.418   7.497  66.769  1.00  0.00    -0.319 A  
HETATM   26  C   UNL     1      -9.264   8.163  66.374  1.00  0.00    -0.199 A  
HETATM   27  C   UNL     1      -8.157   8.235  67.213  1.00  0.00    -0.109 A  
HETATM   28  F   UNL     1      -9.217   8.743  65.169  1.00  0.00    -0.236 F  
HETATM   29  C   UNL     1      -8.196   7.623  68.468  1.00  0.00    -0.125 A  
ENDBRANCH  21  23
ENDBRANCH  20  21
ENDBRANCH  19  20
ENDBRANCH  18  19
ENDBRANCH  15  18
ENDBRANCH  11  12
TORSDOF 6
ENDMDL
MODEL       31
REMARK 921   NORMALIZED FREE ENERGY PREDICTED BY IDOCK:   -6.54 KCAL/MOL
REMARK 922        TOTAL FREE ENERGY PREDICTED BY IDOCK:  -10.14 KCAL/MOL
REMARK 923 INTER-LIGAND FREE ENERGY PREDICTED BY IDOCK:   -9.29 KCAL/MOL
REMARK 924 INTRA-LIGAND FREE ENERGY PREDICTED BY IDOCK:   -0.84 KCAL/MOL
REMARK 927      BINDING AFFINITY PREDICTED BY RF-SCORE:    0.00 PKD
ROOT
HETATM    1  O   UNL     1      -8.295   8.041  69.354  1.00  0.00    -0.127 OA 
HETATM    2  C   UNL     1      -9.325   8.638  69.909  1.00  0.00    -0.159 A  
HETATM    3  H   UNL     1      -7.840   8.411  68.606  1.00  0.00     0.000 HD 
HETATM    4  N   UNL     1      -9.950   8.131  70.934  1.00  0.00    -0.186 NA 
HETATM    5  C   UNL     1     -10.972   9.013  71.176  1.00  0.00    -0.301 A  
HETATM    6  C   UNL     1     -11.997   8.933  72.128  1.00  0.00    -0.419 A  
HETATM    7  C   UNL     1     -12.947   9.960  72.181  1.00  0.00    -0.471 A  
HETATM    8  C   UNL     1     -12.862  11.056  71.326  1.00  0.00    -0.528 A  
HETATM    9  C   UNL     1     -11.844  11.158  70.372  1.00  0.00    -0.462 A  
HETATM   10  C   UNL     1     -10.931  10.100  70.299  1.00  0.00    -0.317 A  
HETATM   11  N   UNL     1      -9.896   9.794  69.450  1.00  0.00    -0.192 NA 
ENDROOT
BRANCH  11  12
HETATM   12  C   UNL     1      -9.561  10.395  68.178  1.00  0.00    -0.144 C  
HETATM   13  C   UNL     1      -9.365  11.908  68.214  1.00  0.00    -0.193 C  
HETATM   14  C   UNL     1      -8.747  12.314  66.874  1.00  0.00    -0.197 C  
HETATM   15  N   UNL     1      -9.562  11.924  65.708  1.00  0.00    -0.237 NA 
HETATM   16  C   UNL     1      -9.896  10.492  65.719  1.00  0.00    -0.237 C  
HETATM   17  C   UNL     1     -10.510  10.021  67.035  1.00  0.00    -0.302 C  
BRANCH  15  18
HETATM   18  C   UNL     1     -10.752  12.764  65.513  1.00  0.00    -0.278 C  
BRANCH  18  19
HETATM   19  C   UNL     1     -10.415  14.156  64.970  1.00  0.00    -0.447 C  
BRANCH  19  20
HETATM   20  C   UNL     1     -10.847  15.266  65.929  1.00  0.00    -0.345 C  
BRANCH  20  21
HETATM   21  C   UNL     1     -10.841  16.619  65.254  1.00  0.00    -0.183 C  
HETATM   22  O   UNL     1     -11.422  16.841  64.194  1.00  0.00    -1.171 OA 
BRANCH  21  23
HETATM   23  C   UNL     1     -10.059  17.711  65.893  1.00  0.00    -0.192 A  
HETATM   24  C   UNL     1      -8.793  17.397  66.405  1.00  0.00    -0.273 A  
HETATM   25  C   UNL     1      -8.033  18.378  67.041  1.00  0.00    -0.238 A  
HETATM   26  C   UNL     1      -8.534  19.669  67.150  1.00  0.00    -0.304 A  
HETATM   27  C   UNL     1      -9.782  19.998  66.633  1.00  0.00    -0.566 A  
HETATM   28  F   UNL     1      -7.805  20.610  67.761  1.00  0.00    -0.323 F  
HETATM   29  C   UNL     1     -10.552  19.019  66.002  1.00  0.00    -0.499 A  
ENDBRANCH  21  23
ENDBRANCH  20  21
ENDBRANCH  19  20
ENDBRANCH  18  19
ENDBRANCH  15  18
ENDBRANCH  11  12
TORSDOF 6
ENDMDL
MODEL       32
REMARK 921   NORMALIZED FREE ENERGY PREDICTED BY IDOCK:   -6.51 KCAL/MOL
REMARK 922        TOTAL FREE ENERGY PREDICTED BY IDOCK:  -10.09 KCAL/MOL
REMARK 923 INTER-LIGAND FREE ENERGY PREDICTED BY IDOCK:   -9.21 KCAL/MOL
REMARK 924 INTRA-LIGAND FREE ENERGY PREDICTED BY IDOCK:   -0.89 KCAL/MOL
REMARK 927      BINDING AFFINITY PREDICTED BY RF-SCORE:    0.00 PKD
ROOT
HETATM    1  O   UNL     1     -10.310   7.063  66.440  1.00  0.00    -0.472 OA 
HETATM    2  C   UNL     1     -10.508   7.358  67.705  1.00  0.00    -0.241 A  
HETATM    3  H   UNL     1     -10.003   7.707  65.813  1.00  0.00     0.000 HD 
HETATM    4  N   UNL     1     -10.929   6.474  68.565  1.00  0.00    -0.291 NA 
HETATM    5  C   UNL     1     -11.052   7.176  69.737  1.00  0.00    -0.210 A  
HETATM    6  C   UNL     1     -11.527   6.738  70.980  1.00  0.00    -0.372 A  
HETATM    7  C   UNL     1     -11.572   7.648  72.042  1.00  0.00    -0.334 A  
HETATM    8  C   UNL     1     -11.127   8.958  71.879  1.00  0.00    -0.442 A  
HETATM    9  C   UNL     1     -10.644   9.415  70.648  1.00  0.00    -0.354 A  
HETATM   10  C   UNL     1     -10.651   8.506  69.584  1.00  0.00    -0.220 A  
HETATM   11  N   UNL     1     -10.370   8.609  68.243  1.00  0.00    -0.212 NA 
ENDROOT
BRANCH  11  12
HETATM   12  C   UNL     1     -10.183   9.801  67.446  1.00  0.00    -0.230 C  
HETATM   13  C   UNL     1      -8.934  10.611  67.785  1.00  0.00    -0.140 C  
HETATM   14  C   UNL     1      -8.755  11.648  66.675  1.00  0.00    -0.187 C  
HETATM   15  N   UNL     1      -9.920  12.537  66.507  1.00  0.00    -0.238 NA 
HETATM   16  C   UNL     1     -11.170  11.785  66.325  1.00  0.00    -0.312 C  
HETATM   17  C   UNL     1     -11.404  10.725  67.398  1.00  0.00    -0.239 C  
BRANCH  15  18
HETATM   18  C   UNL     1     -10.040  13.557  67.559  1.00  0.00    -0.234 C  
BRANCH  18  19
HETATM   19  C   UNL     1     -10.793  14.806  67.092  1.00  0.00    -0.311 C  
BRANCH  19  20
HETATM   20  C   UNL     1     -10.463  15.166  65.643  1.00  0.00    -0.378 C  
BRANCH  20  21
HETATM   21  C   UNL     1     -10.558  16.656  65.403  1.00  0.00    -0.237 C  
HETATM   22  O   UNL     1     -11.164  17.144  64.452  1.00  0.00    -1.143 OA 
BRANCH  21  23
HETATM   23  C   UNL     1      -9.847  17.558  66.348  1.00  0.00    -0.316 A  
HETATM   24  C   UNL     1      -8.456  17.421  66.463  1.00  0.00    -0.298 A  
HETATM   25  C   UNL     1      -7.747  18.222  67.357  1.00  0.00    -0.222 A  
HETATM   26  C   UNL     1      -8.425  19.165  68.120  1.00  0.00    -0.320 A  
HETATM   27  C   UNL     1      -9.802  19.321  68.004  1.00  0.00    -0.454 A  
HETATM   28  F   UNL     1      -7.745  19.932  68.978  1.00  0.00    -0.354 F  
HETATM   29  C   UNL     1     -10.520  18.517  67.117  1.00  0.00    -0.446 A  
ENDBRANCH  21  23
ENDBRANCH  20  21
ENDBRANCH  19  20
ENDBRANCH  18  19
ENDBRANCH  15  18
ENDBRANCH  11  12
TORSDOF 6
ENDMDL
MODEL       33
REMARK 921   NORMALIZED FREE ENERGY PREDICTED BY IDOCK:   -6.48 KCAL/MOL
REMARK 922        TOTAL FREE ENERGY PREDICTED BY IDOCK:  -10.05 KCAL/MOL
REMARK 923 INTER-LIGAND FREE ENERGY PREDICTED BY IDOCK:   -9.02 KCAL/MOL
REMARK 924 INTRA-LIGAND FREE ENERGY PREDICTED BY IDOCK:   -1.04 KCAL/MOL
REMARK 927      BINDING AFFINITY PREDICTED BY RF-SCORE:    0.00 PKD
ROOT
HETATM    1  O   UNL     1     -10.890  19.186  66.171  1.00  0.00    -0.366 OA 
HETATM    2  C   UNL     1      -9.922  18.737  66.938  1.00  0.00    -0.346 A  
HETATM    3  H   UNL     1     -11.580  18.620  65.846  1.00  0.00     0.000 HD 
HETATM    4  N   UNL     1      -8.975  19.513  67.386  1.00  0.00    -0.299 NA 
HETATM    5  C   UNL     1      -8.154  18.670  68.090  1.00  0.00    -0.294 A  
HETATM    6  C   UNL     1      -6.943  18.957  68.735  1.00  0.00    -0.332 A  
HETATM    7  C   UNL     1      -6.268  17.920  69.389  1.00  0.00    -0.248 A  
HETATM    8  C   UNL     1      -6.798  16.633  69.424  1.00  0.00    -0.218 A  
HETATM    9  C   UNL     1      -8.008  16.326  68.792  1.00  0.00    -0.221 A  
HETATM   10  C   UNL     1      -8.647  17.363  68.102  1.00  0.00    -0.248 A  
HETATM   11  N   UNL     1      -9.754  17.425  67.292  1.00  0.00    -0.261 NA 
ENDROOT
BRANCH  11  12
HETATM   12  C   UNL     1     -10.507  16.340  66.702  1.00  0.00    -0.290 C  
HETATM   13  C   UNL     1     -11.184  15.409  67.703  1.00  0.00    -0.311 C  
HETATM   14  C   UNL     1     -12.145  14.520  66.912  1.00  0.00    -0.281 C  
HETATM   15  N   UNL     1     -11.486  13.743  65.846  1.00  0.00    -0.315 NA 
HETATM   16  C   UNL     1     -10.699  14.597  64.944  1.00  0.00    -0.427 C  
HETATM   17  C   UNL     1      -9.723  15.517  65.674  1.00  0.00    -0.355 C  
BRANCH  15  18
HETATM   18  C   UNL     1     -10.704  12.602  66.345  1.00  0.00    -0.255 C  
BRANCH  18  19
HETATM   19  C   UNL     1     -11.429  11.818  67.441  1.00  0.00    -0.375 C  
BRANCH  19  20
HETATM   20  C   UNL     1     -10.712  11.917  68.788  1.00  0.00    -0.257 C  
BRANCH  20  21
HETATM   21  C   UNL     1     -11.684  11.845  69.944  1.00  0.00    -0.308 C  
HETATM   22  O   UNL     1     -12.223  12.838  70.428  1.00  0.00    -0.350 OA 
BRANCH  21  23
HETATM   23  C   UNL     1     -11.960  10.509  70.537  1.00  0.00    -0.436 A  
HETATM   24  C   UNL     1     -10.981   9.516  70.399  1.00  0.00    -0.333 A  
HETATM   25  C   UNL     1     -11.204   8.239  70.912  1.00  0.00    -0.292 A  
HETATM   26  C   UNL     1     -12.395   7.963  71.571  1.00  0.00    -0.315 A  
HETATM   27  C   UNL     1     -13.369   8.944  71.729  1.00  0.00    -0.436 A  
HETATM   28  F   UNL     1     -12.610   6.737  72.061  1.00  0.00    -0.356 F  
HETATM   29  C   UNL     1     -13.155  10.223  71.211  1.00  0.00    -0.492 A  
ENDBRANCH  21  23
ENDBRANCH  20  21
ENDBRANCH  19  20
ENDBRANCH  18  19
ENDBRANCH  15  18
ENDBRANCH  11  12
TORSDOF 6
ENDMDL
MODEL       34
REMARK 921   NORMALIZED FREE ENERGY PREDICTED BY IDOCK:   -6.46 KCAL/MOL
REMARK 922        TOTAL FREE ENERGY PREDICTED BY IDOCK:  -10.04 KCAL/MOL
REMARK 923 INTER-LIGAND FREE ENERGY PREDICTED BY IDOCK:   -8.74 KCAL/MOL
REMARK 924 INTRA-LIGAND FREE ENERGY PREDICTED BY IDOCK:   -1.30 KCAL/MOL
REMARK 927      BINDING AFFINITY PREDICTED BY RF-SCORE:    0.00 PKD
ROOT
HETATM    1  O   UNL     1     -12.340  10.571  68.713  1.00  0.00    -0.790 OA 
HETATM    2  C   UNL     1     -11.473   9.925  69.458  1.00  0.00    -0.068 A  
HETATM    3  H   UNL     1     -12.189  10.735  67.789  1.00  0.00     0.000 HD 
HETATM    4  N   UNL     1     -11.680   9.699  70.725  1.00  0.00    -0.297 NA 
HETATM    5  C   UNL     1     -10.543   9.056  71.143  1.00  0.00    -0.290 A  
HETATM    6  C   UNL     1     -10.194   8.633  72.432  1.00  0.00    -0.319 A  
HETATM    7  C   UNL     1      -8.960   7.999  72.621  1.00  0.00    -0.280 A  
HETATM    8  C   UNL     1      -8.105   7.767  71.547  1.00  0.00    -0.107 A  
HETATM    9  C   UNL     1      -8.435   8.176  70.251  1.00  0.00    -0.126 A  
HETATM   10  C   UNL     1      -9.651   8.851  70.086  1.00  0.00    -0.180 A  
HETATM   11  N   UNL     1     -10.251   9.484  69.026  1.00  0.00    -0.192 NA 
ENDROOT
BRANCH  11  12
HETATM   12  C   UNL     1      -9.679   9.851  67.749  1.00  0.00    -0.150 C  
HETATM   13  C   UNL     1      -9.952  11.288  67.312  1.00  0.00    -0.208 C  
HETATM   14  C   UNL     1      -9.050  11.572  66.110  1.00  0.00    -0.209 C  
HETATM   15  N   UNL     1      -9.256  10.640  64.986  1.00  0.00    -0.199 NA 
HETATM   16  C   UNL     1      -9.145   9.234  65.404  1.00  0.00    -0.222 C  
HETATM   17  C   UNL     1     -10.017   8.887  66.607  1.00  0.00    -0.346 C  
BRANCH  15  18
HETATM   18  C   UNL     1     -10.490  10.893  64.228  1.00  0.00    -0.335 C  
BRANCH  18  19
HETATM   19  C   UNL     1     -10.609  12.344  63.753  1.00  0.00    -0.486 C  
BRANCH  19  20
HETATM   20  C   UNL     1     -12.056  12.836  63.773  1.00  0.00    -0.596 C  
BRANCH  20  21
HETATM   21  C   UNL     1     -12.165  14.223  64.366  1.00  0.00    -0.447 C  
HETATM   22  O   UNL     1     -12.623  15.182  63.748  1.00  0.00    -0.752 OA 
BRANCH  21  23
HETATM   23  C   UNL     1     -11.653  14.430  65.747  1.00  0.00    -0.353 A  
HETATM   24  C   UNL     1     -12.393  13.888  66.808  1.00  0.00    -0.370 A  
HETATM   25  C   UNL     1     -11.971  14.079  68.123  1.00  0.00    -0.382 A  
HETATM   26  C   UNL     1     -10.808  14.796  68.373  1.00  0.00    -0.245 A  
HETATM   27  C   UNL     1     -10.056  15.326  67.329  1.00  0.00    -0.236 A  
HETATM   28  F   UNL     1     -10.404  14.980  69.635  1.00  0.00    -0.222 F  
HETATM   29  C   UNL     1     -10.477  15.145  66.010  1.00  0.00    -0.330 A  
ENDBRANCH  21  23
ENDBRANCH  20  21
ENDBRANCH  19  20
ENDBRANCH  18  19
ENDBRANCH  15  18
ENDBRANCH  11  12
TORSDOF 6
ENDMDL
MODEL       35
REMARK 921   NORMALIZED FREE ENERGY PREDICTED BY IDOCK:   -6.41 KCAL/MOL
REMARK 922        TOTAL FREE ENERGY PREDICTED BY IDOCK:   -9.97 KCAL/MOL
REMARK 923 INTER-LIGAND FREE ENERGY PREDICTED BY IDOCK:   -8.77 KCAL/MOL
REMARK 924 INTRA-LIGAND FREE ENERGY PREDICTED BY IDOCK:   -1.20 KCAL/MOL
REMARK 927      BINDING AFFINITY PREDICTED BY RF-SCORE:    0.00 PKD
ROOT
HETATM    1  O   UNL     1     -12.622  10.510  69.463  1.00  0.00    -0.645 OA 
HETATM    2  C   UNL     1     -11.647   9.903  70.101  1.00  0.00    -0.218 A  
HETATM    3  H   UNL     1     -12.505  10.874  68.593  1.00  0.00     0.000 HD 
HETATM    4  N   UNL     1     -11.806   9.404  71.295  1.00  0.00    -0.333 NA 
HETATM    5  C   UNL     1     -10.568   8.913  71.623  1.00  0.00    -0.352 A  
HETATM    6  C   UNL     1     -10.144   8.321  72.819  1.00  0.00    -0.333 A  
HETATM    7  C   UNL     1      -8.813   7.902  72.928  1.00  0.00    -0.261 A  
HETATM    8  C   UNL     1      -7.931   8.043  71.860  1.00  0.00    -0.140 A  
HETATM    9  C   UNL     1      -8.334   8.626  70.654  1.00  0.00    -0.157 A  
HETATM   10  C   UNL     1      -9.655   9.083  70.578  1.00  0.00    -0.219 A  
HETATM   11  N   UNL     1     -10.365   9.787  69.637  1.00  0.00    -0.220 NA 
ENDROOT
BRANCH  11  12
HETATM   12  C   UNL     1      -9.874  10.493  68.473  1.00  0.00    -0.168 C  
HETATM   13  C   UNL     1      -9.823  12.011  68.617  1.00  0.00    -0.126 C  
HETATM   14  C   UNL     1      -9.026  12.549  67.426  1.00  0.00    -0.188 C  
HETATM   15  N   UNL     1      -9.595  12.171  66.119  1.00  0.00    -0.240 NA 
HETATM   16  C   UNL     1      -9.797  10.719  66.001  1.00  0.00    -0.235 C  
HETATM   17  C   UNL     1     -10.580  10.118  67.166  1.00  0.00    -0.308 C  
BRANCH  15  18
HETATM   18  C   UNL     1     -10.804  12.925  65.761  1.00  0.00    -0.269 C  
BRANCH  18  19
HETATM   19  C   UNL     1     -10.758  14.381  66.232  1.00  0.00    -0.307 C  
BRANCH  19  20
HETATM   20  C   UNL     1     -11.872  14.696  67.231  1.00  0.00    -0.375 C  
BRANCH  20  21
HETATM   21  C   UNL     1     -11.391  15.619  68.329  1.00  0.00    -0.356 C  
HETATM   22  O   UNL     1     -10.673  16.594  68.118  1.00  0.00    -0.323 OA 
BRANCH  21  23
HETATM   23  C   UNL     1     -11.781  15.296  69.728  1.00  0.00    -0.347 A  
HETATM   24  C   UNL     1     -12.444  14.083  69.960  1.00  0.00    -0.339 A  
HETATM   25  C   UNL     1     -12.857  13.748  71.249  1.00  0.00    -0.434 A  
HETATM   26  C   UNL     1     -12.593  14.616  72.301  1.00  0.00    -0.322 A  
HETATM   27  C   UNL     1     -11.922  15.815  72.087  1.00  0.00    -0.580 A  
HETATM   28  F   UNL     1     -12.990  14.294  73.537  1.00  0.00    -0.569 F  
HETATM   29  C   UNL     1     -11.513  16.161  70.797  1.00  0.00    -0.408 A  
ENDBRANCH  21  23
ENDBRANCH  20  21
ENDBRANCH  19  20
ENDBRANCH  18  19
ENDBRANCH  15  18
ENDBRANCH  11  12
TORSDOF 6
ENDMDL
MODEL       36
REMARK 921   NORMALIZED FREE ENERGY PREDICTED BY IDOCK:   -6.36 KCAL/MOL
REMARK 922        TOTAL FREE ENERGY PREDICTED BY IDOCK:   -9.90 KCAL/MOL
REMARK 923 INTER-LIGAND FREE ENERGY PREDICTED BY IDOCK:   -8.98 KCAL/MOL
REMARK 924 INTRA-LIGAND FREE ENERGY PREDICTED BY IDOCK:   -0.92 KCAL/MOL
REMARK 927      BINDING AFFINITY PREDICTED BY RF-SCORE:    0.00 PKD
ROOT
HETATM    1  O   UNL     1     -10.128   4.486  72.278  1.00  0.00    -0.178 OA 
HETATM    2  C   UNL     1     -10.189   4.670  70.978  1.00  0.00    -0.136 A  
HETATM    3  H   UNL     1     -10.522   5.094  72.892  1.00  0.00     0.000 HD 
HETATM    4  N   UNL     1      -9.650   3.836  70.135  1.00  0.00    -0.193 NA 
HETATM    5  C   UNL     1      -9.886   4.399  68.906  1.00  0.00    -0.093 A  
HETATM    6  C   UNL     1      -9.473   3.959  67.642  1.00  0.00    -0.233 A  
HETATM    7  C   UNL     1      -9.829   4.713  66.518  1.00  0.00    -0.241 A  
HETATM    8  C   UNL     1     -10.604   5.863  66.646  1.00  0.00    -0.330 A  
HETATM    9  C   UNL     1     -11.033   6.317  67.898  1.00  0.00    -0.421 A  
HETATM   10  C   UNL     1     -10.627   5.579  69.016  1.00  0.00    -0.201 A  
HETATM   11  N   UNL     1     -10.748   5.762  70.371  1.00  0.00    -0.295 NA 
ENDROOT
BRANCH  11  12
HETATM   12  C   UNL     1     -11.163   6.946  71.092  1.00  0.00    -0.274 C  
HETATM   13  C   UNL     1     -12.668   7.194  71.108  1.00  0.00    -0.363 C  
HETATM   14  C   UNL     1     -12.932   8.299  72.133  1.00  0.00    -0.299 C  
HETATM   15  N   UNL     1     -12.204   9.549  71.850  1.00  0.00    -0.374 NA 
HETATM   16  C   UNL     1     -10.760   9.324  71.681  1.00  0.00    -0.323 C  
HETATM   17  C   UNL     1     -10.430   8.225  70.675  1.00  0.00    -0.224 C  
BRANCH  15  18
HETATM   18  C   UNL     1     -12.772  10.326  70.739  1.00  0.00    -0.346 C  
BRANCH  18  19
HETATM   19  C   UNL     1     -12.121  11.702  70.581  1.00  0.00    -0.432 C  
BRANCH  19  20
HETATM   20  C   UNL     1     -11.411  11.849  69.235  1.00  0.00    -0.338 C  
BRANCH  20  21
HETATM   21  C   UNL     1     -11.824  13.118  68.523  1.00  0.00    -0.342 C  
HETATM   22  O   UNL     1     -12.184  14.132  69.116  1.00  0.00    -0.335 OA 
BRANCH  21  23
HETATM   23  C   UNL     1     -11.826  13.111  67.035  1.00  0.00    -0.435 A  
HETATM   24  C   UNL     1     -12.326  14.242  66.375  1.00  0.00    -0.378 A  
HETATM   25  C   UNL     1     -12.377  14.272  64.982  1.00  0.00    -0.434 A  
HETATM   26  C   UNL     1     -11.917  13.181  64.256  1.00  0.00    -0.411 A  
HETATM   27  C   UNL     1     -11.406  12.058  64.897  1.00  0.00    -0.366 A  
HETATM   28  F   UNL     1     -11.968  13.209  62.919  1.00  0.00    -0.571 F  
HETATM   29  C   UNL     1     -11.358  12.018  66.293  1.00  0.00    -0.415 A  
ENDBRANCH  21  23
ENDBRANCH  20  21
ENDBRANCH  19  20
ENDBRANCH  18  19
ENDBRANCH  15  18
ENDBRANCH  11  12
TORSDOF 6
ENDMDL
MODEL       37
REMARK 921   NORMALIZED FREE ENERGY PREDICTED BY IDOCK:   -6.35 KCAL/MOL
REMARK 922        TOTAL FREE ENERGY PREDICTED BY IDOCK:   -9.88 KCAL/MOL
REMARK 923 INTER-LIGAND FREE ENERGY PREDICTED BY IDOCK:   -9.06 KCAL/MOL
REMARK 924 INTRA-LIGAND FREE ENERGY PREDICTED BY IDOCK:   -0.82 KCAL/MOL
REMARK 927      BINDING AFFINITY PREDICTED BY RF-SCORE:    0.00 PKD
ROOT
HETATM    1  O   UNL     1     -12.027  10.244  69.047  1.00  0.00    -0.541 OA 
HETATM    2  C   UNL     1     -12.245  11.331  69.753  1.00  0.00    -0.275 A  
HETATM    3  H   UNL     1     -11.519  10.258  68.245  1.00  0.00     0.000 HD 
HETATM    4  N   UNL     1     -12.942  11.313  70.855  1.00  0.00    -0.224 NA 
HETATM    5  C   UNL     1     -12.978  12.625  71.252  1.00  0.00    -0.214 A  
HETATM    6  C   UNL     1     -13.645  13.197  72.343  1.00  0.00    -0.667 A  
HETATM    7  C   UNL     1     -13.545  14.578  72.545  1.00  0.00    -0.586 A  
HETATM    8  C   UNL     1     -12.774  15.369  71.696  1.00  0.00    -0.480 A  
HETATM    9  C   UNL     1     -12.094  14.819  70.604  1.00  0.00    -0.374 A  
HETATM   10  C   UNL     1     -12.244  13.444  70.388  1.00  0.00    -0.345 A  
HETATM   11  N   UNL     1     -11.841  12.588  69.393  1.00  0.00    -0.316 NA 
ENDROOT
BRANCH  11  12
HETATM   12  C   UNL     1     -11.297  12.905  68.091  1.00  0.00    -0.289 C  
HETATM   13  C   UNL     1      -9.819  13.287  68.088  1.00  0.00    -0.231 C  
HETATM   14  C   UNL     1      -9.363  13.305  66.628  1.00  0.00    -0.242 C  
HETATM   15  N   UNL     1     -10.138  14.229  65.780  1.00  0.00    -0.322 NA 
HETATM   16  C   UNL     1     -11.586  13.984  65.873  1.00  0.00    -0.347 C  
HETATM   17  C   UNL     1     -12.104  13.946  67.308  1.00  0.00    -0.403 C  
BRANCH  15  18
HETATM   18  C   UNL     1      -9.805  15.645  65.992  1.00  0.00    -0.333 C  
BRANCH  18  19
HETATM   19  C   UNL     1      -8.341  15.859  66.384  1.00  0.00    -0.310 C  
BRANCH  19  20
HETATM   20  C   UNL     1      -7.917  17.321  66.241  1.00  0.00    -0.330 C  
BRANCH  20  21
HETATM   21  C   UNL     1      -6.469  17.522  66.629  1.00  0.00    -0.217 C  
HETATM   22  O   UNL     1      -5.535  17.331  65.853  1.00  0.00    -0.289 OA 
BRANCH  21  23
HETATM   23  C   UNL     1      -6.175  17.931  68.029  1.00  0.00    -0.169 A  
HETATM   24  C   UNL     1      -6.630  19.188  68.453  1.00  0.00    -0.279 A  
HETATM   25  C   UNL     1      -6.356  19.630  69.746  1.00  0.00    -0.366 A  
HETATM   26  C   UNL     1      -5.642  18.812  70.613  1.00  0.00    -0.187 A  
HETATM   27  C   UNL     1      -5.198  17.557  70.210  1.00  0.00    -0.234 A  
HETATM   28  F   UNL     1      -5.377  19.237  71.854  1.00  0.00    -0.344 F  
HETATM   29  C   UNL     1      -5.462  17.111  68.913  1.00  0.00    -0.144 A  
ENDBRANCH  21  23
ENDBRANCH  20  21
ENDBRANCH  19  20
ENDBRANCH  18  19
ENDBRANCH  15  18
ENDBRANCH  11  12
TORSDOF 6
ENDMDL
MODEL       38
REMARK 921   NORMALIZED FREE ENERGY PREDICTED BY IDOCK:   -6.35 KCAL/MOL
REMARK 922        TOTAL FREE ENERGY PREDICTED BY IDOCK:   -9.88 KCAL/MOL
REMARK 923 INTER-LIGAND FREE ENERGY PREDICTED BY IDOCK:   -9.26 KCAL/MOL
REMARK 924 INTRA-LIGAND FREE ENERGY PREDICTED BY IDOCK:   -0.62 KCAL/MOL
REMARK 927      BINDING AFFINITY PREDICTED BY RF-SCORE:    0.00 PKD
ROOT
HETATM    1  O   UNL     1     -11.623  11.861  70.403  1.00  0.00    -0.516 OA 
HETATM    2  C   UNL     1     -11.540  10.550  70.447  1.00  0.00    -0.342 A  
HETATM    3  H   UNL     1     -11.413  12.354  69.619  1.00  0.00     0.000 HD 
HETATM    4  N   UNL     1     -11.829   9.873  71.523  1.00  0.00    -0.385 NA 
HETATM    5  C   UNL     1     -11.571   8.570  71.180  1.00  0.00    -0.281 A  
HETATM    6  C   UNL     1     -11.649   7.419  71.975  1.00  0.00    -0.321 A  
HETATM    7  C   UNL     1     -11.324   6.184  71.403  1.00  0.00    -0.336 A  
HETATM    8  C   UNL     1     -10.958   6.092  70.062  1.00  0.00    -0.450 A  
HETATM    9  C   UNL     1     -10.879   7.227  69.249  1.00  0.00    -0.177 A  
HETATM   10  C   UNL     1     -11.161   8.461  69.848  1.00  0.00    -0.108 A  
HETATM   11  N   UNL     1     -11.085   9.764  69.423  1.00  0.00    -0.207 NA 
ENDROOT
BRANCH  11  12
HETATM   12  C   UNL     1     -10.451  10.294  68.236  1.00  0.00    -0.199 C  
HETATM   13  C   UNL     1      -9.095  10.953  68.471  1.00  0.00    -0.173 C  
HETATM   14  C   UNL     1      -8.464  11.187  67.097  1.00  0.00    -0.137 C  
HETATM   15  N   UNL     1      -9.294  12.014  66.201  1.00  0.00    -0.229 NA 
HETATM   16  C   UNL     1     -10.660  11.486  66.067  1.00  0.00    -0.261 C  
HETATM   17  C   UNL     1     -11.344  11.223  67.407  1.00  0.00    -0.349 C  
BRANCH  15  18
HETATM   18  C   UNL     1      -9.287  13.443  66.543  1.00  0.00    -0.215 C  
BRANCH  18  19
HETATM   19  C   UNL     1     -10.197  14.275  65.636  1.00  0.00    -0.366 C  
BRANCH  19  20
HETATM   20  C   UNL     1     -10.777  15.489  66.363  1.00  0.00    -0.303 C  
BRANCH  20  21
HETATM   21  C   UNL     1     -10.639  16.751  65.540  1.00  0.00    -0.230 C  
HETATM   22  O   UNL     1     -11.156  16.888  64.433  1.00  0.00    -1.128 OA 
BRANCH  21  23
HETATM   23  C   UNL     1      -9.803  17.851  66.090  1.00  0.00    -0.256 A  
HETATM   24  C   UNL     1     -10.440  19.056  66.418  1.00  0.00    -0.524 A  
HETATM   25  C   UNL     1      -9.697  20.128  66.910  1.00  0.00    -0.582 A  
HETATM   26  C   UNL     1      -8.326  19.988  67.085  1.00  0.00    -0.332 A  
HETATM   27  C   UNL     1      -7.684  18.794  66.778  1.00  0.00    -0.252 A  
HETATM   28  F   UNL     1      -7.612  21.018  67.555  1.00  0.00    -0.374 F  
HETATM   29  C   UNL     1      -8.421  17.718  66.278  1.00  0.00    -0.225 A  
ENDBRANCH  21  23
ENDBRANCH  20  21
ENDBRANCH  19  20
ENDBRANCH  18  19
ENDBRANCH  15  18
ENDBRANCH  11  12
TORSDOF 6
ENDMDL
MODEL       39
REMARK 921   NORMALIZED FREE ENERGY PREDICTED BY IDOCK:   -6.32 KCAL/MOL
REMARK 922        TOTAL FREE ENERGY PREDICTED BY IDOCK:   -9.84 KCAL/MOL
REMARK 923 INTER-LIGAND FREE ENERGY PREDICTED BY IDOCK:   -8.85 KCAL/MOL
REMARK 924 INTRA-LIGAND FREE ENERGY PREDICTED BY IDOCK:   -0.99 KCAL/MOL
REMARK 927      BINDING AFFINITY PREDICTED BY RF-SCORE:    0.00 PKD
ROOT
HETATM    1  O   UNL     1     -13.273  14.109  65.214  1.00  0.00    -0.760 OA 
HETATM    2  C   UNL     1     -12.218  13.419  65.582  1.00  0.00    -0.463 A  
HETATM    3  H   UNL     1     -13.303  15.057  65.274  1.00  0.00     0.000 HD 
HETATM    4  N   UNL     1     -12.177  12.119  65.500  1.00  0.00    -0.517 NA 
HETATM    5  C   UNL     1     -10.950  11.787  66.017  1.00  0.00    -0.306 A  
HETATM    6  C   UNL     1     -10.399  10.517  66.231  1.00  0.00    -0.276 A  
HETATM    7  C   UNL     1      -9.119  10.424  66.788  1.00  0.00    -0.161 A  
HETATM    8  C   UNL     1      -8.391  11.570  67.100  1.00  0.00    -0.160 A  
HETATM    9  C   UNL     1      -8.920  12.848  66.890  1.00  0.00    -0.210 A  
HETATM   10  C   UNL     1     -10.220  12.923  66.377  1.00  0.00    -0.267 A  
HETATM   11  N   UNL     1     -11.093  13.958  66.147  1.00  0.00    -0.297 NA 
ENDROOT
BRANCH  11  12
HETATM   12  C   UNL     1     -11.007  15.331  66.592  1.00  0.00    -0.297 C  
HETATM   13  C   UNL     1      -9.990  16.187  65.844  1.00  0.00    -0.384 C  
HETATM   14  C   UNL     1     -10.242  17.641  66.247  1.00  0.00    -0.362 C  
HETATM   15  N   UNL     1     -10.146  17.875  67.700  1.00  0.00    -0.331 NA 
HETATM   16  C   UNL     1     -11.008  16.961  68.466  1.00  0.00    -0.290 C  
HETATM   17  C   UNL     1     -10.810  15.492  68.104  1.00  0.00    -0.296 C  
BRANCH  15  18
HETATM   18  C   UNL     1      -8.766  17.882  68.206  1.00  0.00    -0.275 C  
BRANCH  18  19
HETATM   19  C   UNL     1      -8.344  19.246  68.760  1.00  0.00    -0.386 C  
BRANCH  19  20
HETATM   20  C   UNL     1      -6.880  19.258  69.201  1.00  0.00    -0.371 C  
BRANCH  20  21
HETATM   21  C   UNL     1      -6.054  20.211  68.365  1.00  0.00    -0.279 C  
HETATM   22  O   UNL     1      -5.464  21.178  68.840  1.00  0.00    -0.335 OA 
BRANCH  21  23
HETATM   23  C   UNL     1      -5.996  19.976  66.898  1.00  0.00    -0.188 A  
HETATM   24  C   UNL     1      -5.643  18.695  66.453  1.00  0.00    -0.177 A  
HETATM   25  C   UNL     1      -5.546  18.432  65.087  1.00  0.00    -0.214 A  
HETATM   26  C   UNL     1      -5.815  19.443  64.173  1.00  0.00    -0.263 A  
HETATM   27  C   UNL     1      -6.180  20.715  64.601  1.00  0.00    -0.337 A  
HETATM   28  F   UNL     1      -5.719  19.191  62.863  1.00  0.00    -0.359 F  
HETATM   29  C   UNL     1      -6.272  20.987  65.968  1.00  0.00    -0.287 A  
ENDBRANCH  21  23
ENDBRANCH  20  21
ENDBRANCH  19  20
ENDBRANCH  18  19
ENDBRANCH  15  18
ENDBRANCH  11  12
TORSDOF 6
ENDMDL
MODEL       40
REMARK 921   NORMALIZED FREE ENERGY PREDICTED BY IDOCK:   -6.30 KCAL/MOL
REMARK 922        TOTAL FREE ENERGY PREDICTED BY IDOCK:   -9.82 KCAL/MOL
REMARK 923 INTER-LIGAND FREE ENERGY PREDICTED BY IDOCK:   -8.43 KCAL/MOL
REMARK 924 INTRA-LIGAND FREE ENERGY PREDICTED BY IDOCK:   -1.38 KCAL/MOL
REMARK 927      BINDING AFFINITY PREDICTED BY RF-SCORE:    0.00 PKD
ROOT
HETATM    1  O   UNL     1     -11.815   6.784  72.733  1.00  0.00    -0.485 OA 
HETATM    2  C   UNL     1     -11.915   7.995  72.234  1.00  0.00    -0.358 A  
HETATM    3  H   UNL     1     -11.252   6.124  72.346  1.00  0.00     0.000 HD 
HETATM    4  N   UNL     1     -12.687   8.901  72.764  1.00  0.00    -0.271 NA 
HETATM    5  C   UNL     1     -12.550   9.987  71.937  1.00  0.00    -0.362 A  
HETATM    6  C   UNL     1     -13.202  11.226  71.996  1.00  0.00    -0.437 A  
HETATM    7  C   UNL     1     -12.905  12.189  71.024  1.00  0.00    -0.258 A  
HETATM    8  C   UNL     1     -11.960  11.934  70.033  1.00  0.00    -0.409 A  
HETATM    9  C   UNL     1     -11.293  10.707  69.959  1.00  0.00    -0.400 A  
HETATM   10  C   UNL     1     -11.637   9.738  70.909  1.00  0.00    -0.361 A  
HETATM   11  N   UNL     1     -11.296   8.420  71.089  1.00  0.00    -0.261 NA 
ENDROOT
BRANCH  11  12
HETATM   12  C   UNL     1     -10.613   7.528  70.178  1.00  0.00    -0.235 C  
HETATM   13  C   UNL     1      -9.355   8.106  69.535  1.00  0.00    -0.155 C  
HETATM   14  C   UNL     1      -8.629   6.949  68.847  1.00  0.00    -0.131 C  
HETATM   15  N   UNL     1      -9.452   6.254  67.840  1.00  0.00    -0.116 NA 
HETATM   16  C   UNL     1     -10.743   5.810  68.389  1.00  0.00    -0.209 C  
HETATM   17  C   UNL     1     -11.515   6.920  69.098  1.00  0.00    -0.025 C  
BRANCH  15  18
HETATM   18  C   UNL     1      -9.617   7.008  66.589  1.00  0.00    -0.167 C  
BRANCH  18  19
HETATM   19  C   UNL     1      -8.340   7.735  66.160  1.00  0.00    -0.129 C  
BRANCH  19  20
HETATM   20  C   UNL     1      -8.524   9.253  66.135  1.00  0.00    -0.135 C  
BRANCH  20  21
HETATM   21  C   UNL     1      -9.185   9.713  64.854  1.00  0.00    -0.246 C  
HETATM   22  O   UNL     1      -8.885   9.267  63.749  1.00  0.00    -0.201 OA 
BRANCH  21  23
HETATM   23  C   UNL     1     -10.214  10.782  64.950  1.00  0.00    -0.388 A  
HETATM   24  C   UNL     1     -10.666  11.144  66.226  1.00  0.00    -0.298 A  
HETATM   25  C   UNL     1     -11.652  12.120  66.367  1.00  0.00    -0.429 A  
HETATM   26  C   UNL     1     -12.171  12.739  65.236  1.00  0.00    -0.483 A  
HETATM   27  C   UNL     1     -11.721  12.399  63.965  1.00  0.00    -0.498 A  
HETATM   28  F   UNL     1     -13.118  13.674  65.372  1.00  0.00    -0.517 F  
HETATM   29  C   UNL     1     -10.739  11.417  63.816  1.00  0.00    -0.470 A  
ENDBRANCH  21  23
ENDBRANCH  20  21
ENDBRANCH  19  20
ENDBRANCH  18  19
ENDBRANCH  15  18
ENDBRANCH  11  12
TORSDOF 6
ENDMDL
MODEL       41
REMARK 921   NORMALIZED FREE ENERGY PREDICTED BY IDOCK:   -6.28 KCAL/MOL
REMARK 922        TOTAL FREE ENERGY PREDICTED BY IDOCK:   -9.79 KCAL/MOL
REMARK 923 INTER-LIGAND FREE ENERGY PREDICTED BY IDOCK:   -9.08 KCAL/MOL
REMARK 924 INTRA-LIGAND FREE ENERGY PREDICTED BY IDOCK:   -0.71 KCAL/MOL
REMARK 927      BINDING AFFINITY PREDICTED BY RF-SCORE:    0.00 PKD
ROOT
HETATM    1  O   UNL     1     -11.447   6.803  67.322  1.00  0.00    -0.752 OA 
HETATM    2  C   UNL     1     -11.110   7.029  68.571  1.00  0.00    -0.006 A  
HETATM    3  H   UNL     1     -11.060   7.285  66.600  1.00  0.00     0.000 HD 
HETATM    4  N   UNL     1     -11.640   6.368  69.562  1.00  0.00    -0.355 NA 
HETATM    5  C   UNL     1     -11.071   6.923  70.680  1.00  0.00    -0.278 A  
HETATM    6  C   UNL     1     -11.323   6.640  72.029  1.00  0.00    -0.317 A  
HETATM    7  C   UNL     1     -10.620   7.351  73.008  1.00  0.00    -0.392 A  
HETATM    8  C   UNL     1      -9.667   8.303  72.653  1.00  0.00    -0.357 A  
HETATM    9  C   UNL     1      -9.396   8.597  71.313  1.00  0.00    -0.288 A  
HETATM   10  C   UNL     1     -10.142   7.912  70.346  1.00  0.00    -0.194 A  
HETATM   11  N   UNL     1     -10.240   8.004  68.980  1.00  0.00    -0.207 NA 
ENDROOT
BRANCH  11  12
HETATM   12  C   UNL     1      -9.737   9.038  68.103  1.00  0.00    -0.152 C  
HETATM   13  C   UNL     1     -10.768  10.080  67.681  1.00  0.00    -0.340 C  
HETATM   14  C   UNL     1     -10.003  11.223  67.010  1.00  0.00    -0.198 C  
HETATM   15  N   UNL     1      -9.198  10.793  65.852  1.00  0.00    -0.182 NA 
HETATM   16  C   UNL     1      -8.292   9.683  66.189  1.00  0.00    -0.119 C  
HETATM   17  C   UNL     1      -8.994   8.512  66.870  1.00  0.00    -0.166 C  
BRANCH  15  18
HETATM   18  C   UNL     1      -9.996  10.506  64.651  1.00  0.00    -0.347 C  
BRANCH  18  19
HETATM   19  C   UNL     1     -11.141  11.501  64.448  1.00  0.00    -0.359 C  
BRANCH  19  20
HETATM   20  C   UNL     1     -10.637  12.870  63.986  1.00  0.00    -0.418 C  
BRANCH  20  21
HETATM   21  C   UNL     1     -11.605  13.973  64.353  1.00  0.00    -0.369 C  
HETATM   22  O   UNL     1     -12.515  14.338  63.613  1.00  0.00    -0.816 OA 
BRANCH  21  23
HETATM   23  C   UNL     1     -11.409  14.664  65.655  1.00  0.00    -0.338 A  
HETATM   24  C   UNL     1     -10.598  15.807  65.674  1.00  0.00    -0.393 A  
HETATM   25  C   UNL     1     -10.358  16.474  66.875  1.00  0.00    -0.300 A  
HETATM   26  C   UNL     1     -10.940  16.006  68.047  1.00  0.00    -0.341 A  
HETATM   27  C   UNL     1     -11.759  14.882  68.040  1.00  0.00    -0.344 A  
HETATM   28  F   UNL     1     -10.709  16.645  69.199  1.00  0.00    -0.273 F  
HETATM   29  C   UNL     1     -11.996  14.204  66.842  1.00  0.00    -0.479 A  
ENDBRANCH  21  23
ENDBRANCH  20  21
ENDBRANCH  19  20
ENDBRANCH  18  19
ENDBRANCH  15  18
ENDBRANCH  11  12
TORSDOF 6
ENDMDL
MODEL       42
REMARK 921   NORMALIZED FREE ENERGY PREDICTED BY IDOCK:   -6.26 KCAL/MOL
REMARK 922        TOTAL FREE ENERGY PREDICTED BY IDOCK:   -9.76 KCAL/MOL
REMARK 923 INTER-LIGAND FREE ENERGY PREDICTED BY IDOCK:   -9.34 KCAL/MOL
REMARK 924 INTRA-LIGAND FREE ENERGY PREDICTED BY IDOCK:   -0.42 KCAL/MOL
REMARK 927      BINDING AFFINITY PREDICTED BY RF-SCORE:    0.00 PKD
ROOT
HETATM    1  O   UNL     1      -8.694  10.983  68.787  1.00  0.00    -0.157 OA 
HETATM    2  C   UNL     1      -9.697  10.555  69.520  1.00  0.00    -0.119 A  
HETATM    3  H   UNL     1      -8.802  11.662  68.131  1.00  0.00     0.000 HD 
HETATM    4  N   UNL     1      -9.549   9.623  70.420  1.00  0.00    -0.259 NA 
HETATM    5  C   UNL     1     -10.812   9.432  70.918  1.00  0.00    -0.322 A  
HETATM    6  C   UNL     1     -11.252   8.503  71.870  1.00  0.00    -0.397 A  
HETATM    7  C   UNL     1     -12.608   8.487  72.218  1.00  0.00    -0.438 A  
HETATM    8  C   UNL     1     -13.501   9.394  71.653  1.00  0.00    -0.467 A  
HETATM    9  C   UNL     1     -13.082  10.334  70.705  1.00  0.00    -0.360 A  
HETATM   10  C   UNL     1     -11.733  10.305  70.332  1.00  0.00    -0.319 A  
HETATM   11  N   UNL     1     -10.994  10.970  69.385  1.00  0.00    -0.240 NA 
ENDROOT
BRANCH  11  12
HETATM   12  C   UNL     1     -11.457  11.785  68.283  1.00  0.00    -0.307 C  
HETATM   13  C   UNL     1     -10.818  11.465  66.935  1.00  0.00    -0.335 C  
HETATM   14  C   UNL     1     -11.622  12.211  65.868  1.00  0.00    -0.364 C  
HETATM   15  N   UNL     1     -11.675  13.669  66.083  1.00  0.00    -0.347 NA 
HETATM   16  C   UNL     1     -12.148  14.013  67.433  1.00  0.00    -0.349 C  
HETATM   17  C   UNL     1     -11.390  13.293  68.545  1.00  0.00    -0.319 C  
BRANCH  15  18
HETATM   18  C   UNL     1     -10.422  14.361  65.747  1.00  0.00    -0.318 C  
BRANCH  18  19
HETATM   19  C   UNL     1     -10.581  15.883  65.690  1.00  0.00    -0.393 C  
BRANCH  19  20
HETATM   20  C   UNL     1      -9.477  16.604  66.464  1.00  0.00    -0.288 C  
BRANCH  20  21
HETATM   21  C   UNL     1      -9.579  18.106  66.312  1.00  0.00    -0.239 C  
HETATM   22  O   UNL     1     -10.430  18.651  65.614  1.00  0.00    -0.603 OA 
BRANCH  21  23
HETATM   23  C   UNL     1      -8.571  18.945  67.013  1.00  0.00    -0.301 A  
HETATM   24  C   UNL     1      -7.888  19.913  66.264  1.00  0.00    -0.336 A  
HETATM   25  C   UNL     1      -6.912  20.705  66.868  1.00  0.00    -0.357 A  
HETATM   26  C   UNL     1      -6.633  20.537  68.219  1.00  0.00    -0.280 A  
HETATM   27  C   UNL     1      -7.314  19.591  68.978  1.00  0.00    -0.392 A  
HETATM   28  F   UNL     1      -5.696  21.296  68.798  1.00  0.00    -0.359 F  
HETATM   29  C   UNL     1      -8.287  18.788  68.377  1.00  0.00    -0.373 A  
ENDBRANCH  21  23
ENDBRANCH  20  21
ENDBRANCH  19  20
ENDBRANCH  18  19
ENDBRANCH  15  18
ENDBRANCH  11  12
TORSDOF 6
ENDMDL
MODEL       43
REMARK 921   NORMALIZED FREE ENERGY PREDICTED BY IDOCK:   -6.24 KCAL/MOL
REMARK 922        TOTAL FREE ENERGY PREDICTED BY IDOCK:   -9.74 KCAL/MOL
REMARK 923 INTER-LIGAND FREE ENERGY PREDICTED BY IDOCK:   -8.48 KCAL/MOL
REMARK 924 INTRA-LIGAND FREE ENERGY PREDICTED BY IDOCK:   -1.26 KCAL/MOL
REMARK 927      BINDING AFFINITY PREDICTED BY RF-SCORE:    0.00 PKD
ROOT
HETATM    1  O   UNL     1     -12.445  15.556  68.918  1.00  0.00    -0.590 OA 
HETATM    2  C   UNL     1     -11.329  16.050  68.432  1.00  0.00    -0.355 A  
HETATM    3  H   UNL     1     -12.862  14.789  68.544  1.00  0.00     0.000 HD 
HETATM    4  N   UNL     1     -10.756  17.102  68.945  1.00  0.00    -0.302 NA 
HETATM    5  C   UNL     1      -9.669  17.321  68.138  1.00  0.00    -0.284 A  
HETATM    6  C   UNL     1      -8.730  18.360  68.188  1.00  0.00    -0.318 A  
HETATM    7  C   UNL     1      -7.699  18.381  67.242  1.00  0.00    -0.228 A  
HETATM    8  C   UNL     1      -7.589  17.376  66.284  1.00  0.00    -0.348 A  
HETATM    9  C   UNL     1      -8.512  16.326  66.219  1.00  0.00    -0.369 A  
HETATM   10  C   UNL     1      -9.564  16.346  67.142  1.00  0.00    -0.235 A  
HETATM   11  N   UNL     1     -10.689  15.579  67.318  1.00  0.00    -0.304 NA 
ENDROOT
BRANCH  11  12
HETATM   12  C   UNL     1     -11.269  14.604  66.421  1.00  0.00    -0.336 C  
HETATM   13  C   UNL     1     -10.693  13.196  66.542  1.00  0.00    -0.288 C  
HETATM   14  C   UNL     1     -11.605  12.265  65.742  1.00  0.00    -0.388 C  
HETATM   15  N   UNL     1     -11.741  12.649  64.325  1.00  0.00    -0.354 NA 
HETATM   16  C   UNL     1     -12.155  14.052  64.167  1.00  0.00    -0.422 C  
HETATM   17  C   UNL     1     -11.286  15.033  64.950  1.00  0.00    -0.419 C  
BRANCH  15  18
HETATM   18  C   UNL     1     -10.558  12.330  63.511  1.00  0.00    -0.448 C  
BRANCH  18  19
HETATM   19  C   UNL     1     -10.178  10.848  63.570  1.00  0.00    -0.379 C  
BRANCH  19  20
HETATM   20  C   UNL     1      -8.699  10.648  63.900  1.00  0.00    -0.134 C  
BRANCH  20  21
HETATM   21  C   UNL     1      -8.495  10.300  65.358  1.00  0.00    -0.161 C  
HETATM   22  O   UNL     1      -7.929  11.048  66.152  1.00  0.00    -0.163 OA 
BRANCH  21  23
HETATM   23  C   UNL     1      -8.972   8.972  65.828  1.00  0.00    -0.242 A  
HETATM   24  C   UNL     1     -10.137   8.932  66.606  1.00  0.00    -0.357 A  
HETATM   25  C   UNL     1     -10.609   7.714  67.096  1.00  0.00    -0.410 A  
HETATM   26  C   UNL     1      -9.925   6.543  66.795  1.00  0.00    -0.166 A  
HETATM   27  C   UNL     1      -8.777   6.567  66.011  1.00  0.00    -0.155 A  
HETATM   28  F   UNL     1     -10.377   5.375  67.266  1.00  0.00    -0.181 F  
HETATM   29  C   UNL     1      -8.294   7.784  65.524  1.00  0.00    -0.151 A  
ENDBRANCH  21  23
ENDBRANCH  20  21
ENDBRANCH  19  20
ENDBRANCH  18  19
ENDBRANCH  15  18
ENDBRANCH  11  12
TORSDOF 6
ENDMDL
MODEL       44
REMARK 921   NORMALIZED FREE ENERGY PREDICTED BY IDOCK:   -6.23 KCAL/MOL
REMARK 922        TOTAL FREE ENERGY PREDICTED BY IDOCK:   -9.72 KCAL/MOL
REMARK 923 INTER-LIGAND FREE ENERGY PREDICTED BY IDOCK:   -8.68 KCAL/MOL
REMARK 924 INTRA-LIGAND FREE ENERGY PREDICTED BY IDOCK:   -1.04 KCAL/MOL
REMARK 927      BINDING AFFINITY PREDICTED BY RF-SCORE:    0.00 PKD
ROOT
HETATM    1  O   UNL     1     -11.836  10.532  71.201  1.00  0.00    -0.346 OA 
HETATM    2  C   UNL     1     -11.522   9.268  71.033  1.00  0.00    -0.319 A  
HETATM    3  H   UNL     1     -11.720  11.177  70.514  1.00  0.00     0.000 HD 
HETATM    4  N   UNL     1     -11.683   8.382  71.976  1.00  0.00    -0.326 NA 
HETATM    5  C   UNL     1     -11.201   7.219  71.431  1.00  0.00    -0.248 A  
HETATM    6  C   UNL     1     -11.070   5.957  72.025  1.00  0.00    -0.329 A  
HETATM    7  C   UNL     1     -10.534   4.909  71.268  1.00  0.00    -0.168 A  
HETATM    8  C   UNL     1     -10.163   5.106  69.940  1.00  0.00    -0.361 A  
HETATM    9  C   UNL     1     -10.290   6.356  69.325  1.00  0.00    -0.248 A  
HETATM   10  C   UNL     1     -10.782   7.405  70.111  1.00  0.00    -0.242 A  
HETATM   11  N   UNL     1     -10.939   8.753  69.906  1.00  0.00    -0.218 NA 
ENDROOT
BRANCH  11  12
HETATM   12  C   UNL     1     -10.414   9.574  68.838  1.00  0.00    -0.216 C  
HETATM   13  C   UNL     1      -9.164  10.372  69.196  1.00  0.00    -0.202 C  
HETATM   14  C   UNL     1      -8.601  10.939  67.891  1.00  0.00    -0.130 C  
HETATM   15  N   UNL     1      -9.561  11.782  67.154  1.00  0.00    -0.179 NA 
HETATM   16  C   UNL     1     -10.839  11.093  66.919  1.00  0.00    -0.279 C  
HETATM   17  C   UNL     1     -11.449  10.496  68.184  1.00  0.00    -0.255 C  
BRANCH  15  18
HETATM   18  C   UNL     1      -9.756  13.112  67.748  1.00  0.00    -0.218 C  
BRANCH  18  19
HETATM   19  C   UNL     1     -10.559  14.054  66.847  1.00  0.00    -0.280 C  
BRANCH  19  20
HETATM   20  C   UNL     1     -11.770  14.645  67.570  1.00  0.00    -0.403 C  
BRANCH  20  21
HETATM   21  C   UNL     1     -11.355  15.602  68.665  1.00  0.00    -0.357 C  
HETATM   22  O   UNL     1     -10.619  16.565  68.467  1.00  0.00    -0.280 OA 
BRANCH  21  23
HETATM   23  C   UNL     1     -11.835  15.327  70.046  1.00  0.00    -0.365 A  
HETATM   24  C   UNL     1     -11.488  16.239  71.053  1.00  0.00    -0.343 A  
HETATM   25  C   UNL     1     -11.888  16.011  72.369  1.00  0.00    -0.639 A  
HETATM   26  C   UNL     1     -12.643  14.885  72.671  1.00  0.00    -0.367 A  
HETATM   27  C   UNL     1     -13.007  13.981  71.679  1.00  0.00    -0.430 A  
HETATM   28  F   UNL     1     -13.026  14.666  73.934  1.00  0.00    -0.533 F  
HETATM   29  C   UNL     1     -12.603  14.198  70.359  1.00  0.00    -0.397 A  
ENDBRANCH  21  23
ENDBRANCH  20  21
ENDBRANCH  19  20
ENDBRANCH  18  19
ENDBRANCH  15  18
ENDBRANCH  11  12
TORSDOF 6
ENDMDL
MODEL       45
REMARK 921   NORMALIZED FREE ENERGY PREDICTED BY IDOCK:   -6.21 KCAL/MOL
REMARK 922        TOTAL FREE ENERGY PREDICTED BY IDOCK:   -9.70 KCAL/MOL
REMARK 923 INTER-LIGAND FREE ENERGY PREDICTED BY IDOCK:   -8.88 KCAL/MOL
REMARK 924 INTRA-LIGAND FREE ENERGY PREDICTED BY IDOCK:   -0.82 KCAL/MOL
REMARK 927      BINDING AFFINITY PREDICTED BY RF-SCORE:    0.00 PKD
ROOT
HETATM    1  O   UNL     1      -9.784  11.924  68.926  1.00  0.00    -0.396 OA 
HETATM    2  C   UNL     1     -10.252  12.167  67.723  1.00  0.00    -0.201 A  
HETATM    3  H   UNL     1      -9.225  11.178  69.109  1.00  0.00     0.000 HD 
HETATM    4  N   UNL     1     -11.020  13.189  67.471  1.00  0.00    -0.257 NA 
HETATM    5  C   UNL     1     -11.326  13.062  66.140  1.00  0.00    -0.314 A  
HETATM    6  C   UNL     1     -12.172  13.853  65.352  1.00  0.00    -0.463 A  
HETATM    7  C   UNL     1     -12.341  13.520  64.003  1.00  0.00    -0.391 A  
HETATM    8  C   UNL     1     -11.661  12.440  63.444  1.00  0.00    -0.554 A  
HETATM    9  C   UNL     1     -10.808  11.640  64.212  1.00  0.00    -0.418 A  
HETATM   10  C   UNL     1     -10.687  11.958  65.570  1.00  0.00    -0.283 A  
HETATM   11  N   UNL     1     -10.056  11.361  66.633  1.00  0.00    -0.207 NA 
ENDROOT
BRANCH  11  12
HETATM   12  C   UNL     1      -9.477  10.039  66.717  1.00  0.00    -0.168 C  
HETATM   13  C   UNL     1     -10.486   8.901  66.844  1.00  0.00    -0.304 C  
HETATM   14  C   UNL     1      -9.720   7.594  66.632  1.00  0.00    -0.213 C  
HETATM   15  N   UNL     1      -8.605   7.405  67.578  1.00  0.00    -0.122 NA 
HETATM   16  C   UNL     1      -7.687   8.554  67.589  1.00  0.00    -0.102 C  
HETATM   17  C   UNL     1      -8.392   9.893  67.789  1.00  0.00    -0.114 C  
BRANCH  15  18
HETATM   18  C   UNL     1      -9.036   7.033  68.933  1.00  0.00    -0.134 C  
BRANCH  18  19
HETATM   19  C   UNL     1      -9.993   5.838  68.945  1.00  0.00    -0.211 C  
BRANCH  19  20
HETATM   20  C   UNL     1     -11.403   6.236  69.384  1.00  0.00    -0.448 C  
BRANCH  20  21
HETATM   21  C   UNL     1     -11.438   6.646  70.840  1.00  0.00    -0.347 C  
HETATM   22  O   UNL     1     -11.104   5.897  71.755  1.00  0.00    -0.263 OA 
BRANCH  21  23
HETATM   23  C   UNL     1     -11.939   8.008  71.165  1.00  0.00    -0.297 A  
HETATM   24  C   UNL     1     -13.079   8.111  71.974  1.00  0.00    -0.317 A  
HETATM   25  C   UNL     1     -13.605   9.365  72.283  1.00  0.00    -0.532 A  
HETATM   26  C   UNL     1     -12.984  10.508  71.797  1.00  0.00    -0.476 A  
HETATM   27  C   UNL     1     -11.844  10.421  71.006  1.00  0.00    -0.458 A  
HETATM   28  F   UNL     1     -13.490  11.711  72.092  1.00  0.00    -0.563 F  
HETATM   29  C   UNL     1     -11.315   9.168  70.686  1.00  0.00    -0.323 A  
ENDBRANCH  21  23
ENDBRANCH  20  21
ENDBRANCH  19  20
ENDBRANCH  18  19
ENDBRANCH  15  18
ENDBRANCH  11  12
TORSDOF 6
ENDMDL
MODEL       46
REMARK 921   NORMALIZED FREE ENERGY PREDICTED BY IDOCK:   -6.20 KCAL/MOL
REMARK 922        TOTAL FREE ENERGY PREDICTED BY IDOCK:   -9.68 KCAL/MOL
REMARK 923 INTER-LIGAND FREE ENERGY PREDICTED BY IDOCK:   -9.11 KCAL/MOL
REMARK 924 INTRA-LIGAND FREE ENERGY PREDICTED BY IDOCK:   -0.57 KCAL/MOL
REMARK 927      BINDING AFFINITY PREDICTED BY RF-SCORE:    0.00 PKD
ROOT
HETATM    1  O   UNL     1     -13.215  12.160  64.300  1.00  0.00    -0.768 OA 
HETATM    2  C   UNL     1     -12.548  13.166  64.819  1.00  0.00    -0.364 A  
HETATM    3  H   UNL     1     -13.354  11.348  64.773  1.00  0.00     0.000 HD 
HETATM    4  N   UNL     1     -12.358  14.280  64.170  1.00  0.00    -0.674 NA 
HETATM    5  C   UNL     1     -11.592  15.038  65.019  1.00  0.00    -0.332 A  
HETATM    6  C   UNL     1     -11.039  16.308  64.809  1.00  0.00    -0.293 A  
HETATM    7  C   UNL     1     -10.274  16.885  65.829  1.00  0.00    -0.287 A  
HETATM    8  C   UNL     1     -10.086  16.226  67.041  1.00  0.00    -0.270 A  
HETATM    9  C   UNL     1     -10.633  14.959  67.274  1.00  0.00    -0.272 A  
HETATM   10  C   UNL     1     -11.356  14.375  66.227  1.00  0.00    -0.350 A  
HETATM   11  N   UNL     1     -11.929  13.142  66.040  1.00  0.00    -0.412 NA 
ENDROOT
BRANCH  11  12
HETATM   12  C   UNL     1     -11.763  11.937  66.823  1.00  0.00    -0.202 C  
HETATM   13  C   UNL     1     -11.807  12.142  68.334  1.00  0.00    -0.360 C  
HETATM   14  C   UNL     1     -11.903  10.756  68.974  1.00  0.00    -0.254 C  
HETATM   15  N   UNL     1     -10.791   9.860  68.606  1.00  0.00    -0.223 NA 
HETATM   16  C   UNL     1     -10.624   9.754  67.148  1.00  0.00    -0.229 C  
HETATM   17  C   UNL     1     -10.530  11.107  66.447  1.00  0.00    -0.311 C  
BRANCH  15  18
HETATM   18  C   UNL     1      -9.526  10.180  69.282  1.00  0.00    -0.218 C  
BRANCH  18  19
HETATM   19  C   UNL     1      -8.775   8.934  69.759  1.00  0.00    -0.139 C  
BRANCH  19  20
HETATM   20  C   UNL     1      -8.096   9.155  71.111  1.00  0.00    -0.136 C  
BRANCH  20  21
HETATM   21  C   UNL     1      -8.912   8.575  72.245  1.00  0.00    -0.229 C  
HETATM   22  O   UNL     1      -8.455   8.388  73.370  1.00  0.00    -0.311 OA 
BRANCH  21  23
HETATM   23  C   UNL     1     -10.318   8.182  71.960  1.00  0.00    -0.320 A  
HETATM   24  C   UNL     1     -10.549   6.891  71.466  1.00  0.00    -0.239 A  
HETATM   25  C   UNL     1     -11.846   6.484  71.155  1.00  0.00    -0.383 A  
HETATM   26  C   UNL     1     -12.905   7.362  71.351  1.00  0.00    -0.365 A  
HETATM   27  C   UNL     1     -12.691   8.640  71.854  1.00  0.00    -0.413 A  
HETATM   28  F   UNL     1     -14.150   6.972  71.050  1.00  0.00    -0.445 F  
HETATM   29  C   UNL     1     -11.394   9.057  72.161  1.00  0.00    -0.311 A  
ENDBRANCH  21  23
ENDBRANCH  20  21
ENDBRANCH  19  20
ENDBRANCH  18  19
ENDBRANCH  15  18
ENDBRANCH  11  12
TORSDOF 6
ENDMDL
MODEL       47
REMARK 921   NORMALIZED FREE ENERGY PREDICTED BY IDOCK:   -6.20 KCAL/MOL
REMARK 922        TOTAL FREE ENERGY PREDICTED BY IDOCK:   -9.68 KCAL/MOL
REMARK 923 INTER-LIGAND FREE ENERGY PREDICTED BY IDOCK:   -8.98 KCAL/MOL
REMARK 924 INTRA-LIGAND FREE ENERGY PREDICTED BY IDOCK:   -0.70 KCAL/MOL
REMARK 927      BINDING AFFINITY PREDICTED BY RF-SCORE:    0.00 PKD
ROOT
HETATM    1  O   UNL     1     -10.858  11.206  69.806  1.00  0.00    -0.422 OA 
HETATM    2  C   UNL     1     -10.890   9.979  70.276  1.00  0.00    -0.313 A  
HETATM    3  H   UNL     1     -10.551  11.402  68.929  1.00  0.00     0.000 HD 
HETATM    4  N   UNL     1     -11.312   9.709  71.480  1.00  0.00    -0.380 NA 
HETATM    5  C   UNL     1     -11.143   8.353  71.600  1.00  0.00    -0.278 A  
HETATM    6  C   UNL     1     -11.375   7.532  72.711  1.00  0.00    -0.388 A  
HETATM    7  C   UNL     1     -11.117   6.161  72.600  1.00  0.00    -0.308 A  
HETATM    8  C   UNL     1     -10.665   5.615  71.401  1.00  0.00    -0.310 A  
HETATM    9  C   UNL     1     -10.432   6.415  70.277  1.00  0.00    -0.270 A  
HETATM   10  C   UNL     1     -10.649   7.791  70.419  1.00  0.00    -0.227 A  
HETATM   11  N   UNL     1     -10.431   8.876  69.607  1.00  0.00    -0.213 NA 
ENDROOT
BRANCH  11  12
HETATM   12  C   UNL     1      -9.671   8.951  68.379  1.00  0.00    -0.161 C  
HETATM   13  C   UNL     1      -8.730  10.148  68.277  1.00  0.00    -0.120 C  
HETATM   14  C   UNL     1      -7.823   9.906  67.069  1.00  0.00    -0.102 C  
HETATM   15  N   UNL     1      -8.561   9.719  65.807  1.00  0.00    -0.131 NA 
HETATM   16  C   UNL     1      -9.584   8.666  65.913  1.00  0.00    -0.139 C  
HETATM   17  C   UNL     1     -10.519   8.846  67.107  1.00  0.00    -0.344 C  
BRANCH  15  18
HETATM   18  C   UNL     1      -9.111  10.965  65.254  1.00  0.00    -0.197 C  
BRANCH  18  19
HETATM   19  C   UNL     1     -10.083  10.723  64.095  1.00  0.00    -0.418 C  
BRANCH  19  20
HETATM   20  C   UNL     1     -10.410  12.013  63.343  1.00  0.00    -0.468 C  
BRANCH  20  21
HETATM   21  C   UNL     1     -11.677  12.655  63.863  1.00  0.00    -0.457 C  
HETATM   22  O   UNL     1     -12.778  12.477  63.348  1.00  0.00    -0.710 OA 
BRANCH  21  23
HETATM   23  C   UNL     1     -11.563  13.573  65.028  1.00  0.00    -0.345 A  
HETATM   24  C   UNL     1     -10.880  14.783  64.845  1.00  0.00    -0.433 A  
HETATM   25  C   UNL     1     -10.720  15.664  65.913  1.00  0.00    -0.336 A  
HETATM   26  C   UNL     1     -11.254  15.341  67.154  1.00  0.00    -0.291 A  
HETATM   27  C   UNL     1     -11.947  14.151  67.347  1.00  0.00    -0.439 A  
HETATM   28  F   UNL     1     -11.099  16.186  68.180  1.00  0.00    -0.305 F  
HETATM   29  C   UNL     1     -12.104  13.260  66.283  1.00  0.00    -0.472 A  
ENDBRANCH  21  23
ENDBRANCH  20  21
ENDBRANCH  19  20
ENDBRANCH  18  19
ENDBRANCH  15  18
ENDBRANCH  11  12
TORSDOF 6
ENDMDL
MODEL       48
REMARK 921   NORMALIZED FREE ENERGY PREDICTED BY IDOCK:   -6.19 KCAL/MOL
REMARK 922        TOTAL FREE ENERGY PREDICTED BY IDOCK:   -9.67 KCAL/MOL
REMARK 923 INTER-LIGAND FREE ENERGY PREDICTED BY IDOCK:   -7.62 KCAL/MOL
REMARK 924 INTRA-LIGAND FREE ENERGY PREDICTED BY IDOCK:   -2.05 KCAL/MOL
REMARK 927      BINDING AFFINITY PREDICTED BY RF-SCORE:    0.00 PKD
ROOT
HETATM    1  O   UNL     1      -6.190  12.735  70.795  1.00  0.00    -0.523 OA 
HETATM    2  C   UNL     1      -6.432  13.763  70.013  1.00  0.00    -0.027 A  
HETATM    3  H   UNL     1      -6.298  11.840  70.498  1.00  0.00     0.000 HD 
HETATM    4  N   UNL     1      -6.284  14.993  70.420  1.00  0.00    -0.133 NA 
HETATM    5  C   UNL     1      -6.676  15.752  69.346  1.00  0.00    -0.184 A  
HETATM    6  C   UNL     1      -6.779  17.145  69.245  1.00  0.00    -0.228 A  
HETATM    7  C   UNL     1      -7.218  17.701  68.037  1.00  0.00    -0.216 A  
HETATM    8  C   UNL     1      -7.520  16.890  66.946  1.00  0.00    -0.254 A  
HETATM    9  C   UNL     1      -7.419  15.497  67.024  1.00  0.00    -0.205 A  
HETATM   10  C   UNL     1      -7.025  14.954  68.253  1.00  0.00    -0.117 A  
HETATM   11  N   UNL     1      -6.922  13.674  68.738  1.00  0.00    -0.102 NA 
ENDROOT
BRANCH  11  12
HETATM   12  C   UNL     1      -7.423  12.445  68.164  1.00  0.00    -0.118 C  
HETATM   13  C   UNL     1      -6.528  11.822  67.096  1.00  0.00    -0.146 C  
HETATM   14  C   UNL     1      -7.066  10.417  66.821  1.00  0.00    -0.105 C  
HETATM   15  N   UNL     1      -8.476  10.400  66.389  1.00  0.00    -0.134 NA 
HETATM   16  C   UNL     1      -9.351  11.123  67.325  1.00  0.00    -0.160 C  
HETATM   17  C   UNL     1      -8.863  12.533  67.648  1.00  0.00    -0.179 C  
BRANCH  15  18
HETATM   18  C   UNL     1      -8.673  10.841  65.001  1.00  0.00    -0.151 C  
BRANCH  18  19
HETATM   19  C   UNL     1     -10.060  10.488  64.457  1.00  0.00    -0.402 C  
BRANCH  19  20
HETATM   20  C   UNL     1     -10.519  11.469  63.378  1.00  0.00    -0.466 C  
BRANCH  20  21
HETATM   21  C   UNL     1     -11.744  12.243  63.813  1.00  0.00    -0.478 C  
HETATM   22  O   UNL     1     -12.859  12.056  63.333  1.00  0.00    -0.760 OA 
BRANCH  21  23
HETATM   23  C   UNL     1     -11.566  13.303  64.841  1.00  0.00    -0.353 A  
HETATM   24  C   UNL     1     -12.241  13.153  66.061  1.00  0.00    -0.478 A  
HETATM   25  C   UNL     1     -12.130  14.133  67.046  1.00  0.00    -0.449 A  
HETATM   26  C   UNL     1     -11.337  15.250  66.816  1.00  0.00    -0.183 A  
HETATM   27  C   UNL     1     -10.650  15.405  65.616  1.00  0.00    -0.379 A  
HETATM   28  F   UNL     1     -11.233  16.192  67.761  1.00  0.00    -0.333 F  
HETATM   29  C   UNL     1     -10.763  14.430  64.622  1.00  0.00    -0.357 A  
ENDBRANCH  21  23
ENDBRANCH  20  21
ENDBRANCH  19  20
ENDBRANCH  18  19
ENDBRANCH  15  18
ENDBRANCH  11  12
TORSDOF 6
ENDMDL
MODEL       49
REMARK 921   NORMALIZED FREE ENERGY PREDICTED BY IDOCK:   -6.17 KCAL/MOL
REMARK 922        TOTAL FREE ENERGY PREDICTED BY IDOCK:   -9.64 KCAL/MOL
REMARK 923 INTER-LIGAND FREE ENERGY PREDICTED BY IDOCK:   -8.82 KCAL/MOL
REMARK 924 INTRA-LIGAND FREE ENERGY PREDICTED BY IDOCK:   -0.82 KCAL/MOL
REMARK 927      BINDING AFFINITY PREDICTED BY RF-SCORE:    0.00 PKD
ROOT
HETATM    1  O   UNL     1     -12.038  14.983  63.587  1.00  0.00    -0.903 OA 
HETATM    2  C   UNL     1     -11.555  15.708  64.570  1.00  0.00    -0.262 A  
HETATM    3  H   UNL     1     -12.185  14.049  63.674  1.00  0.00     0.000 HD 
HETATM    4  N   UNL     1     -11.352  16.990  64.450  1.00  0.00    -1.052 NA 
HETATM    5  C   UNL     1     -10.806  17.359  65.654  1.00  0.00    -0.011 A  
HETATM    6  C   UNL     1     -10.335  18.614  66.059  1.00  0.00    -0.436 A  
HETATM    7  C   UNL     1      -9.803  18.750  67.346  1.00  0.00    -0.357 A  
HETATM    8  C   UNL     1      -9.767  17.667  68.221  1.00  0.00    -0.315 A  
HETATM    9  C   UNL     1     -10.238  16.406  67.840  1.00  0.00    -0.268 A  
HETATM   10  C   UNL     1     -10.722  16.275  66.533  1.00  0.00    -0.187 A  
HETATM   11  N   UNL     1     -11.149  15.211  65.779  1.00  0.00    -0.344 NA 
ENDROOT
BRANCH  11  12
HETATM   12  C   UNL     1     -11.017  13.796  66.052  1.00  0.00    -0.284 C  
HETATM   13  C   UNL     1     -11.926  13.267  67.157  1.00  0.00    -0.400 C  
HETATM   14  C   UNL     1     -11.856  11.740  67.105  1.00  0.00    -0.077 C  
HETATM   15  N   UNL     1     -10.489  11.208  67.261  1.00  0.00    -0.214 NA 
HETATM   16  C   UNL     1      -9.548  11.809  66.303  1.00  0.00    -0.225 C  
HETATM   17  C   UNL     1      -9.576  13.335  66.299  1.00  0.00    -0.244 C  
BRANCH  15  18
HETATM   18  C   UNL     1      -9.984  11.271  68.640  1.00  0.00    -0.204 C  
BRANCH  18  19
HETATM   19  C   UNL     1     -10.982  10.722  69.663  1.00  0.00    -0.320 C  
BRANCH  19  20
HETATM   20  C   UNL     1     -10.292   9.897  70.751  1.00  0.00    -0.198 C  
BRANCH  20  21
HETATM   21  C   UNL     1     -11.211   8.834  71.311  1.00  0.00    -0.284 C  
HETATM   22  O   UNL     1     -12.219   9.096  71.963  1.00  0.00    -0.367 OA 
BRANCH  21  23
HETATM   23  C   UNL     1     -10.843   7.410  71.087  1.00  0.00    -0.258 A  
HETATM   24  C   UNL     1     -10.851   6.931  69.770  1.00  0.00    -0.295 A  
HETATM   25  C   UNL     1     -10.542   5.596  69.510  1.00  0.00    -0.384 A  
HETATM   26  C   UNL     1     -10.214   4.751  70.563  1.00  0.00    -0.182 A  
HETATM   27  C   UNL     1     -10.188   5.218  71.873  1.00  0.00    -0.264 A  
HETATM   28  F   UNL     1      -9.920   3.470  70.314  1.00  0.00    -0.253 F  
HETATM   29  C   UNL     1     -10.504   6.552  72.141  1.00  0.00    -0.229 A  
ENDBRANCH  21  23
ENDBRANCH  20  21
ENDBRANCH  19  20
ENDBRANCH  18  19
ENDBRANCH  15  18
ENDBRANCH  11  12
TORSDOF 6
ENDMDL
MODEL       50
REMARK 921   NORMALIZED FREE ENERGY PREDICTED BY IDOCK:   -6.13 KCAL/MOL
REMARK 922        TOTAL FREE ENERGY PREDICTED BY IDOCK:   -9.58 KCAL/MOL
REMARK 923 INTER-LIGAND FREE ENERGY PREDICTED BY IDOCK:   -8.74 KCAL/MOL
REMARK 924 INTRA-LIGAND FREE ENERGY PREDICTED BY IDOCK:   -0.84 KCAL/MOL
REMARK 927      BINDING AFFINITY PREDICTED BY RF-SCORE:    0.00 PKD
ROOT
HETATM    1  O   UNL     1     -14.382   9.650  71.368  1.00  0.00     0.098 OA 
HETATM    2  C   UNL     1     -13.139   9.285  71.583  1.00  0.00    -0.382 A  
HETATM    3  H   UNL     1     -14.619  10.244  70.665  1.00  0.00     0.000 HD 
HETATM    4  N   UNL     1     -12.813   8.470  72.547  1.00  0.00    -0.316 NA 
HETATM    5  C   UNL     1     -11.446   8.383  72.467  1.00  0.00    -0.352 A  
HETATM    6  C   UNL     1     -10.559   7.690  73.301  1.00  0.00    -0.411 A  
HETATM    7  C   UNL     1      -9.188   7.758  73.027  1.00  0.00    -0.285 A  
HETATM    8  C   UNL     1      -8.713   8.475  71.932  1.00  0.00    -0.270 A  
HETATM    9  C   UNL     1      -9.582   9.169  71.083  1.00  0.00    -0.347 A  
HETATM   10  C   UNL     1     -10.945   9.132  71.399  1.00  0.00    -0.344 A  
HETATM   11  N   UNL     1     -12.057   9.756  70.890  1.00  0.00    -0.310 NA 
ENDROOT
BRANCH  11  12
HETATM   12  C   UNL     1     -12.128  10.867  69.965  1.00  0.00    -0.355 C  
HETATM   13  C   UNL     1     -11.169  10.780  68.781  1.00  0.00    -0.331 C  
HETATM   14  C   UNL     1     -11.582  11.866  67.787  1.00  0.00    -0.323 C  
HETATM   15  N   UNL     1     -11.573  13.224  68.362  1.00  0.00    -0.314 NA 
HETATM   16  C   UNL     1     -12.372  13.310  69.594  1.00  0.00    -0.097 C  
HETATM   17  C   UNL     1     -12.014  12.244  70.626  1.00  0.00    -0.218 C  
BRANCH  15  18
HETATM   18  C   UNL     1     -10.224  13.780  68.542  1.00  0.00    -0.235 C  
BRANCH  18  19
HETATM   19  C   UNL     1      -9.294  13.476  67.365  1.00  0.00    -0.228 C  
BRANCH  19  20
HETATM   20  C   UNL     1      -8.787  14.751  66.690  1.00  0.00    -0.262 C  
BRANCH  20  21
HETATM   21  C   UNL     1      -9.777  15.273  65.672  1.00  0.00    -0.325 C  
HETATM   22  O   UNL     1      -9.969  16.471  65.479  1.00  0.00    -0.541 OA 
BRANCH  21  23
HETATM   23  C   UNL     1     -10.574  14.279  64.905  1.00  0.00    -0.452 A  
HETATM   24  C   UNL     1     -11.968  14.426  64.892  1.00  0.00    -0.430 A  
HETATM   25  C   UNL     1     -12.761  13.503  64.212  1.00  0.00    -0.079 A  
HETATM   26  C   UNL     1     -12.161  12.447  63.538  1.00  0.00    -0.558 A  
HETATM   27  C   UNL     1     -10.778  12.298  63.530  1.00  0.00    -0.497 A  
HETATM   28  F   UNL     1     -12.923  11.561  62.887  1.00  0.00    -0.572 F  
HETATM   29  C   UNL     1      -9.977  13.214  64.215  1.00  0.00    -0.007 A  
ENDBRANCH  21  23
ENDBRANCH  20  21
ENDBRANCH  19  20
ENDBRANCH  18  19
ENDBRANCH  15  18
ENDBRANCH  11  12
TORSDOF 6
ENDMDL
MODEL       51
REMARK 921   NORMALIZED FREE ENERGY PREDICTED BY IDOCK:   -6.11 KCAL/MOL
REMARK 922        TOTAL FREE ENERGY PREDICTED BY IDOCK:   -9.56 KCAL/MOL
REMARK 923 INTER-LIGAND FREE ENERGY PREDICTED BY IDOCK:   -8.75 KCAL/MOL
REMARK 924 INTRA-LIGAND FREE ENERGY PREDICTED BY IDOCK:   -0.81 KCAL/MOL
REMARK 927      BINDING AFFINITY PREDICTED BY RF-SCORE:    0.00 PKD
ROOT
HETATM    1  O   UNL     1      -9.201   9.323  64.111  1.00  0.00    -0.432 OA 
HETATM    2  C   UNL     1      -9.946  10.368  64.393  1.00  0.00    -0.318 A  
HETATM    3  H   UNL     1      -8.888   8.730  64.784  1.00  0.00     0.000 HD 
HETATM    4  N   UNL     1     -10.376  11.182  63.471  1.00  0.00    -0.378 NA 
HETATM    5  C   UNL     1     -11.060  12.148  64.165  1.00  0.00    -0.364 A  
HETATM    6  C   UNL     1     -11.680  13.307  63.681  1.00  0.00    -0.447 A  
HETATM    7  C   UNL     1     -12.316  14.159  64.591  1.00  0.00    -0.432 A  
HETATM    8  C   UNL     1     -12.358  13.851  65.949  1.00  0.00    -0.517 A  
HETATM    9  C   UNL     1     -11.750  12.696  66.453  1.00  0.00    -0.466 A  
HETATM   10  C   UNL     1     -11.078  11.879  65.537  1.00  0.00    -0.304 A  
HETATM   11  N   UNL     1     -10.291  10.760  65.659  1.00  0.00    -0.250 NA 
ENDROOT
BRANCH  11  12
HETATM   12  C   UNL     1      -9.713  10.185  66.854  1.00  0.00    -0.187 C  
HETATM   13  C   UNL     1     -10.525   9.055  67.481  1.00  0.00    -0.338 C  
HETATM   14  C   UNL     1      -9.636   8.396  68.538  1.00  0.00    -0.149 C  
HETATM   15  N   UNL     1      -9.164   9.332  69.575  1.00  0.00    -0.157 NA 
HETATM   16  C   UNL     1      -8.503  10.513  68.998  1.00  0.00    -0.157 C  
HETATM   17  C   UNL     1      -9.337  11.212  67.927  1.00  0.00    -0.161 C  
BRANCH  15  18
HETATM   18  C   UNL     1     -10.198   9.703  70.551  1.00  0.00    -0.287 C  
BRANCH  18  19
HETATM   19  C   UNL     1     -10.184   8.817  71.799  1.00  0.00    -0.408 C  
BRANCH  19  20
HETATM   20  C   UNL     1     -11.593   8.548  72.328  1.00  0.00    -0.444 C  
BRANCH  20  21
HETATM   21  C   UNL     1     -12.198   7.312  71.699  1.00  0.00    -0.343 C  
HETATM   22  O   UNL     1     -13.359   7.265  71.300  1.00  0.00    -0.369 OA 
BRANCH  21  23
HETATM   23  C   UNL     1     -11.348   6.095  71.602  1.00  0.00    -0.341 A  
HETATM   24  C   UNL     1     -11.123   5.359  72.773  1.00  0.00    -0.349 A  
HETATM   25  C   UNL     1     -10.309   4.227  72.741  1.00  0.00    -0.243 A  
HETATM   26  C   UNL     1      -9.738   3.828  71.539  1.00  0.00    -0.171 A  
HETATM   27  C   UNL     1      -9.965   4.541  70.367  1.00  0.00    -0.284 A  
HETATM   28  F   UNL     1      -8.956   2.743  71.509  1.00  0.00    -0.102 F  
HETATM   29  C   UNL     1     -10.772   5.680  70.394  1.00  0.00    -0.352 A  
ENDBRANCH  21  23
ENDBRANCH  20  21
ENDBRANCH  19  20
ENDBRANCH  18  19
ENDBRANCH  15  18
ENDBRANCH  11  12
TORSDOF 6
ENDMDL
MODEL       52
REMARK 921   NORMALIZED FREE ENERGY PREDICTED BY IDOCK:   -6.07 KCAL/MOL
REMARK 922        TOTAL FREE ENERGY PREDICTED BY IDOCK:   -9.51 KCAL/MOL
REMARK 923 INTER-LIGAND FREE ENERGY PREDICTED BY IDOCK:   -7.43 KCAL/MOL
REMARK 924 INTRA-LIGAND FREE ENERGY PREDICTED BY IDOCK:   -2.08 KCAL/MOL
REMARK 927      BINDING AFFINITY PREDICTED BY RF-SCORE:    0.00 PKD
ROOT
HETATM    1  O   UNL     1     -13.495  15.963  71.293  1.00  0.00    -0.527 OA 
HETATM    2  C   UNL     1     -13.182  14.697  71.132  1.00  0.00    -0.372 A  
HETATM    3  H   UNL     1     -13.194  16.637  70.695  1.00  0.00     0.000 HD 
HETATM    4  N   UNL     1     -13.596  13.772  71.951  1.00  0.00    -0.409 NA 
HETATM    5  C   UNL     1     -13.023  12.620  71.475  1.00  0.00    -0.282 A  
HETATM    6  C   UNL     1     -13.079  11.325  72.007  1.00  0.00    -0.431 A  
HETATM    7  C   UNL     1     -12.398  10.296  71.345  1.00  0.00    -0.502 A  
HETATM    8  C   UNL     1     -11.701  10.546  70.165  1.00  0.00    -0.410 A  
HETATM    9  C   UNL     1     -11.638  11.830  69.613  1.00  0.00    -0.393 A  
HETATM   10  C   UNL     1     -12.283  12.856  70.313  1.00  0.00    -0.289 A  
HETATM   11  N   UNL     1     -12.350  14.218  70.157  1.00  0.00    -0.340 NA 
ENDROOT
BRANCH  11  12
HETATM   12  C   UNL     1     -11.552  15.072  69.303  1.00  0.00    -0.315 C  
HETATM   13  C   UNL     1     -11.715  14.817  67.808  1.00  0.00    -0.368 C  
HETATM   14  C   UNL     1     -11.034  15.976  67.077  1.00  0.00    -0.154 C  
HETATM   15  N   UNL     1      -9.610  16.135  67.423  1.00  0.00    -0.228 NA 
HETATM   16  C   UNL     1      -9.401  16.236  68.876  1.00  0.00    -0.248 C  
HETATM   17  C   UNL     1     -10.064  15.110  69.665  1.00  0.00    -0.202 C  
BRANCH  15  18
HETATM   18  C   UNL     1      -8.737  15.123  66.811  1.00  0.00    -0.273 C  
BRANCH  18  19
HETATM   19  C   UNL     1      -7.393  14.983  67.532  1.00  0.00    -0.228 C  
BRANCH  19  20
HETATM   20  C   UNL     1      -6.780  13.596  67.338  1.00  0.00    -0.023 C  
BRANCH  20  21
HETATM   21  C   UNL     1      -7.222  12.635  68.420  1.00  0.00    -0.111 C  
HETATM   22  O   UNL     1      -6.881  12.748  69.595  1.00  0.00     0.016 OA 
BRANCH  21  23
HETATM   23  C   UNL     1      -8.075  11.484  68.020  1.00  0.00    -0.136 A  
HETATM   24  C   UNL     1      -8.950  11.662  66.939  1.00  0.00    -0.191 A  
HETATM   25  C   UNL     1      -9.792  10.623  66.544  1.00  0.00    -0.250 A  
HETATM   26  C   UNL     1      -9.747   9.410  67.219  1.00  0.00    -0.165 A  
HETATM   27  C   UNL     1      -8.874   9.215  68.283  1.00  0.00    -0.129 A  
HETATM   28  F   UNL     1     -10.557   8.414  66.841  1.00  0.00    -0.358 F  
HETATM   29  C   UNL     1      -8.033  10.254  68.690  1.00  0.00    -0.111 A  
ENDBRANCH  21  23
ENDBRANCH  20  21
ENDBRANCH  19  20
ENDBRANCH  18  19
ENDBRANCH  15  18
ENDBRANCH  11  12
TORSDOF 6
ENDMDL
MODEL       53
REMARK 921   NORMALIZED FREE ENERGY PREDICTED BY IDOCK:   -6.06 KCAL/MOL
REMARK 922        TOTAL FREE ENERGY PREDICTED BY IDOCK:   -9.50 KCAL/MOL
REMARK 923 INTER-LIGAND FREE ENERGY PREDICTED BY IDOCK:   -8.95 KCAL/MOL
REMARK 924 INTRA-LIGAND FREE ENERGY PREDICTED BY IDOCK:   -0.54 KCAL/MOL
REMARK 927      BINDING AFFINITY PREDICTED BY RF-SCORE:    0.00 PKD
ROOT
HETATM    1  O   UNL     1     -11.174   7.620  67.991  1.00  0.00    -0.414 OA 
HETATM    2  C   UNL     1     -10.978   7.412  69.273  1.00  0.00    -0.070 A  
HETATM    3  H   UNL     1     -11.047   8.472  67.592  1.00  0.00     0.000 HD 
HETATM    4  N   UNL     1     -11.153   6.242  69.820  1.00  0.00    -0.372 NA 
HETATM    5  C   UNL     1     -10.900   6.452  71.152  1.00  0.00    -0.258 A  
HETATM    6  C   UNL     1     -10.998   5.550  72.219  1.00  0.00    -0.296 A  
HETATM    7  C   UNL     1     -10.696   5.999  73.510  1.00  0.00    -0.270 A  
HETATM    8  C   UNL     1     -10.279   7.310  73.730  1.00  0.00    -0.370 A  
HETATM    9  C   UNL     1     -10.168   8.225  72.678  1.00  0.00    -0.368 A  
HETATM   10  C   UNL     1     -10.520   7.774  71.401  1.00  0.00    -0.208 A  
HETATM   11  N   UNL     1     -10.647   8.384  70.178  1.00  0.00    -0.229 NA 
ENDROOT
BRANCH  11  12
HETATM   12  C   UNL     1     -10.666   9.797  69.869  1.00  0.00    -0.268 C  
HETATM   13  C   UNL     1     -12.057  10.418  69.786  1.00  0.00    -0.208 C  
HETATM   14  C   UNL     1     -11.871  11.936  69.740  1.00  0.00    -0.340 C  
HETATM   15  N   UNL     1     -11.033  12.392  68.616  1.00  0.00    -0.237 NA 
HETATM   16  C   UNL     1      -9.734  11.703  68.577  1.00  0.00    -0.184 C  
HETATM   17  C   UNL     1      -9.851  10.182  68.629  1.00  0.00    -0.170 C  
BRANCH  15  18
HETATM   18  C   UNL     1     -11.716  12.349  67.315  1.00  0.00    -0.349 C  
BRANCH  18  19
HETATM   19  C   UNL     1     -12.081  13.740  66.789  1.00  0.00    -0.460 C  
BRANCH  19  20
HETATM   20  C   UNL     1     -11.535  14.853  67.685  1.00  0.00    -0.366 C  
BRANCH  20  21
HETATM   21  C   UNL     1     -10.407  15.605  67.015  1.00  0.00    -0.289 C  
HETATM   22  O   UNL     1      -9.554  15.054  66.322  1.00  0.00    -0.269 OA 
BRANCH  21  23
HETATM   23  C   UNL     1     -10.315  17.071  67.247  1.00  0.00    -0.311 A  
HETATM   24  C   UNL     1     -10.513  17.922  66.151  1.00  0.00    -0.321 A  
HETATM   25  C   UNL     1     -10.409  19.303  66.311  1.00  0.00    -0.566 A  
HETATM   26  C   UNL     1     -10.120  19.828  67.564  1.00  0.00    -0.420 A  
HETATM   27  C   UNL     1      -9.936  18.997  68.663  1.00  0.00    -0.482 A  
HETATM   28  F   UNL     1     -10.018  21.154  67.716  1.00  0.00    -0.490 F  
HETATM   29  C   UNL     1     -10.031  17.612  68.509  1.00  0.00    -0.368 A  
ENDBRANCH  21  23
ENDBRANCH  20  21
ENDBRANCH  19  20
ENDBRANCH  18  19
ENDBRANCH  15  18
ENDBRANCH  11  12
TORSDOF 6
ENDMDL
MODEL       54
REMARK 921   NORMALIZED FREE ENERGY PREDICTED BY IDOCK:   -6.06 KCAL/MOL
REMARK 922        TOTAL FREE ENERGY PREDICTED BY IDOCK:   -9.50 KCAL/MOL
REMARK 923 INTER-LIGAND FREE ENERGY PREDICTED BY IDOCK:   -7.91 KCAL/MOL
REMARK 924 INTRA-LIGAND FREE ENERGY PREDICTED BY IDOCK:   -1.59 KCAL/MOL
REMARK 927      BINDING AFFINITY PREDICTED BY RF-SCORE:    0.00 PKD
ROOT
HETATM    1  O   UNL     1      -9.199   9.250  64.297  1.00  0.00    -0.435 OA 
HETATM    2  C   UNL     1      -9.806   9.882  65.276  1.00  0.00    -0.303 A  
HETATM    3  H   UNL     1      -9.023   8.318  64.332  1.00  0.00     0.000 HD 
HETATM    4  N   UNL     1     -10.049  11.162  65.230  1.00  0.00    -0.260 NA 
HETATM    5  C   UNL     1     -10.637  11.438  66.438  1.00  0.00    -0.263 A  
HETATM    6  C   UNL     1     -11.050  12.673  66.954  1.00  0.00    -0.315 A  
HETATM    7  C   UNL     1     -11.623  12.711  68.231  1.00  0.00    -0.377 A  
HETATM    8  C   UNL     1     -11.806  11.542  68.966  1.00  0.00    -0.408 A  
HETATM    9  C   UNL     1     -11.406  10.297  68.467  1.00  0.00    -0.231 A  
HETATM   10  C   UNL     1     -10.792  10.283  67.210  1.00  0.00    -0.250 A  
HETATM   11  N   UNL     1     -10.183   9.307  66.460  1.00  0.00    -0.266 NA 
ENDROOT
BRANCH  11  12
HETATM   12  C   UNL     1      -9.780   7.976  66.860  1.00  0.00    -0.225 C  
HETATM   13  C   UNL     1     -10.898   6.938  66.855  1.00  0.00    -0.380 C  
HETATM   14  C   UNL     1     -10.239   5.567  67.021  1.00  0.00    -0.224 C  
HETATM   15  N   UNL     1      -9.427   5.448  68.246  1.00  0.00    -0.115 NA 
HETATM   16  C   UNL     1      -8.431   6.525  68.358  1.00  0.00    -0.120 C  
HETATM   17  C   UNL     1      -9.025   7.922  68.193  1.00  0.00    -0.131 C  
BRANCH  15  18
HETATM   18  C   UNL     1     -10.226   5.309  69.472  1.00  0.00    -0.268 C  
BRANCH  18  19
HETATM   19  C   UNL     1      -9.378   5.383  70.745  1.00  0.00    -0.200 C  
BRANCH  19  20
HETATM   20  C   UNL     1     -10.065   4.707  71.932  1.00  0.00    -0.266 C  
BRANCH  20  21
HETATM   21  C   UNL     1     -10.559   5.721  72.941  1.00  0.00    -0.232 C  
HETATM   22  O   UNL     1     -10.328   5.634  74.145  1.00  0.00    -0.251 OA 
BRANCH  21  23
HETATM   23  C   UNL     1     -11.393   6.847  72.443  1.00  0.00    -0.308 A  
HETATM   24  C   UNL     1     -12.686   6.552  71.987  1.00  0.00    -0.154 A  
HETATM   25  C   UNL     1     -13.497   7.569  71.483  1.00  0.00    -0.426 A  
HETATM   26  C   UNL     1     -13.020   8.873  71.449  1.00  0.00    -0.278 A  
HETATM   27  C   UNL     1     -11.746   9.181  71.912  1.00  0.00    -0.436 A  
HETATM   28  F   UNL     1     -13.798   9.847  70.963  1.00  0.00    -0.370 F  
HETATM   29  C   UNL     1     -10.925   8.167  72.411  1.00  0.00    -0.414 A  
ENDBRANCH  21  23
ENDBRANCH  20  21
ENDBRANCH  19  20
ENDBRANCH  18  19
ENDBRANCH  15  18
ENDBRANCH  11  12
TORSDOF 6
ENDMDL
MODEL       55
REMARK 921   NORMALIZED FREE ENERGY PREDICTED BY IDOCK:   -6.06 KCAL/MOL
REMARK 922        TOTAL FREE ENERGY PREDICTED BY IDOCK:   -9.49 KCAL/MOL
REMARK 923 INTER-LIGAND FREE ENERGY PREDICTED BY IDOCK:   -8.75 KCAL/MOL
REMARK 924 INTRA-LIGAND FREE ENERGY PREDICTED BY IDOCK:   -0.74 KCAL/MOL
REMARK 927      BINDING AFFINITY PREDICTED BY RF-SCORE:    0.00 PKD
ROOT
HETATM    1  O   UNL     1     -11.903  15.831  63.774  1.00  0.00    -1.078 OA 
HETATM    2  C   UNL     1     -11.352  16.451  64.793  1.00  0.00    -0.150 A  
HETATM    3  H   UNL     1     -12.068  14.895  63.782  1.00  0.00     0.000 HD 
HETATM    4  N   UNL     1     -11.126  17.734  64.783  1.00  0.00    -0.599 NA 
HETATM    5  C   UNL     1     -10.509  17.977  65.984  1.00  0.00    -0.313 A  
HETATM    6  C   UNL     1      -9.988  19.180  66.478  1.00  0.00    -0.448 A  
HETATM    7  C   UNL     1      -9.387  19.183  67.742  1.00  0.00    -0.360 A  
HETATM    8  C   UNL     1      -9.331  18.022  68.509  1.00  0.00    -0.312 A  
HETATM    9  C   UNL     1      -9.850  16.812  68.037  1.00  0.00    -0.265 A  
HETATM   10  C   UNL     1     -10.405  16.814  66.752  1.00  0.00    -0.293 A  
HETATM   11  N   UNL     1     -10.897  15.834  65.927  1.00  0.00    -0.303 NA 
ENDROOT
BRANCH  11  12
HETATM   12  C   UNL     1     -10.783  14.398  66.059  1.00  0.00    -0.302 C  
HETATM   13  C   UNL     1     -11.880  13.741  66.892  1.00  0.00    -0.447 C  
HETATM   14  C   UNL     1     -11.760  12.230  66.683  1.00  0.00    -0.349 C  
HETATM   15  N   UNL     1     -10.438  11.688  67.048  1.00  0.00    -0.216 NA 
HETATM   16  C   UNL     1      -9.342  12.399  66.372  1.00  0.00    -0.219 C  
HETATM   17  C   UNL     1      -9.409  13.916  66.536  1.00  0.00    -0.264 C  
BRANCH  15  18
HETATM   18  C   UNL     1     -10.219  11.592  68.498  1.00  0.00    -0.210 C  
BRANCH  18  19
HETATM   19  C   UNL     1      -9.553  10.277  68.913  1.00  0.00    -0.193 C  
BRANCH  19  20
HETATM   20  C   UNL     1     -10.268   9.061  68.321  1.00  0.00    -0.241 C  
BRANCH  20  21
HETATM   21  C   UNL     1      -9.802   7.774  68.963  1.00  0.00    -0.169 C  
HETATM   22  O   UNL     1      -9.254   6.872  68.333  1.00  0.00    -0.127 OA 
BRANCH  21  23
HETATM   23  C   UNL     1     -10.060   7.588  70.416  1.00  0.00    -0.196 A  
HETATM   24  C   UNL     1      -9.059   6.982  71.187  1.00  0.00    -0.153 A  
HETATM   25  C   UNL     1      -9.264   6.759  72.548  1.00  0.00    -0.146 A  
HETATM   26  C   UNL     1     -10.460   7.154  73.135  1.00  0.00    -0.321 A  
HETATM   27  C   UNL     1     -11.455   7.771  72.384  1.00  0.00    -0.418 A  
HETATM   28  F   UNL     1     -10.657   6.939  74.440  1.00  0.00    -0.372 F  
HETATM   29  C   UNL     1     -11.260   7.990  71.019  1.00  0.00    -0.287 A  
ENDBRANCH  21  23
ENDBRANCH  20  21
ENDBRANCH  19  20
ENDBRANCH  18  19
ENDBRANCH  15  18
ENDBRANCH  11  12
TORSDOF 6
ENDMDL
MODEL       56
REMARK 921   NORMALIZED FREE ENERGY PREDICTED BY IDOCK:   -6.03 KCAL/MOL
REMARK 922        TOTAL FREE ENERGY PREDICTED BY IDOCK:   -9.45 KCAL/MOL
REMARK 923 INTER-LIGAND FREE ENERGY PREDICTED BY IDOCK:   -8.76 KCAL/MOL
REMARK 924 INTRA-LIGAND FREE ENERGY PREDICTED BY IDOCK:   -0.68 KCAL/MOL
REMARK 927      BINDING AFFINITY PREDICTED BY RF-SCORE:    0.00 PKD
ROOT
HETATM    1  O   UNL     1      -9.116   4.067  71.909  1.00  0.00    -0.114 OA 
HETATM    2  C   UNL     1      -9.440   4.292  70.656  1.00  0.00    -0.171 A  
HETATM    3  H   UNL     1      -9.395   4.640  72.613  1.00  0.00     0.000 HD 
HETATM    4  N   UNL     1      -9.057   3.506  69.690  1.00  0.00    -0.120 NA 
HETATM    5  C   UNL     1      -9.549   4.102  68.556  1.00  0.00    -0.125 A  
HETATM    6  C   UNL     1      -9.384   3.720  67.218  1.00  0.00    -0.228 A  
HETATM    7  C   UNL     1      -9.977   4.499  66.218  1.00  0.00    -0.268 A  
HETATM    8  C   UNL     1     -10.740   5.617  66.543  1.00  0.00    -0.296 A  
HETATM    9  C   UNL     1     -10.923   6.014  67.872  1.00  0.00    -0.334 A  
HETATM   10  C   UNL     1     -10.284   5.252  68.857  1.00  0.00    -0.178 A  
HETATM   11  N   UNL     1     -10.137   5.385  70.216  1.00  0.00    -0.227 NA 
ENDROOT
BRANCH  11  12
HETATM   12  C   UNL     1     -10.430   6.529  71.051  1.00  0.00    -0.222 C  
HETATM   13  C   UNL     1     -11.904   6.703  71.408  1.00  0.00    -0.388 C  
HETATM   14  C   UNL     1     -11.979   7.768  72.504  1.00  0.00    -0.253 C  
HETATM   15  N   UNL     1     -11.385   9.059  72.111  1.00  0.00    -0.320 NA 
HETATM   16  C   UNL     1     -10.007   8.910  71.619  1.00  0.00    -0.327 C  
HETATM   17  C   UNL     1      -9.863   7.853  70.527  1.00  0.00    -0.186 C  
BRANCH  15  18
HETATM   18  C   UNL     1     -12.220   9.834  71.181  1.00  0.00    -0.362 C  
BRANCH  18  19
HETATM   19  C   UNL     1     -11.397  10.718  70.240  1.00  0.00    -0.374 C  
BRANCH  19  20
HETATM   20  C   UNL     1     -12.267  11.738  69.504  1.00  0.00    -0.232 C  
BRANCH  20  21
HETATM   21  C   UNL     1     -11.695  13.134  69.605  1.00  0.00    -0.303 C  
HETATM   22  O   UNL     1     -10.838  13.564  68.836  1.00  0.00    -0.244 OA 
BRANCH  21  23
HETATM   23  C   UNL     1     -12.172  14.002  70.715  1.00  0.00    -0.438 A  
HETATM   24  C   UNL     1     -13.267  13.557  71.469  1.00  0.00    -0.402 A  
HETATM   25  C   UNL     1     -13.771  14.347  72.502  1.00  0.00    -0.589 A  
HETATM   26  C   UNL     1     -13.173  15.569  72.784  1.00  0.00    -0.508 A  
HETATM   27  C   UNL     1     -12.077  16.015  72.053  1.00  0.00    -0.606 A  
HETATM   28  F   UNL     1     -13.658  16.328  73.774  1.00  0.00    -0.549 F  
HETATM   29  C   UNL     1     -11.572  15.233  71.012  1.00  0.00    -0.399 A  
ENDBRANCH  21  23
ENDBRANCH  20  21
ENDBRANCH  19  20
ENDBRANCH  18  19
ENDBRANCH  15  18
ENDBRANCH  11  12
TORSDOF 6
ENDMDL
MODEL       57
REMARK 921   NORMALIZED FREE ENERGY PREDICTED BY IDOCK:   -6.00 KCAL/MOL
REMARK 922        TOTAL FREE ENERGY PREDICTED BY IDOCK:   -9.41 KCAL/MOL
REMARK 923 INTER-LIGAND FREE ENERGY PREDICTED BY IDOCK:   -8.58 KCAL/MOL
REMARK 924 INTRA-LIGAND FREE ENERGY PREDICTED BY IDOCK:   -0.84 KCAL/MOL
REMARK 927      BINDING AFFINITY PREDICTED BY RF-SCORE:    0.00 PKD
ROOT
HETATM    1  O   UNL     1     -11.466  16.511  63.808  1.00  0.00    -1.615 OA 
HETATM    2  C   UNL     1     -11.131  16.981  64.988  1.00  0.00     0.098 A  
HETATM    3  H   UNL     1     -11.653  15.591  63.666  1.00  0.00     0.000 HD 
HETATM    4  N   UNL     1     -10.875  18.244  65.183  1.00  0.00    -0.555 NA 
HETATM    5  C   UNL     1     -10.524  18.316  66.507  1.00  0.00    -0.356 A  
HETATM    6  C   UNL     1     -10.090  19.426  67.244  1.00  0.00    -0.497 A  
HETATM    7  C   UNL     1      -9.773  19.253  68.596  1.00  0.00    -0.494 A  
HETATM    8  C   UNL     1      -9.912  18.010  69.209  1.00  0.00    -0.095 A  
HETATM    9  C   UNL     1     -10.348  16.890  68.494  1.00  0.00    -0.336 A  
HETATM   10  C   UNL     1     -10.615  17.069  67.131  1.00  0.00    -0.245 A  
HETATM   11  N   UNL     1     -10.943  16.216  66.107  1.00  0.00    -0.120 NA 
ENDROOT
BRANCH  11  12
HETATM   12  C   UNL     1     -10.897  14.770  66.082  1.00  0.00    -0.321 C  
HETATM   13  C   UNL     1     -11.989  14.078  66.894  1.00  0.00    -0.479 C  
HETATM   14  C   UNL     1     -11.954  12.595  66.521  1.00  0.00    -0.331 C  
HETATM   15  N   UNL     1     -10.647  11.957  66.763  1.00  0.00    -0.221 NA 
HETATM   16  C   UNL     1      -9.546  12.686  66.114  1.00  0.00    -0.222 C  
HETATM   17  C   UNL     1      -9.530  14.178  66.439  1.00  0.00    -0.289 C  
BRANCH  15  18
HETATM   18  C   UNL     1     -10.371  11.697  68.183  1.00  0.00    -0.194 C  
BRANCH  18  19
HETATM   19  C   UNL     1      -9.766  10.311  68.426  1.00  0.00    -0.165 C  
BRANCH  19  20
HETATM   20  C   UNL     1     -10.204   9.300  67.365  1.00  0.00    -0.304 C  
BRANCH  20  21
HETATM   21  C   UNL     1     -10.216   7.890  67.911  1.00  0.00    -0.209 C  
HETATM   22  O   UNL     1     -10.476   7.627  69.083  1.00  0.00    -0.215 OA 
BRANCH  21  23
HETATM   23  C   UNL     1      -9.857   6.783  66.983  1.00  0.00    -0.217 A  
HETATM   24  C   UNL     1      -8.761   6.974  66.130  1.00  0.00    -0.155 A  
HETATM   25  C   UNL     1      -8.402   5.979  65.222  1.00  0.00    -0.148 A  
HETATM   26  C   UNL     1      -9.128   4.795  65.179  1.00  0.00    -0.155 A  
HETATM   27  C   UNL     1     -10.207   4.587  66.030  1.00  0.00    -0.288 A  
HETATM   28  F   UNL     1      -8.784   3.841  64.306  1.00  0.00    -0.101 F  
HETATM   29  C   UNL     1     -10.578   5.583  66.937  1.00  0.00    -0.348 A  
ENDBRANCH  21  23
ENDBRANCH  20  21
ENDBRANCH  19  20
ENDBRANCH  18  19
ENDBRANCH  15  18
ENDBRANCH  11  12
TORSDOF 6
ENDMDL
MODEL       58
REMARK 921   NORMALIZED FREE ENERGY PREDICTED BY IDOCK:   -5.97 KCAL/MOL
REMARK 922        TOTAL FREE ENERGY PREDICTED BY IDOCK:   -9.38 KCAL/MOL
REMARK 923 INTER-LIGAND FREE ENERGY PREDICTED BY IDOCK:   -7.77 KCAL/MOL
REMARK 924 INTRA-LIGAND FREE ENERGY PREDICTED BY IDOCK:   -1.61 KCAL/MOL
REMARK 927      BINDING AFFINITY PREDICTED BY RF-SCORE:    0.00 PKD
ROOT
HETATM    1  O   UNL     1     -12.706  13.494  71.813  1.00  0.00    -0.312 OA 
HETATM    2  C   UNL     1     -12.351  13.135  70.600  1.00  0.00    -0.326 A  
HETATM    3  H   UNL     1     -12.687  12.888  72.544  1.00  0.00     0.000 HD 
HETATM    4  N   UNL     1     -12.377  13.966  69.596  1.00  0.00    -0.306 NA 
HETATM    5  C   UNL     1     -11.990  13.207  68.521  1.00  0.00    -0.289 A  
HETATM    6  C   UNL     1     -11.901  13.573  67.171  1.00  0.00    -0.430 A  
HETATM    7  C   UNL     1     -11.488  12.614  66.240  1.00  0.00    -0.415 A  
HETATM    8  C   UNL     1     -11.144  11.327  66.645  1.00  0.00    -0.299 A  
HETATM    9  C   UNL     1     -11.221  10.941  67.988  1.00  0.00    -0.378 A  
HETATM   10  C   UNL     1     -11.681  11.897  68.900  1.00  0.00    -0.323 A  
HETATM   11  N   UNL     1     -11.991  11.865  70.237  1.00  0.00    -0.352 NA 
ENDROOT
BRANCH  11  12
HETATM   12  C   UNL     1     -12.148  10.717  71.103  1.00  0.00    -0.341 C  
HETATM   13  C   UNL     1     -11.026   9.686  71.014  1.00  0.00    -0.431 C  
HETATM   14  C   UNL     1     -11.214   8.714  72.180  1.00  0.00    -0.367 C  
HETATM   15  N   UNL     1     -12.529   8.048  72.184  1.00  0.00    -0.310 NA 
HETATM   16  C   UNL     1     -13.639   9.011  72.121  1.00  0.00    -0.469 C  
HETATM   17  C   UNL     1     -13.506  10.018  70.981  1.00  0.00    -0.253 C  
BRANCH  15  18
HETATM   18  C   UNL     1     -12.660   6.992  71.169  1.00  0.00    -0.339 C  
BRANCH  18  19
HETATM   19  C   UNL     1     -11.336   6.280  70.879  1.00  0.00    -0.389 C  
BRANCH  19  20
HETATM   20  C   UNL     1     -11.115   6.069  69.381  1.00  0.00    -0.445 C  
BRANCH  20  21
HETATM   21  C   UNL     1      -9.643   6.062  69.030  1.00  0.00    -0.131 C  
HETATM   22  O   UNL     1      -9.103   5.138  68.428  1.00  0.00    -0.108 OA 
BRANCH  21  23
HETATM   23  C   UNL     1      -8.818   7.217  69.477  1.00  0.00    -0.137 A  
HETATM   24  C   UNL     1      -8.629   8.274  68.576  1.00  0.00    -0.133 A  
HETATM   25  C   UNL     1      -7.840   9.366  68.935  1.00  0.00    -0.083 A  
HETATM   26  C   UNL     1      -7.256   9.404  70.195  1.00  0.00    -0.096 A  
HETATM   27  C   UNL     1      -7.447   8.369  71.104  1.00  0.00    -0.084 A  
HETATM   28  F   UNL     1      -6.497  10.450  70.539  1.00  0.00    -0.111 F  
HETATM   29  C   UNL     1      -8.231   7.268  70.748  1.00  0.00    -0.112 A  
ENDBRANCH  21  23
ENDBRANCH  20  21
ENDBRANCH  19  20
ENDBRANCH  18  19
ENDBRANCH  15  18
ENDBRANCH  11  12
TORSDOF 6
ENDMDL
MODEL       59
REMARK 921   NORMALIZED FREE ENERGY PREDICTED BY IDOCK:   -5.97 KCAL/MOL
REMARK 922        TOTAL FREE ENERGY PREDICTED BY IDOCK:   -9.37 KCAL/MOL
REMARK 923 INTER-LIGAND FREE ENERGY PREDICTED BY IDOCK:   -8.07 KCAL/MOL
REMARK 924 INTRA-LIGAND FREE ENERGY PREDICTED BY IDOCK:   -1.29 KCAL/MOL
REMARK 927      BINDING AFFINITY PREDICTED BY RF-SCORE:    0.00 PKD
ROOT
HETATM    1  O   UNL     1     -11.681  14.162  68.970  1.00  0.00    -0.281 OA 
HETATM    2  C   UNL     1     -11.602  13.781  67.715  1.00  0.00    -0.346 A  
HETATM    3  H   UNL     1     -11.198  13.725  69.661  1.00  0.00     0.000 HD 
HETATM    4  N   UNL     1     -12.264  14.380  66.766  1.00  0.00    -0.378 NA 
HETATM    5  C   UNL     1     -11.956  13.665  65.636  1.00  0.00    -0.395 A  
HETATM    6  C   UNL     1     -12.439  13.830  64.332  1.00  0.00    -0.317 A  
HETATM    7  C   UNL     1     -11.984  12.963  63.332  1.00  0.00    -0.612 A  
HETATM    8  C   UNL     1     -11.048  11.972  63.618  1.00  0.00    -0.525 A  
HETATM    9  C   UNL     1     -10.548  11.794  64.913  1.00  0.00    -0.344 A  
HETATM   10  C   UNL     1     -11.050  12.638  65.910  1.00  0.00    -0.289 A  
HETATM   11  N   UNL     1     -10.894  12.696  67.273  1.00  0.00    -0.243 NA 
ENDROOT
BRANCH  11  12
HETATM   12  C   UNL     1     -10.305  11.717  68.160  1.00  0.00    -0.194 C  
HETATM   13  C   UNL     1      -8.809  11.490  67.965  1.00  0.00    -0.158 C  
HETATM   14  C   UNL     1      -8.321  10.658  69.152  1.00  0.00    -0.135 C  
HETATM   15  N   UNL     1      -9.026   9.370  69.298  1.00  0.00    -0.147 NA 
HETATM   16  C   UNL     1     -10.486   9.540  69.342  1.00  0.00    -0.217 C  
HETATM   17  C   UNL     1     -11.037  10.370  68.185  1.00  0.00    -0.344 C  
BRANCH  15  18
HETATM   18  C   UNL     1      -8.619   8.360  68.312  1.00  0.00    -0.139 C  
BRANCH  18  19
HETATM   19  C   UNL     1      -9.464   7.084  68.385  1.00  0.00    -0.133 C  
BRANCH  19  20
HETATM   20  C   UNL     1      -8.842   6.037  69.309  1.00  0.00    -0.123 C  
BRANCH  20  21
HETATM   21  C   UNL     1      -9.862   5.464  70.268  1.00  0.00    -0.206 C  
HETATM   22  O   UNL     1      -9.986   4.258  70.471  1.00  0.00    -0.209 OA 
BRANCH  21  23
HETATM   23  C   UNL     1     -10.776   6.413  70.958  1.00  0.00    -0.301 A  
HETATM   24  C   UNL     1     -10.252   7.180  72.008  1.00  0.00    -0.209 A  
HETATM   25  C   UNL     1     -11.075   8.063  72.706  1.00  0.00    -0.448 A  
HETATM   26  C   UNL     1     -12.411   8.186  72.345  1.00  0.00    -0.294 A  
HETATM   27  C   UNL     1     -12.940   7.442  71.297  1.00  0.00    -0.358 A  
HETATM   28  F   UNL     1     -13.200   9.032  73.017  1.00  0.00    -0.464 F  
HETATM   29  C   UNL     1     -12.123   6.550  70.598  1.00  0.00    -0.265 A  
ENDBRANCH  21  23
ENDBRANCH  20  21
ENDBRANCH  19  20
ENDBRANCH  18  19
ENDBRANCH  15  18
ENDBRANCH  11  12
TORSDOF 6
ENDMDL
MODEL       60
REMARK 921   NORMALIZED FREE ENERGY PREDICTED BY IDOCK:   -5.96 KCAL/MOL
REMARK 922        TOTAL FREE ENERGY PREDICTED BY IDOCK:   -9.36 KCAL/MOL
REMARK 923 INTER-LIGAND FREE ENERGY PREDICTED BY IDOCK:   -8.86 KCAL/MOL
REMARK 924 INTRA-LIGAND FREE ENERGY PREDICTED BY IDOCK:   -0.50 KCAL/MOL
REMARK 927      BINDING AFFINITY PREDICTED BY RF-SCORE:    0.00 PKD
ROOT
HETATM    1  O   UNL     1     -12.413  12.250  65.088  1.00  0.00    -0.563 OA 
HETATM    2  C   UNL     1     -11.568  13.197  65.431  1.00  0.00    -0.333 A  
HETATM    3  H   UNL     1     -12.260  11.337  65.300  1.00  0.00     0.000 HD 
HETATM    4  N   UNL     1     -11.778  14.450  65.141  1.00  0.00    -0.358 NA 
HETATM    5  C   UNL     1     -10.666  15.096  65.617  1.00  0.00    -0.363 A  
HETATM    6  C   UNL     1     -10.328  16.453  65.523  1.00  0.00    -0.336 A  
HETATM    7  C   UNL     1      -9.120  16.886  66.082  1.00  0.00    -0.265 A  
HETATM    8  C   UNL     1      -8.280  15.994  66.745  1.00  0.00    -0.307 A  
HETATM    9  C   UNL     1      -8.601  14.637  66.856  1.00  0.00    -0.233 A  
HETATM   10  C   UNL     1      -9.788  14.211  66.250  1.00  0.00    -0.306 A  
HETATM   11  N   UNL     1     -10.368  12.982  66.052  1.00  0.00    -0.280 NA 
ENDROOT
BRANCH  11  12
HETATM   12  C   UNL     1      -9.788  11.669  66.229  1.00  0.00    -0.219 C  
HETATM   13  C   UNL     1     -10.336  10.593  65.296  1.00  0.00    -0.321 C  
HETATM   14  C   UNL     1      -9.423   9.373  65.430  1.00  0.00    -0.253 C  
HETATM   15  N   UNL     1      -9.323   8.861  66.809  1.00  0.00    -0.163 NA 
HETATM   16  C   UNL     1      -8.937   9.911  67.764  1.00  0.00    -0.131 C  
HETATM   17  C   UNL     1      -9.808  11.162  67.675  1.00  0.00    -0.191 C  
BRANCH  15  18
HETATM   18  C   UNL     1     -10.515   8.125  67.253  1.00  0.00    -0.309 C  
BRANCH  18  19
HETATM   19  C   UNL     1     -10.171   6.831  67.998  1.00  0.00    -0.200 C  
BRANCH  19  20
HETATM   20  C   UNL     1     -11.255   6.444  69.004  1.00  0.00    -0.402 C  
BRANCH  20  21
HETATM   21  C   UNL     1     -10.925   6.935  70.396  1.00  0.00    -0.274 C  
HETATM   22  O   UNL     1     -10.129   6.362  71.137  1.00  0.00    -0.183 OA 
BRANCH  21  23
HETATM   23  C   UNL     1     -11.633   8.146  70.892  1.00  0.00    -0.283 A  
HETATM   24  C   UNL     1     -12.722   7.960  71.755  1.00  0.00    -0.353 A  
HETATM   25  C   UNL     1     -13.437   9.062  72.224  1.00  0.00    -0.529 A  
HETATM   26  C   UNL     1     -13.053  10.341  71.841  1.00  0.00    -0.463 A  
HETATM   27  C   UNL     1     -11.966  10.540  70.998  1.00  0.00    -0.466 A  
HETATM   28  F   UNL     1     -13.741  11.398  72.290  1.00  0.00    -0.445 F  
HETATM   29  C   UNL     1     -11.250   9.441  70.518  1.00  0.00    -0.329 A  
ENDBRANCH  21  23
ENDBRANCH  20  21
ENDBRANCH  19  20
ENDBRANCH  18  19
ENDBRANCH  15  18
ENDBRANCH  11  12
TORSDOF 6
ENDMDL
MODEL       61
REMARK 921   NORMALIZED FREE ENERGY PREDICTED BY IDOCK:   -5.96 KCAL/MOL
REMARK 922        TOTAL FREE ENERGY PREDICTED BY IDOCK:   -9.36 KCAL/MOL
REMARK 923 INTER-LIGAND FREE ENERGY PREDICTED BY IDOCK:   -8.02 KCAL/MOL
REMARK 924 INTRA-LIGAND FREE ENERGY PREDICTED BY IDOCK:   -1.33 KCAL/MOL
REMARK 927      BINDING AFFINITY PREDICTED BY RF-SCORE:    0.00 PKD
ROOT
HETATM    1  O   UNL     1     -10.306  10.224  65.981  1.00  0.00    -0.237 OA 
HETATM    2  C   UNL     1     -10.774  10.720  67.103  1.00  0.00    -0.272 A  
HETATM    3  H   UNL     1     -10.025  10.778  65.262  1.00  0.00     0.000 HD 
HETATM    4  N   UNL     1     -11.160   9.961  68.089  1.00  0.00    -0.207 NA 
HETATM    5  C   UNL     1     -11.617  10.843  69.035  1.00  0.00    -0.316 A  
HETATM    6  C   UNL     1     -12.208  10.574  70.277  1.00  0.00    -0.393 A  
HETATM    7  C   UNL     1     -12.611  11.649  71.077  1.00  0.00    -0.431 A  
HETATM    8  C   UNL     1     -12.404  12.963  70.664  1.00  0.00    -0.385 A  
HETATM    9  C   UNL     1     -11.812  13.254  69.430  1.00  0.00    -0.386 A  
HETATM   10  C   UNL     1     -11.459  12.168  68.621  1.00  0.00    -0.296 A  
HETATM   11  N   UNL     1     -10.975  12.053  67.341  1.00  0.00    -0.247 NA 
ENDROOT
BRANCH  11  12
HETATM   12  C   UNL     1     -10.884  13.067  66.313  1.00  0.00    -0.278 C  
HETATM   13  C   UNL     1      -9.799  14.116  66.539  1.00  0.00    -0.298 C  
HETATM   14  C   UNL     1      -9.667  14.913  65.239  1.00  0.00    -0.091 C  
HETATM   15  N   UNL     1     -10.924  15.552  64.810  1.00  0.00    -0.428 NA 
HETATM   16  C   UNL     1     -12.034  14.590  64.724  1.00  0.00    -0.442 C  
HETATM   17  C   UNL     1     -12.214  13.756  65.990  1.00  0.00    -0.495 C  
BRANCH  15  18
HETATM   18  C   UNL     1     -11.284  16.737  65.602  1.00  0.00     0.337 C  
BRANCH  18  19
HETATM   19  C   UNL     1     -10.084  17.640  65.899  1.00  0.00    -0.192 C  
BRANCH  19  20
HETATM   20  C   UNL     1     -10.502  18.942  66.585  1.00  0.00    -0.496 C  
BRANCH  20  21
HETATM   21  C   UNL     1      -9.991  19.011  68.007  1.00  0.00    -0.368 C  
HETATM   22  O   UNL     1     -10.212  19.964  68.751  1.00  0.00    -0.451 OA 
BRANCH  21  23
HETATM   23  C   UNL     1      -9.152  17.886  68.500  1.00  0.00    -0.289 A  
HETATM   24  C   UNL     1      -9.806  16.764  69.027  1.00  0.00    -0.260 A  
HETATM   25  C   UNL     1      -9.064  15.695  69.528  1.00  0.00    -0.240 A  
HETATM   26  C   UNL     1      -7.676  15.745  69.489  1.00  0.00    -0.166 A  
HETATM   27  C   UNL     1      -7.015  16.846  68.955  1.00  0.00    -0.224 A  
HETATM   28  F   UNL     1      -6.965  14.720  69.972  1.00  0.00    -0.174 F  
HETATM   29  C   UNL     1      -7.752  17.924  68.458  1.00  0.00    -0.299 A  
ENDBRANCH  21  23
ENDBRANCH  20  21
ENDBRANCH  19  20
ENDBRANCH  18  19
ENDBRANCH  15  18
ENDBRANCH  11  12
TORSDOF 6
ENDMDL
MODEL       62
REMARK 921   NORMALIZED FREE ENERGY PREDICTED BY IDOCK:   -5.95 KCAL/MOL
REMARK 922        TOTAL FREE ENERGY PREDICTED BY IDOCK:   -9.34 KCAL/MOL
REMARK 923 INTER-LIGAND FREE ENERGY PREDICTED BY IDOCK:   -8.22 KCAL/MOL
REMARK 924 INTRA-LIGAND FREE ENERGY PREDICTED BY IDOCK:   -1.12 KCAL/MOL
REMARK 927      BINDING AFFINITY PREDICTED BY RF-SCORE:    0.00 PKD
ROOT
HETATM    1  O   UNL     1     -10.690   6.772  66.876  1.00  0.00    -0.354 OA 
HETATM    2  C   UNL     1     -10.711   6.967  68.175  1.00  0.00    -0.188 A  
HETATM    3  H   UNL     1     -10.293   7.395  66.278  1.00  0.00     0.000 HD 
HETATM    4  N   UNL     1     -11.256   6.113  68.995  1.00  0.00    -0.378 NA 
HETATM    5  C   UNL     1     -11.116   6.695  70.229  1.00  0.00    -0.326 A  
HETATM    6  C   UNL     1     -11.579   6.244  71.472  1.00  0.00    -0.345 A  
HETATM    7  C   UNL     1     -11.324   7.023  72.608  1.00  0.00    -0.290 A  
HETATM    8  C   UNL     1     -10.601   8.209  72.512  1.00  0.00    -0.411 A  
HETATM    9  C   UNL     1     -10.125   8.675  71.281  1.00  0.00    -0.312 A  
HETATM   10  C   UNL     1     -10.430   7.910  70.150  1.00  0.00    -0.231 A  
HETATM   11  N   UNL     1     -10.242   8.090  68.801  1.00  0.00    -0.203 NA 
ENDROOT
BRANCH  11  12
HETATM   12  C   UNL     1      -9.847   9.288  68.094  1.00  0.00    -0.162 C  
HETATM   13  C   UNL     1      -8.683  10.050  68.721  1.00  0.00    -0.136 C  
HETATM   14  C   UNL     1      -8.231  11.099  67.703  1.00  0.00    -0.118 C  
HETATM   15  N   UNL     1      -9.302  12.029  67.301  1.00  0.00    -0.176 NA 
HETATM   16  C   UNL     1     -10.501  11.321  66.827  1.00  0.00    -0.248 C  
HETATM   17  C   UNL     1     -11.000  10.253  67.796  1.00  0.00    -0.360 C  
BRANCH  15  18
HETATM   18  C   UNL     1      -9.625  13.035  68.322  1.00  0.00    -0.213 C  
BRANCH  18  19
HETATM   19  C   UNL     1      -9.291  14.462  67.878  1.00  0.00    -0.203 C  
BRANCH  19  20
HETATM   20  C   UNL     1     -10.544  15.257  67.512  1.00  0.00    -0.273 C  
BRANCH  20  21
HETATM   21  C   UNL     1     -10.652  15.470  66.018  1.00  0.00    -0.325 C  
HETATM   22  O   UNL     1     -10.331  16.521  65.468  1.00  0.00    -0.509 OA 
BRANCH  21  23
HETATM   23  C   UNL     1     -11.210  14.363  65.197  1.00  0.00    -0.359 A  
HETATM   24  C   UNL     1     -12.540  13.984  65.425  1.00  0.00    -0.529 A  
HETATM   25  C   UNL     1     -13.101  12.932  64.702  1.00  0.00    -0.030 A  
HETATM   26  C   UNL     1     -12.338  12.274  63.746  1.00  0.00    -0.538 A  
HETATM   27  C   UNL     1     -11.022  12.650  63.498  1.00  0.00    -0.413 A  
HETATM   28  F   UNL     1     -12.876  11.264  63.053  1.00  0.00    -0.410 F  
HETATM   29  C   UNL     1     -10.451  13.697  64.225  1.00  0.00    -0.180 A  
ENDBRANCH  21  23
ENDBRANCH  20  21
ENDBRANCH  19  20
ENDBRANCH  18  19
ENDBRANCH  15  18
ENDBRANCH  11  12
TORSDOF 6
ENDMDL
MODEL       63
REMARK 921   NORMALIZED FREE ENERGY PREDICTED BY IDOCK:   -5.92 KCAL/MOL
REMARK 922        TOTAL FREE ENERGY PREDICTED BY IDOCK:   -9.31 KCAL/MOL
REMARK 923 INTER-LIGAND FREE ENERGY PREDICTED BY IDOCK:   -7.77 KCAL/MOL
REMARK 924 INTRA-LIGAND FREE ENERGY PREDICTED BY IDOCK:   -1.54 KCAL/MOL
REMARK 927      BINDING AFFINITY PREDICTED BY RF-SCORE:    0.00 PKD
ROOT
HETATM    1  O   UNL     1     -12.615  14.600  63.538  1.00  0.00    -1.019 OA 
HETATM    2  C   UNL     1     -11.797  13.710  64.053  1.00  0.00    -0.400 A  
HETATM    3  H   UNL     1     -12.682  15.483  63.882  1.00  0.00     0.000 HD 
HETATM    4  N   UNL     1     -11.704  12.499  63.581  1.00  0.00    -0.473 NA 
HETATM    5  C   UNL     1     -10.798  11.884  64.408  1.00  0.00    -0.332 A  
HETATM    6  C   UNL     1     -10.364  10.552  64.402  1.00  0.00    -0.244 A  
HETATM    7  C   UNL     1      -9.430  10.144  65.361  1.00  0.00    -0.296 A  
HETATM    8  C   UNL     1      -8.917  11.049  66.287  1.00  0.00    -0.195 A  
HETATM    9  C   UNL     1      -9.332  12.385  66.307  1.00  0.00    -0.189 A  
HETATM   10  C   UNL     1     -10.302  12.765  65.373  1.00  0.00    -0.293 A  
HETATM   11  N   UNL     1     -11.018  13.917  65.160  1.00  0.00    -0.332 NA 
ENDROOT
BRANCH  11  12
HETATM   12  C   UNL     1     -11.148  15.074  66.018  1.00  0.00    -0.329 C  
HETATM   13  C   UNL     1     -10.112  16.170  65.781  1.00  0.00    -0.390 C  
HETATM   14  C   UNL     1     -10.574  17.402  66.560  1.00  0.00    -0.184 C  
HETATM   15  N   UNL     1     -10.746  17.155  68.004  1.00  0.00    -0.383 NA 
HETATM   16  C   UNL     1     -11.626  16.007  68.270  1.00  0.00    -0.232 C  
HETATM   17  C   UNL     1     -11.222  14.744  67.513  1.00  0.00    -0.339 C  
BRANCH  15  18
HETATM   18  C   UNL     1      -9.478  17.058  68.741  1.00  0.00    -0.263 C  
BRANCH  18  19
HETATM   19  C   UNL     1      -8.549  18.249  68.486  1.00  0.00    -0.323 C  
BRANCH  19  20
HETATM   20  C   UNL     1      -7.079  17.884  68.694  1.00  0.00    -0.266 C  
BRANCH  20  21
HETATM   21  C   UNL     1      -6.683  16.676  67.875  1.00  0.00    -0.142 C  
HETATM   22  O   UNL     1      -6.623  16.690  66.648  1.00  0.00    -0.208 OA 
BRANCH  21  23
HETATM   23  C   UNL     1      -6.393  15.410  68.600  1.00  0.00    -0.095 A  
HETATM   24  C   UNL     1      -6.433  14.214  67.870  1.00  0.00    -0.174 A  
HETATM   25  C   UNL     1      -6.198  12.997  68.510  1.00  0.00    -0.078 A  
HETATM   26  C   UNL     1      -5.911  12.981  69.869  1.00  0.00    -0.136 A  
HETATM   27  C   UNL     1      -5.854  14.162  70.601  1.00  0.00    -0.191 A  
HETATM   28  F   UNL     1      -5.687  11.814  70.483  1.00  0.00    -0.115 F  
HETATM   29  C   UNL     1      -6.096  15.384  69.969  1.00  0.00    -0.146 A  
ENDBRANCH  21  23
ENDBRANCH  20  21
ENDBRANCH  19  20
ENDBRANCH  18  19
ENDBRANCH  15  18
ENDBRANCH  11  12
TORSDOF 6
ENDMDL
MODEL       64
REMARK 921   NORMALIZED FREE ENERGY PREDICTED BY IDOCK:   -5.92 KCAL/MOL
REMARK 922        TOTAL FREE ENERGY PREDICTED BY IDOCK:   -9.31 KCAL/MOL
REMARK 923 INTER-LIGAND FREE ENERGY PREDICTED BY IDOCK:   -9.08 KCAL/MOL
REMARK 924 INTRA-LIGAND FREE ENERGY PREDICTED BY IDOCK:   -0.23 KCAL/MOL
REMARK 927      BINDING AFFINITY PREDICTED BY RF-SCORE:    0.00 PKD
ROOT
HETATM    1  O   UNL     1      -7.828  10.431  69.626  1.00  0.00    -0.180 OA 
HETATM    2  C   UNL     1      -8.714   9.794  70.357  1.00  0.00    -0.056 A  
HETATM    3  H   UNL     1      -8.075  10.943  68.865  1.00  0.00     0.000 HD 
HETATM    4  N   UNL     1      -8.375   9.091  71.401  1.00  0.00    -0.328 NA 
HETATM    5  C   UNL     1      -9.557   8.558  71.847  1.00  0.00    -0.283 A  
HETATM    6  C   UNL     1      -9.777   7.669  72.907  1.00  0.00    -0.282 A  
HETATM    7  C   UNL     1     -11.086   7.248  73.171  1.00  0.00    -0.336 A  
HETATM    8  C   UNL     1     -12.155   7.724  72.416  1.00  0.00    -0.297 A  
HETATM    9  C   UNL     1     -11.958   8.616  71.356  1.00  0.00    -0.355 A  
HETATM   10  C   UNL     1     -10.639   8.989  71.074  1.00  0.00    -0.271 A  
HETATM   11  N   UNL     1     -10.053   9.731  70.079  1.00  0.00    -0.243 NA 
ENDROOT
BRANCH  11  12
HETATM   12  C   UNL     1     -10.629  10.194  68.835  1.00  0.00    -0.215 C  
HETATM   13  C   UNL     1      -9.736  10.020  67.610  1.00  0.00    -0.185 C  
HETATM   14  C   UNL     1     -10.604  10.290  66.379  1.00  0.00    -0.107 C  
HETATM   15  N   UNL     1     -11.228  11.626  66.381  1.00  0.00    -0.311 NA 
HETATM   16  C   UNL     1     -11.979  11.886  67.618  1.00  0.00    -0.057 C  
HETATM   17  C   UNL     1     -11.170  11.627  68.886  1.00  0.00    -0.306 C  
BRANCH  15  18
HETATM   18  C   UNL     1     -10.293  12.715  66.067  1.00  0.00    -0.270 C  
BRANCH  18  19
HETATM   19  C   UNL     1     -11.001  14.041  65.771  1.00  0.00    -0.294 C  
BRANCH  19  20
HETATM   20  C   UNL     1     -10.053  15.073  65.160  1.00  0.00    -0.350 C  
BRANCH  20  21
HETATM   21  C   UNL     1     -10.687  16.445  65.100  1.00  0.00    -0.291 C  
HETATM   22  O   UNL     1     -11.289  16.862  64.113  1.00  0.00    -1.208 OA 
BRANCH  21  23
HETATM   23  C   UNL     1     -10.534  17.333  66.284  1.00  0.00    -0.268 A  
HETATM   24  C   UNL     1     -10.546  18.719  66.069  1.00  0.00    -0.442 A  
HETATM   25  C   UNL     1     -10.376  19.593  67.142  1.00  0.00    -0.581 A  
HETATM   26  C   UNL     1     -10.209  19.082  68.423  1.00  0.00    -0.377 A  
HETATM   27  C   UNL     1     -10.209  17.711  68.652  1.00  0.00    -0.377 A  
HETATM   28  F   UNL     1     -10.044  19.922  69.451  1.00  0.00    -0.496 F  
HETATM   29  C   UNL     1     -10.371  16.829  67.581  1.00  0.00    -0.309 A  
ENDBRANCH  21  23
ENDBRANCH  20  21
ENDBRANCH  19  20
ENDBRANCH  18  19
ENDBRANCH  15  18
ENDBRANCH  11  12
TORSDOF 6
ENDMDL
MODEL       65
REMARK 921   NORMALIZED FREE ENERGY PREDICTED BY IDOCK:   -5.92 KCAL/MOL
REMARK 922        TOTAL FREE ENERGY PREDICTED BY IDOCK:   -9.30 KCAL/MOL
REMARK 923 INTER-LIGAND FREE ENERGY PREDICTED BY IDOCK:   -8.63 KCAL/MOL
REMARK 924 INTRA-LIGAND FREE ENERGY PREDICTED BY IDOCK:   -0.68 KCAL/MOL
REMARK 927      BINDING AFFINITY PREDICTED BY RF-SCORE:    0.00 PKD
ROOT
HETATM    1  O   UNL     1      -7.811  11.442  62.335  1.00  0.00    -0.493 OA 
HETATM    2  C   UNL     1      -8.165  10.616  63.293  1.00  0.00    -0.058 A  
HETATM    3  H   UNL     1      -8.218  12.294  62.228  1.00  0.00     0.000 HD 
HETATM    4  N   UNL     1      -7.607   9.447  63.441  1.00  0.00    -0.110 NA 
HETATM    5  C   UNL     1      -8.276   8.886  64.499  1.00  0.00    -0.166 A  
HETATM    6  C   UNL     1      -8.132   7.608  65.054  1.00  0.00    -0.133 A  
HETATM    7  C   UNL     1      -8.943   7.248  66.136  1.00  0.00    -0.179 A  
HETATM    8  C   UNL     1      -9.858   8.151  66.673  1.00  0.00    -0.331 A  
HETATM    9  C   UNL     1     -10.015   9.434  66.138  1.00  0.00    -0.351 A  
HETATM   10  C   UNL     1      -9.231   9.761  65.026  1.00  0.00    -0.249 A  
HETATM   11  N   UNL     1      -9.181  10.843  64.182  1.00  0.00    -0.206 NA 
ENDROOT
BRANCH  11  12
HETATM   12  C   UNL     1     -10.122  11.933  64.051  1.00  0.00    -0.334 C  
HETATM   13  C   UNL     1      -9.874  13.112  64.988  1.00  0.00    -0.064 C  
HETATM   14  C   UNL     1     -10.770  14.259  64.515  1.00  0.00    -0.259 C  
HETATM   15  N   UNL     1     -12.203  13.913  64.487  1.00  0.00    -0.521 NA 
HETATM   16  C   UNL     1     -12.463  12.690  63.710  1.00  0.00    -0.420 C  
HETATM   17  C   UNL     1     -11.592  11.508  64.129  1.00  0.00    -0.251 C  
BRANCH  15  18
HETATM   18  C   UNL     1     -12.825  13.861  65.817  1.00  0.00    -0.391 C  
BRANCH  18  19
HETATM   19  C   UNL     1     -12.050  14.663  66.867  1.00  0.00    -0.224 C  
BRANCH  19  20
HETATM   20  C   UNL     1     -11.850  13.872  68.160  1.00  0.00    -0.407 C  
BRANCH  20  21
HETATM   21  C   UNL     1     -11.076  14.669  69.187  1.00  0.00    -0.268 C  
HETATM   22  O   UNL     1      -9.902  14.998  69.032  1.00  0.00    -0.223 OA 
BRANCH  21  23
HETATM   23  C   UNL     1     -11.769  15.029  70.453  1.00  0.00    -0.336 A  
HETATM   24  C   UNL     1     -11.223  16.062  71.228  1.00  0.00    -0.281 A  
HETATM   25  C   UNL     1     -11.818  16.417  72.438  1.00  0.00    -0.548 A  
HETATM   26  C   UNL     1     -12.961  15.751  72.861  1.00  0.00    -0.500 A  
HETATM   27  C   UNL     1     -13.522  14.735  72.094  1.00  0.00    -0.491 A  
HETATM   28  F   UNL     1     -13.531  16.090  74.023  1.00  0.00    -0.420 F  
HETATM   29  C   UNL     1     -12.927  14.368  70.885  1.00  0.00    -0.413 A  
ENDBRANCH  21  23
ENDBRANCH  20  21
ENDBRANCH  19  20
ENDBRANCH  18  19
ENDBRANCH  15  18
ENDBRANCH  11  12
TORSDOF 6
ENDMDL
MODEL       66
REMARK 921   NORMALIZED FREE ENERGY PREDICTED BY IDOCK:   -5.90 KCAL/MOL
REMARK 922        TOTAL FREE ENERGY PREDICTED BY IDOCK:   -9.28 KCAL/MOL
REMARK 923 INTER-LIGAND FREE ENERGY PREDICTED BY IDOCK:   -8.36 KCAL/MOL
REMARK 924 INTRA-LIGAND FREE ENERGY PREDICTED BY IDOCK:   -0.92 KCAL/MOL
REMARK 927      BINDING AFFINITY PREDICTED BY RF-SCORE:    0.00 PKD
ROOT
HETATM    1  O   UNL     1     -12.762  11.394  62.847  1.00  0.00    -0.951 OA 
HETATM    2  C   UNL     1     -12.199  12.353  63.547  1.00  0.00    -0.563 A  
HETATM    3  H   UNL     1     -12.542  10.479  62.976  1.00  0.00     0.000 HD 
HETATM    4  N   UNL     1     -12.502  13.609  63.370  1.00  0.00    -0.800 NA 
HETATM    5  C   UNL     1     -11.679  14.279  64.238  1.00  0.00    -0.329 A  
HETATM    6  C   UNL     1     -11.533  15.660  64.425  1.00  0.00    -0.266 A  
HETATM    7  C   UNL     1     -10.611  16.118  65.373  1.00  0.00    -0.399 A  
HETATM    8  C   UNL     1      -9.870  15.220  66.139  1.00  0.00    -0.333 A  
HETATM    9  C   UNL     1     -10.004  13.838  65.973  1.00  0.00    -0.319 A  
HETATM   10  C   UNL     1     -10.895  13.397  64.987  1.00  0.00    -0.328 A  
HETATM   11  N   UNL     1     -11.205  12.165  64.469  1.00  0.00    -0.318 NA 
ENDROOT
BRANCH  11  12
HETATM   12  C   UNL     1     -10.511  10.908  64.643  1.00  0.00    -0.314 C  
HETATM   13  C   UNL     1     -10.340  10.464  66.093  1.00  0.00    -0.269 C  
HETATM   14  C   UNL     1      -9.856   9.013  66.065  1.00  0.00    -0.242 C  
HETATM   15  N   UNL     1      -8.600   8.826  65.315  1.00  0.00    -0.180 NA 
HETATM   16  C   UNL     1      -8.681   9.378  63.953  1.00  0.00    -0.202 C  
HETATM   17  C   UNL     1      -9.167  10.824  63.912  1.00  0.00    -0.258 C  
BRANCH  15  18
HETATM   18  C   UNL     1      -7.408   9.301  66.031  1.00  0.00    -0.095 C  
BRANCH  18  19
HETATM   19  C   UNL     1      -6.707   8.192  66.821  1.00  0.00    -0.064 C  
BRANCH  19  20
HETATM   20  C   UNL     1      -7.274   8.050  68.234  1.00  0.00    -0.093 C  
BRANCH  20  21
HETATM   21  C   UNL     1      -8.226   6.879  68.337  1.00  0.00    -0.120 C  
HETATM   22  O   UNL     1      -8.205   5.929  67.558  1.00  0.00    -0.105 OA 
BRANCH  21  23
HETATM   23  C   UNL     1      -9.254   6.912  69.411  1.00  0.00    -0.147 A  
HETATM   24  C   UNL     1     -10.544   6.460  69.098  1.00  0.00    -0.305 A  
HETATM   25  C   UNL     1     -11.551   6.499  70.062  1.00  0.00    -0.455 A  
HETATM   26  C   UNL     1     -11.263   6.975  71.335  1.00  0.00    -0.252 A  
HETATM   27  C   UNL     1      -9.985   7.412  71.663  1.00  0.00    -0.193 A  
HETATM   28  F   UNL     1     -12.230   7.014  72.259  1.00  0.00    -0.309 F  
HETATM   29  C   UNL     1      -8.973   7.384  70.701  1.00  0.00    -0.155 A  
ENDBRANCH  21  23
ENDBRANCH  20  21
ENDBRANCH  19  20
ENDBRANCH  18  19
ENDBRANCH  15  18
ENDBRANCH  11  12
TORSDOF 6
ENDMDL
MODEL       67
REMARK 921   NORMALIZED FREE ENERGY PREDICTED BY IDOCK:   -5.89 KCAL/MOL
REMARK 922        TOTAL FREE ENERGY PREDICTED BY IDOCK:   -9.26 KCAL/MOL
REMARK 923 INTER-LIGAND FREE ENERGY PREDICTED BY IDOCK:   -8.39 KCAL/MOL
REMARK 924 INTRA-LIGAND FREE ENERGY PREDICTED BY IDOCK:   -0.87 KCAL/MOL
REMARK 927      BINDING AFFINITY PREDICTED BY RF-SCORE:    0.00 PKD
ROOT
HETATM    1  O   UNL     1     -11.629  10.103  67.825  1.00  0.00    -0.627 OA 
HETATM    2  C   UNL     1     -10.776   9.379  67.135  1.00  0.00    -0.163 A  
HETATM    3  H   UNL     1     -11.791  11.017  67.627  1.00  0.00     0.000 HD 
HETATM    4  N   UNL     1     -10.553   8.124  67.408  1.00  0.00    -0.279 NA 
HETATM    5  C   UNL     1      -9.583   7.752  66.511  1.00  0.00    -0.201 A  
HETATM    6  C   UNL     1      -8.920   6.524  66.391  1.00  0.00    -0.158 A  
HETATM    7  C   UNL     1      -7.948   6.379  65.395  1.00  0.00    -0.116 A  
HETATM    8  C   UNL     1      -7.661   7.425  64.520  1.00  0.00    -0.126 A  
HETATM    9  C   UNL     1      -8.315   8.657  64.618  1.00  0.00    -0.165 A  
HETATM   10  C   UNL     1      -9.250   8.802  65.650  1.00  0.00    -0.180 A  
HETATM   11  N   UNL     1      -9.989   9.858  66.123  1.00  0.00    -0.253 NA 
ENDROOT
BRANCH  11  12
HETATM   12  C   UNL     1      -9.853  11.266  65.820  1.00  0.00    -0.232 C  
HETATM   13  C   UNL     1      -9.584  12.160  67.027  1.00  0.00    -0.207 C  
HETATM   14  C   UNL     1      -9.192  13.537  66.488  1.00  0.00    -0.173 C  
HETATM   15  N   UNL     1     -10.214  14.140  65.614  1.00  0.00    -0.324 NA 
HETATM   16  C   UNL     1     -10.607  13.241  64.518  1.00  0.00    -0.419 C  
HETATM   17  C   UNL     1     -11.004  11.845  64.990  1.00  0.00    -0.365 C  
BRANCH  15  18
HETATM   18  C   UNL     1     -11.380  14.662  66.342  1.00  0.00    -0.348 C  
BRANCH  18  19
HETATM   19  C   UNL     1     -10.996  15.407  67.623  1.00  0.00    -0.315 C  
BRANCH  19  20
HETATM   20  C   UNL     1     -12.191  15.588  68.560  1.00  0.00     0.111 C  
BRANCH  20  21
HETATM   21  C   UNL     1     -11.811  15.338  70.003  1.00  0.00    -0.334 C  
HETATM   22  O   UNL     1     -11.110  16.109  70.654  1.00  0.00    -0.349 OA 
BRANCH  21  23
HETATM   23  C   UNL     1     -12.281  14.077  70.636  1.00  0.00    -0.442 A  
HETATM   24  C   UNL     1     -11.871  12.865  70.065  1.00  0.00    -0.356 A  
HETATM   25  C   UNL     1     -12.310  11.655  70.604  1.00  0.00    -0.437 A  
HETATM   26  C   UNL     1     -13.142  11.662  71.717  1.00  0.00    -0.382 A  
HETATM   27  C   UNL     1     -13.543  12.858  72.302  1.00  0.00    -0.611 A  
HETATM   28  F   UNL     1     -13.563  10.502  72.232  1.00  0.00    -0.488 F  
HETATM   29  C   UNL     1     -13.115  14.073  71.763  1.00  0.00    -0.449 A  
ENDBRANCH  21  23
ENDBRANCH  20  21
ENDBRANCH  19  20
ENDBRANCH  18  19
ENDBRANCH  15  18
ENDBRANCH  11  12
TORSDOF 6
ENDMDL
MODEL       68
REMARK 921   NORMALIZED FREE ENERGY PREDICTED BY IDOCK:   -5.88 KCAL/MOL
REMARK 922        TOTAL FREE ENERGY PREDICTED BY IDOCK:   -9.25 KCAL/MOL
REMARK 923 INTER-LIGAND FREE ENERGY PREDICTED BY IDOCK:   -8.83 KCAL/MOL
REMARK 924 INTRA-LIGAND FREE ENERGY PREDICTED BY IDOCK:   -0.42 KCAL/MOL
REMARK 927      BINDING AFFINITY PREDICTED BY RF-SCORE:    0.00 PKD
ROOT
HETATM    1  O   UNL     1     -11.220   6.521  66.679  1.00  0.00    -0.680 OA 
HETATM    2  C   UNL     1     -10.931   6.913  67.899  1.00  0.00    -0.183 A  
HETATM    3  H   UNL     1     -11.163   7.107  65.933  1.00  0.00     0.000 HD 
HETATM    4  N   UNL     1     -11.008   6.110  68.922  1.00  0.00    -0.342 NA 
HETATM    5  C   UNL     1     -10.681   6.899  69.995  1.00  0.00    -0.243 A  
HETATM    6  C   UNL     1     -10.663   6.569  71.357  1.00  0.00    -0.280 A  
HETATM    7  C   UNL     1     -10.302   7.555  72.283  1.00  0.00    -0.263 A  
HETATM    8  C   UNL     1      -9.940   8.832  71.861  1.00  0.00    -0.401 A  
HETATM    9  C   UNL     1      -9.945   9.181  70.507  1.00  0.00    -0.288 A  
HETATM   10  C   UNL     1     -10.355   8.198  69.597  1.00  0.00    -0.221 A  
HETATM   11  N   UNL     1     -10.592   8.194  68.245  1.00  0.00    -0.148 NA 
ENDROOT
BRANCH  11  12
HETATM   12  C   UNL     1     -10.705   9.318  67.342  1.00  0.00    -0.193 C  
HETATM   13  C   UNL     1      -9.499   9.536  66.433  1.00  0.00    -0.251 C  
HETATM   14  C   UNL     1      -9.911  10.563  65.376  1.00  0.00    -0.289 C  
HETATM   15  N   UNL     1     -10.367  11.843  65.947  1.00  0.00    -0.234 NA 
HETATM   16  C   UNL     1     -11.435  11.658  66.942  1.00  0.00    -0.247 C  
HETATM   17  C   UNL     1     -11.088  10.636  68.022  1.00  0.00    -0.361 C  
BRANCH  15  18
HETATM   18  C   UNL     1      -9.276  12.682  66.462  1.00  0.00    -0.200 C  
BRANCH  18  19
HETATM   19  C   UNL     1      -9.659  14.162  66.559  1.00  0.00    -0.310 C  
BRANCH  19  20
HETATM   20  C   UNL     1      -9.766  14.633  68.010  1.00  0.00    -0.216 C  
BRANCH  20  21
HETATM   21  C   UNL     1     -10.830  15.695  68.174  1.00  0.00    -0.301 C  
HETATM   22  O   UNL     1     -11.965  15.449  68.575  1.00  0.00    -0.316 OA 
BRANCH  21  23
HETATM   23  C   UNL     1     -10.485  17.090  67.790  1.00  0.00    -0.349 A  
HETATM   24  C   UNL     1     -10.280  18.021  68.818  1.00  0.00    -0.362 A  
HETATM   25  C   UNL     1      -9.983  19.348  68.509  1.00  0.00    -0.520 A  
HETATM   26  C   UNL     1      -9.878  19.736  67.180  1.00  0.00    -0.386 A  
HETATM   27  C   UNL     1     -10.064  18.819  66.150  1.00  0.00    -0.421 A  
HETATM   28  F   UNL     1      -9.595  21.010  66.884  1.00  0.00    -0.487 F  
HETATM   29  C   UNL     1     -10.369  17.490  66.452  1.00  0.00    -0.334 A  
ENDBRANCH  21  23
ENDBRANCH  20  21
ENDBRANCH  19  20
ENDBRANCH  18  19
ENDBRANCH  15  18
ENDBRANCH  11  12
TORSDOF 6
ENDMDL
MODEL       69
REMARK 921   NORMALIZED FREE ENERGY PREDICTED BY IDOCK:   -5.87 KCAL/MOL
REMARK 922        TOTAL FREE ENERGY PREDICTED BY IDOCK:   -9.23 KCAL/MOL
REMARK 923 INTER-LIGAND FREE ENERGY PREDICTED BY IDOCK:   -7.84 KCAL/MOL
REMARK 924 INTRA-LIGAND FREE ENERGY PREDICTED BY IDOCK:   -1.40 KCAL/MOL
REMARK 927      BINDING AFFINITY PREDICTED BY RF-SCORE:    0.00 PKD
ROOT
HETATM    1  O   UNL     1      -7.232   9.211  63.772  1.00  0.00    -0.095 OA 
HETATM    2  C   UNL     1      -7.971   8.519  64.609  1.00  0.00    -0.143 A  
HETATM    3  H   UNL     1      -7.240  10.161  63.758  1.00  0.00     0.000 HD 
HETATM    4  N   UNL     1      -7.960   7.216  64.629  1.00  0.00    -0.125 NA 
HETATM    5  C   UNL     1      -8.884   6.886  65.587  1.00  0.00    -0.016 A  
HETATM    6  C   UNL     1      -9.326   5.617  65.984  1.00  0.00    -0.150 A  
HETATM    7  C   UNL     1     -10.297   5.526  66.988  1.00  0.00    -0.306 A  
HETATM    8  C   UNL     1     -10.797   6.671  67.603  1.00  0.00    -0.393 A  
HETATM    9  C   UNL     1     -10.366   7.948  67.226  1.00  0.00    -0.377 A  
HETATM   10  C   UNL     1      -9.430   8.024  66.188  1.00  0.00    -0.122 A  
HETATM   11  N   UNL     1      -8.870   9.062  65.487  1.00  0.00    -0.183 NA 
ENDROOT
BRANCH  11  12
HETATM   12  C   UNL     1      -9.262  10.454  65.462  1.00  0.00    -0.184 C  
HETATM   13  C   UNL     1      -9.144  11.179  66.800  1.00  0.00    -0.174 C  
HETATM   14  C   UNL     1      -9.321  12.673  66.520  1.00  0.00    -0.228 C  
HETATM   15  N   UNL     1     -10.600  13.001  65.865  1.00  0.00    -0.271 NA 
HETATM   16  C   UNL     1     -10.817  12.210  64.644  1.00  0.00    -0.306 C  
HETATM   17  C   UNL     1     -10.646  10.708  64.855  1.00  0.00    -0.192 C  
BRANCH  15  18
HETATM   18  C   UNL     1     -11.758  12.945  66.768  1.00  0.00    -0.383 C  
BRANCH  18  19
HETATM   19  C   UNL     1     -11.870  14.179  67.668  1.00  0.00    -0.427 C  
BRANCH  19  20
HETATM   20  C   UNL     1     -11.177  13.971  69.016  1.00  0.00    -0.311 C  
BRANCH  20  21
HETATM   21  C   UNL     1     -12.158  13.547  70.087  1.00  0.00    -0.354 C  
HETATM   22  O   UNL     1     -12.940  14.328  70.624  1.00  0.00    -0.338 OA 
BRANCH  21  23
HETATM   23  C   UNL     1     -12.135  12.126  70.526  1.00  0.00    -0.383 A  
HETATM   24  C   UNL     1     -12.950  11.762  71.607  1.00  0.00    -0.467 A  
HETATM   25  C   UNL     1     -12.943  10.449  72.076  1.00  0.00    -0.499 A  
HETATM   26  C   UNL     1     -12.134   9.505  71.457  1.00  0.00    -0.389 A  
HETATM   27  C   UNL     1     -11.331   9.849  70.374  1.00  0.00    -0.376 A  
HETATM   28  F   UNL     1     -12.125   8.245  71.908  1.00  0.00    -0.295 F  
HETATM   29  C   UNL     1     -11.328  11.164  69.904  1.00  0.00    -0.348 A  
ENDBRANCH  21  23
ENDBRANCH  20  21
ENDBRANCH  19  20
ENDBRANCH  18  19
ENDBRANCH  15  18
ENDBRANCH  11  12
TORSDOF 6
ENDMDL
MODEL       70
REMARK 921   NORMALIZED FREE ENERGY PREDICTED BY IDOCK:   -5.87 KCAL/MOL
REMARK 922        TOTAL FREE ENERGY PREDICTED BY IDOCK:   -9.23 KCAL/MOL
REMARK 923 INTER-LIGAND FREE ENERGY PREDICTED BY IDOCK:   -8.44 KCAL/MOL
REMARK 924 INTRA-LIGAND FREE ENERGY PREDICTED BY IDOCK:   -0.79 KCAL/MOL
REMARK 927      BINDING AFFINITY PREDICTED BY RF-SCORE:    0.00 PKD
ROOT
HETATM    1  O   UNL     1     -12.747  14.743  63.914  1.00  0.00    -0.840 OA 
HETATM    2  C   UNL     1     -11.843  13.824  64.167  1.00  0.00    -0.401 A  
HETATM    3  H   UNL     1     -12.934  15.447  64.523  1.00  0.00     0.000 HD 
HETATM    4  N   UNL     1     -11.584  12.858  63.331  1.00  0.00    -0.479 NA 
HETATM    5  C   UNL     1     -10.638  12.100  63.973  1.00  0.00    -0.389 A  
HETATM    6  C   UNL     1     -10.043  10.900  63.562  1.00  0.00    -0.406 A  
HETATM    7  C   UNL     1      -9.099  10.296  64.400  1.00  0.00    -0.275 A  
HETATM    8  C   UNL     1      -8.734  10.887  65.607  1.00  0.00    -0.190 A  
HETATM    9  C   UNL     1      -9.311  12.087  66.035  1.00  0.00    -0.196 A  
HETATM   10  C   UNL     1     -10.289  12.654  65.208  1.00  0.00    -0.289 A  
HETATM   11  N   UNL     1     -11.134  13.728  65.334  1.00  0.00    -0.296 NA 
ENDROOT
BRANCH  11  12
HETATM   12  C   UNL     1     -11.435  14.510  66.513  1.00  0.00    -0.362 C  
HETATM   13  C   UNL     1     -10.621  15.792  66.659  1.00  0.00    -0.307 C  
HETATM   14  C   UNL     1     -11.265  16.609  67.781  1.00  0.00    -0.064 C  
HETATM   15  N   UNL     1     -11.336  15.891  69.066  1.00  0.00    -0.347 NA 
HETATM   16  C   UNL     1     -11.988  14.579  68.933  1.00  0.00    -0.290 C  
HETATM   17  C   UNL     1     -11.395  13.716  67.822  1.00  0.00    -0.336 C  
BRANCH  15  18
HETATM   18  C   UNL     1     -10.045  15.795  69.761  1.00  0.00    -0.276 C  
BRANCH  18  19
HETATM   19  C   UNL     1      -9.033  16.840  69.282  1.00  0.00    -0.008 C  
BRANCH  19  20
HETATM   20  C   UNL     1      -7.616  16.270  69.201  1.00  0.00    -0.227 C  
BRANCH  20  21
HETATM   21  C   UNL     1      -6.579  17.368  69.112  1.00  0.00    -0.246 C  
HETATM   22  O   UNL     1      -5.751  17.580  69.995  1.00  0.00    -0.234 OA 
BRANCH  21  23
HETATM   23  C   UNL     1      -6.601  18.248  67.913  1.00  0.00    -0.203 A  
HETATM   24  C   UNL     1      -6.759  19.626  68.114  1.00  0.00    -0.299 A  
HETATM   25  C   UNL     1      -6.815  20.490  67.021  1.00  0.00    -0.336 A  
HETATM   26  C   UNL     1      -6.699  19.977  65.735  1.00  0.00    -0.260 A  
HETATM   27  C   UNL     1      -6.527  18.613  65.522  1.00  0.00    -0.321 A  
HETATM   28  F   UNL     1      -6.755  20.806  64.687  1.00  0.00    -0.334 F  
HETATM   29  C   UNL     1      -6.478  17.741  66.612  1.00  0.00    -0.230 A  
ENDBRANCH  21  23
ENDBRANCH  20  21
ENDBRANCH  19  20
ENDBRANCH  18  19
ENDBRANCH  15  18
ENDBRANCH  11  12
TORSDOF 6
ENDMDL
MODEL       71
REMARK 921   NORMALIZED FREE ENERGY PREDICTED BY IDOCK:   -5.86 KCAL/MOL
REMARK 922        TOTAL FREE ENERGY PREDICTED BY IDOCK:   -9.22 KCAL/MOL
REMARK 923 INTER-LIGAND FREE ENERGY PREDICTED BY IDOCK:   -8.30 KCAL/MOL
REMARK 924 INTRA-LIGAND FREE ENERGY PREDICTED BY IDOCK:   -0.93 KCAL/MOL
REMARK 927      BINDING AFFINITY PREDICTED BY RF-SCORE:    0.00 PKD
ROOT
HETATM    1  O   UNL     1      -7.374   5.594  66.195  1.00  0.00    -0.075 OA 
HETATM    2  C   UNL     1      -7.970   6.729  65.909  1.00  0.00    -0.112 A  
HETATM    3  H   UNL     1      -7.626   5.066  66.943  1.00  0.00     0.000 HD 
HETATM    4  N   UNL     1      -7.624   7.454  64.883  1.00  0.00    -0.097 NA 
HETATM    5  C   UNL     1      -8.434   8.558  64.961  1.00  0.00    -0.164 A  
HETATM    6  C   UNL     1      -8.451   9.697  64.146  1.00  0.00    -0.186 A  
HETATM    7  C   UNL     1      -9.371  10.713  64.429  1.00  0.00    -0.291 A  
HETATM    8  C   UNL     1     -10.274  10.586  65.483  1.00  0.00    -0.325 A  
HETATM    9  C   UNL     1     -10.278   9.455  66.306  1.00  0.00    -0.284 A  
HETATM   10  C   UNL     1      -9.320   8.470  66.039  1.00  0.00    -0.199 A  
HETATM   11  N   UNL     1      -8.948   7.309  66.672  1.00  0.00    -0.144 NA 
ENDROOT
BRANCH  11  12
HETATM   12  C   UNL     1      -9.307   6.842  67.993  1.00  0.00    -0.123 C  
HETATM   13  C   UNL     1     -10.683   6.189  68.091  1.00  0.00    -0.367 C  
HETATM   14  C   UNL     1     -10.764   5.516  69.463  1.00  0.00    -0.262 C  
HETATM   15  N   UNL     1     -10.551   6.445  70.588  1.00  0.00    -0.225 NA 
HETATM   16  C   UNL     1      -9.298   7.204  70.450  1.00  0.00    -0.159 C  
HETATM   17  C   UNL     1      -9.152   7.895  69.096  1.00  0.00    -0.145 C  
BRANCH  15  18
HETATM   18  C   UNL     1     -11.699   7.324  70.854  1.00  0.00    -0.315 C  
BRANCH  18  19
HETATM   19  C   UNL     1     -11.361   8.469  71.813  1.00  0.00    -0.377 C  
BRANCH  19  20
HETATM   20  C   UNL     1     -11.546   9.838  71.158  1.00  0.00    -0.469 C  
BRANCH  20  21
HETATM   21  C   UNL     1     -12.774  10.547  71.685  1.00  0.00    -0.445 C  
HETATM   22  O   UNL     1     -13.694   9.961  72.251  1.00  0.00    -0.356 OA 
BRANCH  21  23
HETATM   23  C   UNL     1     -12.877  12.015  71.466  1.00  0.00    -0.403 A  
HETATM   24  C   UNL     1     -12.177  12.566  70.383  1.00  0.00    -0.368 A  
HETATM   25  C   UNL     1     -12.217  13.940  70.152  1.00  0.00    -0.425 A  
HETATM   26  C   UNL     1     -12.965  14.755  70.993  1.00  0.00    -0.363 A  
HETATM   27  C   UNL     1     -13.676  14.219  72.061  1.00  0.00    -0.542 A  
HETATM   28  F   UNL     1     -13.002  16.074  70.772  1.00  0.00    -0.464 F  
HETATM   29  C   UNL     1     -13.634  12.844  72.303  1.00  0.00    -0.611 A  
ENDBRANCH  21  23
ENDBRANCH  20  21
ENDBRANCH  19  20
ENDBRANCH  18  19
ENDBRANCH  15  18
ENDBRANCH  11  12
TORSDOF 6
ENDMDL
MODEL       72
REMARK 921   NORMALIZED FREE ENERGY PREDICTED BY IDOCK:   -5.86 KCAL/MOL
REMARK 922        TOTAL FREE ENERGY PREDICTED BY IDOCK:   -9.22 KCAL/MOL
REMARK 923 INTER-LIGAND FREE ENERGY PREDICTED BY IDOCK:   -7.24 KCAL/MOL
REMARK 924 INTRA-LIGAND FREE ENERGY PREDICTED BY IDOCK:   -1.98 KCAL/MOL
REMARK 927      BINDING AFFINITY PREDICTED BY RF-SCORE:    0.00 PKD
ROOT
HETATM    1  O   UNL     1     -12.681  15.214  63.750  1.00  0.00    -0.877 OA 
HETATM    2  C   UNL     1     -11.886  14.192  63.970  1.00  0.00    -0.271 A  
HETATM    3  H   UNL     1     -12.654  15.999  64.284  1.00  0.00     0.000 HD 
HETATM    4  N   UNL     1     -11.923  13.114  63.237  1.00  0.00    -0.507 NA 
HETATM    5  C   UNL     1     -10.993  12.285  63.810  1.00  0.00    -0.435 A  
HETATM    6  C   UNL     1     -10.659  10.968  63.468  1.00  0.00    -0.303 A  
HETATM    7  C   UNL     1      -9.673  10.309  64.213  1.00  0.00    -0.373 A  
HETATM    8  C   UNL     1      -9.015  10.956  65.256  1.00  0.00    -0.202 A  
HETATM    9  C   UNL     1      -9.329  12.273  65.610  1.00  0.00     0.001 A  
HETATM   10  C   UNL     1     -10.350  12.901  64.888  1.00  0.00    -0.308 A  
HETATM   11  N   UNL     1     -10.997  14.106  65.008  1.00  0.00    -0.362 NA 
ENDROOT
BRANCH  11  12
HETATM   12  C   UNL     1     -10.965  15.045  66.107  1.00  0.00    -0.334 C  
HETATM   13  C   UNL     1      -9.643  15.786  66.281  1.00  0.00    -0.343 C  
HETATM   14  C   UNL     1      -9.888  16.915  67.283  1.00  0.00    -0.265 C  
HETATM   15  N   UNL     1     -10.394  16.447  68.586  1.00  0.00    -0.256 NA 
HETATM   16  C   UNL     1     -11.591  15.602  68.445  1.00  0.00    -0.350 C  
HETATM   17  C   UNL     1     -11.413  14.459  67.450  1.00  0.00    -0.377 C  
BRANCH  15  18
HETATM   18  C   UNL     1      -9.368  15.809  69.424  1.00  0.00    -0.269 C  
BRANCH  18  19
HETATM   19  C   UNL     1      -7.965  16.369  69.174  1.00  0.00    -0.204 C  
BRANCH  19  20
HETATM   20  C   UNL     1      -6.874  15.352  69.509  1.00  0.00    -0.181 C  
BRANCH  20  21
HETATM   21  C   UNL     1      -6.380  14.637  68.271  1.00  0.00    -0.123 C  
HETATM   22  O   UNL     1      -5.831  15.216  67.337  1.00  0.00    -0.336 OA 
BRANCH  21  23
HETATM   23  C   UNL     1      -6.612  13.170  68.177  1.00  0.00    -0.107 A  
HETATM   24  C   UNL     1      -5.769  12.426  67.341  1.00  0.00    -0.134 A  
HETATM   25  C   UNL     1      -5.964  11.053  67.196  1.00  0.00    -0.072 A  
HETATM   26  C   UNL     1      -6.989  10.428  67.896  1.00  0.00    -0.082 A  
HETATM   27  C   UNL     1      -7.823  11.152  68.740  1.00  0.00    -0.142 A  
HETATM   28  F   UNL     1      -7.177   9.111  67.755  1.00  0.00    -0.076 F  
HETATM   29  C   UNL     1      -7.639  12.530  68.884  1.00  0.00     0.047 A  
ENDBRANCH  21  23
ENDBRANCH  20  21
ENDBRANCH  19  20
ENDBRANCH  18  19
ENDBRANCH  15  18
ENDBRANCH  11  12
TORSDOF 6
ENDMDL
MODEL       73
REMARK 921   NORMALIZED FREE ENERGY PREDICTED BY IDOCK:   -5.86 KCAL/MOL
REMARK 922        TOTAL FREE ENERGY PREDICTED BY IDOCK:   -9.22 KCAL/MOL
REMARK 923 INTER-LIGAND FREE ENERGY PREDICTED BY IDOCK:   -8.63 KCAL/MOL
REMARK 924 INTRA-LIGAND FREE ENERGY PREDICTED BY IDOCK:   -0.58 KCAL/MOL
REMARK 927      BINDING AFFINITY PREDICTED BY RF-SCORE:    0.00 PKD
ROOT
HETATM    1  O   UNL     1      -9.470  11.839  69.072  1.00  0.00    -0.408 OA 
HETATM    2  C   UNL     1      -9.664  10.561  68.835  1.00  0.00    -0.199 A  
HETATM    3  H   UNL     1      -9.794  12.515  68.488  1.00  0.00     0.000 HD 
HETATM    4  N   UNL     1      -9.221   9.633  69.636  1.00  0.00    -0.196 NA 
HETATM    5  C   UNL     1      -9.579   8.460  69.023  1.00  0.00    -0.160 A  
HETATM    6  C   UNL     1      -9.302   7.143  69.412  1.00  0.00    -0.147 A  
HETATM    7  C   UNL     1      -9.767   6.093  68.612  1.00  0.00    -0.145 A  
HETATM    8  C   UNL     1     -10.516   6.347  67.465  1.00  0.00    -0.290 A  
HETATM    9  C   UNL     1     -10.810   7.654  67.061  1.00  0.00    -0.219 A  
HETATM   10  C   UNL     1     -10.296   8.693  67.846  1.00  0.00    -0.229 A  
HETATM   11  N   UNL     1     -10.275  10.060  67.718  1.00  0.00    -0.180 NA 
ENDROOT
BRANCH  11  12
HETATM   12  C   UNL     1     -10.604  10.866  66.563  1.00  0.00    -0.237 C  
HETATM   13  C   UNL     1      -9.403  11.402  65.789  1.00  0.00    -0.247 C  
HETATM   14  C   UNL     1      -9.934  11.973  64.473  1.00  0.00    -0.213 C  
HETATM   15  N   UNL     1     -10.946  13.030  64.654  1.00  0.00    -0.323 NA 
HETATM   16  C   UNL     1     -12.052  12.594  65.521  1.00  0.00    -0.458 C  
HETATM   17  C   UNL     1     -11.588  12.006  66.850  1.00  0.00    -0.389 C  
BRANCH  15  18
HETATM   18  C   UNL     1     -10.384  14.317  65.086  1.00  0.00    -0.415 C  
BRANCH  18  19
HETATM   19  C   UNL     1     -11.156  14.941  66.252  1.00  0.00    -0.340 C  
BRANCH  19  20
HETATM   20  C   UNL     1     -10.264  15.168  67.474  1.00  0.00    -0.238 C  
BRANCH  20  21
HETATM   21  C   UNL     1     -10.895  16.133  68.453  1.00  0.00    -0.318 C  
HETATM   22  O   UNL     1     -10.897  17.350  68.286  1.00  0.00    -0.355 OA 
BRANCH  21  23
HETATM   23  C   UNL     1     -11.502  15.571  69.689  1.00  0.00    -0.337 A  
HETATM   24  C   UNL     1     -11.401  16.322  70.869  1.00  0.00    -0.319 A  
HETATM   25  C   UNL     1     -11.927  15.825  72.060  1.00  0.00    -0.570 A  
HETATM   26  C   UNL     1     -12.564  14.590  72.067  1.00  0.00    -0.325 A  
HETATM   27  C   UNL     1     -12.684  13.842  70.901  1.00  0.00    -0.394 A  
HETATM   28  F   UNL     1     -13.067  14.113  73.211  1.00  0.00    -0.588 F  
HETATM   29  C   UNL     1     -12.152  14.329  69.705  1.00  0.00    -0.396 A  
ENDBRANCH  21  23
ENDBRANCH  20  21
ENDBRANCH  19  20
ENDBRANCH  18  19
ENDBRANCH  15  18
ENDBRANCH  11  12
TORSDOF 6
ENDMDL
MODEL       74
REMARK 921   NORMALIZED FREE ENERGY PREDICTED BY IDOCK:   -5.85 KCAL/MOL
REMARK 922        TOTAL FREE ENERGY PREDICTED BY IDOCK:   -9.21 KCAL/MOL
REMARK 923 INTER-LIGAND FREE ENERGY PREDICTED BY IDOCK:   -8.34 KCAL/MOL
REMARK 924 INTRA-LIGAND FREE ENERGY PREDICTED BY IDOCK:   -0.87 KCAL/MOL
REMARK 927      BINDING AFFINITY PREDICTED BY RF-SCORE:    0.00 PKD
ROOT
HETATM    1  O   UNL     1     -12.468  15.652  69.412  1.00  0.00    -0.580 OA 
HETATM    2  C   UNL     1     -11.384  16.018  68.765  1.00  0.00    -0.380 A  
HETATM    3  H   UNL     1     -12.823  14.774  69.344  1.00  0.00     0.000 HD 
HETATM    4  N   UNL     1     -10.896  17.223  68.858  1.00  0.00    -0.198 NA 
HETATM    5  C   UNL     1      -9.816  17.215  68.011  1.00  0.00    -0.283 A  
HETATM    6  C   UNL     1      -8.956  18.267  67.671  1.00  0.00    -0.271 A  
HETATM    7  C   UNL     1      -7.918  18.021  66.766  1.00  0.00    -0.261 A  
HETATM    8  C   UNL     1      -7.722  16.750  66.231  1.00  0.00    -0.310 A  
HETATM    9  C   UNL     1      -8.566  15.684  66.561  1.00  0.00    -0.335 A  
HETATM   10  C   UNL     1      -9.628  15.957  67.430  1.00  0.00    -0.221 A  
HETATM   11  N   UNL     1     -10.698  15.226  67.885  1.00  0.00    -0.268 NA 
ENDROOT
BRANCH  11  12
HETATM   12  C   UNL     1     -11.194  13.954  67.406  1.00  0.00    -0.312 C  
HETATM   13  C   UNL     1     -10.946  12.775  68.342  1.00  0.00    -0.281 C  
HETATM   14  C   UNL     1     -11.775  11.601  67.815  1.00  0.00    -0.245 C  
HETATM   15  N   UNL     1     -11.457  11.234  66.423  1.00  0.00    -0.274 NA 
HETATM   16  C   UNL     1     -11.542  12.386  65.512  1.00  0.00    -0.385 C  
HETATM   17  C   UNL     1     -10.741  13.596  65.987  1.00  0.00    -0.280 C  
BRANCH  15  18
HETATM   18  C   UNL     1     -10.184  10.513  66.279  1.00  0.00    -0.235 C  
BRANCH  18  19
HETATM   19  C   UNL     1     -10.095   9.278  67.180  1.00  0.00    -0.299 C  
BRANCH  19  20
HETATM   20  C   UNL     1      -9.068   9.458  68.299  1.00  0.00    -0.128 C  
BRANCH  20  21
HETATM   21  C   UNL     1      -9.250   8.429  69.393  1.00  0.00    -0.154 C  
HETATM   22  O   UNL     1      -8.448   7.520  69.596  1.00  0.00    -0.133 OA 
BRANCH  21  23
HETATM   23  C   UNL     1     -10.479   8.510  70.226  1.00  0.00    -0.233 A  
HETATM   24  C   UNL     1     -11.221   7.336  70.415  1.00  0.00    -0.302 A  
HETATM   25  C   UNL     1     -12.398   7.366  71.164  1.00  0.00    -0.349 A  
HETATM   26  C   UNL     1     -12.819   8.563  71.730  1.00  0.00    -0.348 A  
HETATM   27  C   UNL     1     -12.085   9.731  71.563  1.00  0.00    -0.493 A  
HETATM   28  F   UNL     1     -13.949   8.591  72.447  1.00  0.00    -0.385 F  
HETATM   29  C   UNL     1     -10.910   9.710  70.808  1.00  0.00    -0.400 A  
ENDBRANCH  21  23
ENDBRANCH  20  21
ENDBRANCH  19  20
ENDBRANCH  18  19
ENDBRANCH  15  18
ENDBRANCH  11  12
TORSDOF 6
ENDMDL
MODEL       75
REMARK 921   NORMALIZED FREE ENERGY PREDICTED BY IDOCK:   -5.82 KCAL/MOL
REMARK 922        TOTAL FREE ENERGY PREDICTED BY IDOCK:   -9.16 KCAL/MOL
REMARK 923 INTER-LIGAND FREE ENERGY PREDICTED BY IDOCK:   -8.53 KCAL/MOL
REMARK 924 INTRA-LIGAND FREE ENERGY PREDICTED BY IDOCK:   -0.64 KCAL/MOL
REMARK 927      BINDING AFFINITY PREDICTED BY RF-SCORE:    0.00 PKD
ROOT
HETATM    1  O   UNL     1     -11.338  17.169  64.627  1.00  0.00    -0.909 OA 
HETATM    2  C   UNL     1     -10.470  17.449  65.573  1.00  0.00    -0.101 A  
HETATM    3  H   UNL     1     -11.830  16.357  64.619  1.00  0.00     0.000 HD 
HETATM    4  N   UNL     1      -9.794  18.563  65.585  1.00  0.00    -0.352 NA 
HETATM    5  C   UNL     1      -8.979  18.451  66.682  1.00  0.00    -0.289 A  
HETATM    6  C   UNL     1      -7.994  19.335  67.142  1.00  0.00    -0.287 A  
HETATM    7  C   UNL     1      -7.272  18.999  68.293  1.00  0.00    -0.306 A  
HETATM    8  C   UNL     1      -7.543  17.823  68.987  1.00  0.00    -0.153 A  
HETATM    9  C   UNL     1      -8.525  16.928  68.550  1.00  0.00    -0.258 A  
HETATM   10  C   UNL     1      -9.205  17.256  67.371  1.00  0.00    -0.231 A  
HETATM   11  N   UNL     1     -10.125  16.600  66.590  1.00  0.00    -0.290 NA 
ENDROOT
BRANCH  11  12
HETATM   12  C   UNL     1     -10.527  15.212  66.637  1.00  0.00    -0.287 C  
HETATM   13  C   UNL     1     -11.838  14.947  67.371  1.00  0.00    -0.245 C  
HETATM   14  C   UNL     1     -12.236  13.500  67.074  1.00  0.00    -0.303 C  
HETATM   15  N   UNL     1     -11.213  12.514  67.469  1.00  0.00    -0.274 NA 
HETATM   16  C   UNL     1      -9.895  12.824  66.895  1.00  0.00    -0.236 C  
HETATM   17  C   UNL     1      -9.442  14.259  67.151  1.00  0.00    -0.229 C  
BRANCH  15  18
HETATM   18  C   UNL     1     -11.141  12.287  68.920  1.00  0.00    -0.242 C  
BRANCH  18  19
HETATM   19  C   UNL     1     -11.934  11.057  69.368  1.00  0.00    -0.408 C  
BRANCH  19  20
HETATM   20  C   UNL     1     -11.265  10.340  70.542  1.00  0.00    -0.408 C  
BRANCH  20  21
HETATM   21  C   UNL     1     -10.080   9.516  70.090  1.00  0.00    -0.249 C  
HETATM   22  O   UNL     1      -8.926   9.757  70.435  1.00  0.00    -0.223 OA 
BRANCH  21  23
HETATM   23  C   UNL     1     -10.336   8.389  69.152  1.00  0.00    -0.229 A  
HETATM   24  C   UNL     1     -10.121   8.613  67.785  1.00  0.00    -0.266 A  
HETATM   25  C   UNL     1     -10.374   7.598  66.863  1.00  0.00    -0.388 A  
HETATM   26  C   UNL     1     -10.827   6.363  67.310  1.00  0.00    -0.385 A  
HETATM   27  C   UNL     1     -11.031   6.123  68.665  1.00  0.00    -0.415 A  
HETATM   28  F   UNL     1     -11.072   5.390  66.425  1.00  0.00    -0.309 F  
HETATM   29  C   UNL     1     -10.786   7.137  69.594  1.00  0.00    -0.254 A  
ENDBRANCH  21  23
ENDBRANCH  20  21
ENDBRANCH  19  20
ENDBRANCH  18  19
ENDBRANCH  15  18
ENDBRANCH  11  12
TORSDOF 6
ENDMDL
MODEL       76
REMARK 921   NORMALIZED FREE ENERGY PREDICTED BY IDOCK:   -5.80 KCAL/MOL
REMARK 922        TOTAL FREE ENERGY PREDICTED BY IDOCK:   -9.15 KCAL/MOL
REMARK 923 INTER-LIGAND FREE ENERGY PREDICTED BY IDOCK:   -8.28 KCAL/MOL
REMARK 924 INTRA-LIGAND FREE ENERGY PREDICTED BY IDOCK:   -0.86 KCAL/MOL
REMARK 927      BINDING AFFINITY PREDICTED BY RF-SCORE:    0.00 PKD
ROOT
HETATM    1  O   UNL     1     -11.760  11.692  70.555  1.00  0.00    -0.477 OA 
HETATM    2  C   UNL     1     -11.584  10.398  70.414  1.00  0.00    -0.337 A  
HETATM    3  H   UNL     1     -11.597  12.304  69.847  1.00  0.00     0.000 HD 
HETATM    4  N   UNL     1     -11.809   9.559  71.386  1.00  0.00    -0.361 NA 
HETATM    5  C   UNL     1     -11.466   8.338  70.862  1.00  0.00    -0.274 A  
HETATM    6  C   UNL     1     -11.451   7.085  71.488  1.00  0.00    -0.306 A  
HETATM    7  C   UNL     1     -11.049   5.967  70.747  1.00  0.00    -0.355 A  
HETATM    8  C   UNL     1     -10.697   6.090  69.405  1.00  0.00    -0.403 A  
HETATM    9  C   UNL     1     -10.711   7.331  68.759  1.00  0.00    -0.168 A  
HETATM   10  C   UNL     1     -11.069   8.445  69.527  1.00  0.00     0.053 A  
HETATM   11  N   UNL     1     -11.091   9.797  69.288  1.00  0.00    -0.192 NA 
ENDROOT
BRANCH  11  12
HETATM   12  C   UNL     1     -10.513  10.531  68.184  1.00  0.00    -0.186 C  
HETATM   13  C   UNL     1      -9.258  11.328  68.528  1.00  0.00    -0.181 C  
HETATM   14  C   UNL     1      -8.642  11.791  67.206  1.00  0.00    -0.162 C  
HETATM   15  N   UNL     1      -9.559  12.599  66.381  1.00  0.00    -0.247 NA 
HETATM   16  C   UNL     1     -10.843  11.919  66.151  1.00  0.00    -0.292 C  
HETATM   17  C   UNL     1     -11.507  11.424  67.433  1.00  0.00    -0.328 C  
BRANCH  15  18
HETATM   18  C   UNL     1      -9.744  13.971  66.874  1.00  0.00    -0.271 C  
BRANCH  18  19
HETATM   19  C   UNL     1      -8.435  14.762  66.938  1.00  0.00    -0.230 C  
BRANCH  19  20
HETATM   20  C   UNL     1      -8.055  15.128  68.374  1.00  0.00    -0.139 C  
BRANCH  20  21
HETATM   21  C   UNL     1      -9.121  15.974  69.033  1.00  0.00    -0.242 C  
HETATM   22  O   UNL     1      -9.809  15.574  69.970  1.00  0.00    -0.283 OA 
BRANCH  21  23
HETATM   23  C   UNL     1      -9.363  17.336  68.487  1.00  0.00    -0.276 A  
HETATM   24  C   UNL     1      -8.314  18.265  68.553  1.00  0.00    -0.327 A  
HETATM   25  C   UNL     1      -8.500  19.563  68.082  1.00  0.00    -0.361 A  
HETATM   26  C   UNL     1      -9.724  19.925  67.534  1.00  0.00    -0.392 A  
HETATM   27  C   UNL     1     -10.768  19.010  67.448  1.00  0.00    -0.559 A  
HETATM   28  F   UNL     1      -9.903  21.172  67.083  1.00  0.00    -0.596 F  
HETATM   29  C   UNL     1     -10.592  17.709  67.926  1.00  0.00    -0.390 A  
ENDBRANCH  21  23
ENDBRANCH  20  21
ENDBRANCH  19  20
ENDBRANCH  18  19
ENDBRANCH  15  18
ENDBRANCH  11  12
TORSDOF 6
ENDMDL
MODEL       77
REMARK 921   NORMALIZED FREE ENERGY PREDICTED BY IDOCK:   -5.79 KCAL/MOL
REMARK 922        TOTAL FREE ENERGY PREDICTED BY IDOCK:   -9.13 KCAL/MOL
REMARK 923 INTER-LIGAND FREE ENERGY PREDICTED BY IDOCK:   -8.45 KCAL/MOL
REMARK 924 INTRA-LIGAND FREE ENERGY PREDICTED BY IDOCK:   -0.68 KCAL/MOL
REMARK 927      BINDING AFFINITY PREDICTED BY RF-SCORE:    0.00 PKD
ROOT
HETATM    1  O   UNL     1      -7.845   9.774  70.728  1.00  0.00    -0.327 OA 
HETATM    2  C   UNL     1      -8.555   8.797  71.244  1.00  0.00    -0.203 A  
HETATM    3  H   UNL     1      -8.216  10.399  70.115  1.00  0.00     0.000 HD 
HETATM    4  N   UNL     1      -8.047   7.940  72.085  1.00  0.00    -0.114 NA 
HETATM    5  C   UNL     1      -9.076   7.070  72.342  1.00  0.00    -0.132 A  
HETATM    6  C   UNL     1      -9.074   5.913  73.132  1.00  0.00    -0.130 A  
HETATM    7  C   UNL     1     -10.254   5.169  73.239  1.00  0.00    -0.217 A  
HETATM    8  C   UNL     1     -11.419   5.581  72.595  1.00  0.00    -0.331 A  
HETATM    9  C   UNL     1     -11.445   6.736  71.806  1.00  0.00    -0.320 A  
HETATM   10  C   UNL     1     -10.244   7.443  71.671  1.00  0.00    -0.188 A  
HETATM   11  N   UNL     1      -9.856   8.522  70.917  1.00  0.00    -0.180 NA 
ENDROOT
BRANCH  11  12
HETATM   12  C   UNL     1     -10.548   9.153  69.814  1.00  0.00    -0.229 C  
HETATM   13  C   UNL     1      -9.783   9.159  68.494  1.00  0.00    -0.166 C  
HETATM   14  C   UNL     1     -10.766   9.596  67.406  1.00  0.00    -0.241 C  
HETATM   15  N   UNL     1     -11.375  10.915  67.658  1.00  0.00    -0.452 NA 
HETATM   16  C   UNL     1     -11.997  10.993  68.989  1.00  0.00    -0.293 C  
HETATM   17  C   UNL     1     -11.068  10.562  70.120  1.00  0.00    -0.369 C  
BRANCH  15  18
HETATM   18  C   UNL     1     -10.465  12.042  67.410  1.00  0.00    -0.216 C  
BRANCH  18  19
HETATM   19  C   UNL     1     -11.063  13.093  66.470  1.00  0.00    -0.317 C  
BRANCH  19  20
HETATM   20  C   UNL     1     -12.034  14.025  67.195  1.00  0.00    -0.465 C  
BRANCH  20  21
HETATM   21  C   UNL     1     -11.313  14.938  68.162  1.00  0.00    -0.312 C  
HETATM   22  O   UNL     1     -10.375  15.658  67.830  1.00  0.00    -0.255 OA 
BRANCH  21  23
HETATM   23  C   UNL     1     -11.745  14.922  69.585  1.00  0.00    -0.356 A  
HETATM   24  C   UNL     1     -11.345  15.987  70.404  1.00  0.00    -0.405 A  
HETATM   25  C   UNL     1     -11.699  16.004  71.752  1.00  0.00    -0.593 A  
HETATM   26  C   UNL     1     -12.462  14.967  72.273  1.00  0.00    -0.341 A  
HETATM   27  C   UNL     1     -12.878  13.911  71.469  1.00  0.00    -0.441 A  
HETATM   28  F   UNL     1     -12.800  14.982  73.568  1.00  0.00    -0.498 F  
HETATM   29  C   UNL     1     -12.520  13.884  70.119  1.00  0.00    -0.355 A  
ENDBRANCH  21  23
ENDBRANCH  20  21
ENDBRANCH  19  20
ENDBRANCH  18  19
ENDBRANCH  15  18
ENDBRANCH  11  12
TORSDOF 6
ENDMDL
MODEL       78
REMARK 921   NORMALIZED FREE ENERGY PREDICTED BY IDOCK:   -5.78 KCAL/MOL
REMARK 922        TOTAL FREE ENERGY PREDICTED BY IDOCK:   -9.12 KCAL/MOL
REMARK 923 INTER-LIGAND FREE ENERGY PREDICTED BY IDOCK:   -8.46 KCAL/MOL
REMARK 924 INTRA-LIGAND FREE ENERGY PREDICTED BY IDOCK:   -0.65 KCAL/MOL
REMARK 927      BINDING AFFINITY PREDICTED BY RF-SCORE:    0.00 PKD
ROOT
HETATM    1  O   UNL     1     -10.354   6.547  73.604  1.00  0.00    -0.248 OA 
HETATM    2  C   UNL     1     -10.195   5.896  72.474  1.00  0.00    -0.187 A  
HETATM    3  H   UNL     1     -10.584   7.468  73.628  1.00  0.00     0.000 HD 
HETATM    4  N   UNL     1      -9.880   4.632  72.441  1.00  0.00    -0.157 NA 
HETATM    5  C   UNL     1      -9.762   4.350  71.104  1.00  0.00    -0.186 A  
HETATM    6  C   UNL     1      -9.379   3.151  70.488  1.00  0.00    -0.227 A  
HETATM    7  C   UNL     1      -9.318   3.102  69.090  1.00  0.00    -0.228 A  
HETATM    8  C   UNL     1      -9.659   4.213  68.322  1.00  0.00    -0.191 A  
HETATM    9  C   UNL     1     -10.050   5.418  68.916  1.00  0.00    -0.265 A  
HETATM   10  C   UNL     1     -10.058   5.465  70.315  1.00  0.00    -0.248 A  
HETATM   11  N   UNL     1     -10.268   6.465  71.231  1.00  0.00    -0.198 NA 
ENDROOT
BRANCH  11  12
HETATM   12  C   UNL     1     -10.331   7.894  71.014  1.00  0.00    -0.201 C  
HETATM   13  C   UNL     1     -11.741   8.462  70.881  1.00  0.00    -0.269 C  
HETATM   14  C   UNL     1     -11.620   9.986  70.945  1.00  0.00    -0.378 C  
HETATM   15  N   UNL     1     -10.735  10.550  69.909  1.00  0.00    -0.266 NA 
HETATM   16  C   UNL     1      -9.406   9.918  69.911  1.00  0.00    -0.216 C  
HETATM   17  C   UNL     1      -9.458   8.394  69.857  1.00  0.00    -0.166 C  
BRANCH  15  18
HETATM   18  C   UNL     1     -11.333  10.567  68.567  1.00  0.00    -0.257 C  
BRANCH  18  19
HETATM   19  C   UNL     1     -11.645  11.983  68.074  1.00  0.00    -0.407 C  
BRANCH  19  20
HETATM   20  C   UNL     1     -10.943  13.051  68.913  1.00  0.00    -0.271 C  
BRANCH  20  21
HETATM   21  C   UNL     1     -11.752  14.327  68.981  1.00  0.00    -0.317 C  
HETATM   22  O   UNL     1     -11.999  15.016  67.994  1.00  0.00    -0.296 OA 
BRANCH  21  23
HETATM   23  C   UNL     1     -12.228  14.777  70.317  1.00  0.00    -0.394 A  
HETATM   24  C   UNL     1     -11.568  15.857  70.918  1.00  0.00    -0.456 A  
HETATM   25  C   UNL     1     -11.958  16.298  72.182  1.00  0.00    -0.575 A  
HETATM   26  C   UNL     1     -13.012  15.668  72.833  1.00  0.00    -0.497 A  
HETATM   27  C   UNL     1     -13.685  14.605  72.242  1.00  0.00    -0.565 A  
HETATM   28  F   UNL     1     -13.384  16.090  74.047  1.00  0.00    -0.505 F  
HETATM   29  C   UNL     1     -13.295  14.153  70.979  1.00  0.00    -0.288 A  
ENDBRANCH  21  23
ENDBRANCH  20  21
ENDBRANCH  19  20
ENDBRANCH  18  19
ENDBRANCH  15  18
ENDBRANCH  11  12
TORSDOF 6
ENDMDL
MODEL       79
REMARK 921   NORMALIZED FREE ENERGY PREDICTED BY IDOCK:   -5.77 KCAL/MOL
REMARK 922        TOTAL FREE ENERGY PREDICTED BY IDOCK:   -9.10 KCAL/MOL
REMARK 923 INTER-LIGAND FREE ENERGY PREDICTED BY IDOCK:   -7.55 KCAL/MOL
REMARK 924 INTRA-LIGAND FREE ENERGY PREDICTED BY IDOCK:   -1.55 KCAL/MOL
REMARK 927      BINDING AFFINITY PREDICTED BY RF-SCORE:    0.00 PKD
ROOT
HETATM    1  O   UNL     1      -9.184   6.025  67.375  1.00  0.00    -0.111 OA 
HETATM    2  C   UNL     1      -9.465   6.491  68.571  1.00  0.00    -0.121 A  
HETATM    3  H   UNL     1      -8.831   6.578  66.688  1.00  0.00     0.000 HD 
HETATM    4  N   UNL     1      -9.949   5.732  69.514  1.00  0.00    -0.176 NA 
HETATM    5  C   UNL     1     -10.146   6.588  70.568  1.00  0.00    -0.185 A  
HETATM    6  C   UNL     1     -10.706   6.323  71.824  1.00  0.00    -0.279 A  
HETATM    7  C   UNL     1     -10.816   7.371  72.746  1.00  0.00    -0.374 A  
HETATM    8  C   UNL     1     -10.352   8.647  72.435  1.00  0.00    -0.317 A  
HETATM    9  C   UNL     1      -9.784   8.932  71.189  1.00  0.00    -0.344 A  
HETATM   10  C   UNL     1      -9.725   7.885  70.261  1.00  0.00    -0.183 A  
HETATM   11  N   UNL     1      -9.355   7.804  68.941  1.00  0.00    -0.147 NA 
ENDROOT
BRANCH  11  12
HETATM   12  C   UNL     1      -9.105   8.876  68.003  1.00  0.00    -0.139 C  
HETATM   13  C   UNL     1      -8.012   9.855  68.421  1.00  0.00    -0.096 C  
HETATM   14  C   UNL     1      -7.698  10.726  67.204  1.00  0.00    -0.120 C  
HETATM   15  N   UNL     1      -8.871  11.452  66.681  1.00  0.00    -0.178 NA 
HETATM   16  C   UNL     1     -10.002  10.552  66.405  1.00  0.00    -0.218 C  
HETATM   17  C   UNL     1     -10.360   9.647  67.581  1.00  0.00    -0.290 C  
BRANCH  15  18
HETATM   18  C   UNL     1      -9.272  12.599  67.508  1.00  0.00    -0.190 C  
BRANCH  18  19
HETATM   19  C   UNL     1     -10.217  13.557  66.777  1.00  0.00    -0.264 C  
BRANCH  19  20
HETATM   20  C   UNL     1     -11.611  13.576  67.404  1.00  0.00    -0.392 C  
BRANCH  20  21
HETATM   21  C   UNL     1     -11.567  14.027  68.847  1.00  0.00    -0.315 C  
HETATM   22  O   UNL     1     -11.079  15.099  69.199  1.00  0.00    -0.232 OA 
BRANCH  21  23
HETATM   23  C   UNL     1     -12.107  13.103  69.880  1.00  0.00    -0.357 A  
HETATM   24  C   UNL     1     -11.962  11.725  69.666  1.00  0.00    -0.378 A  
HETATM   25  C   UNL     1     -12.477  10.817  70.591  1.00  0.00    -0.461 A  
HETATM   26  C   UNL     1     -13.120  11.287  71.728  1.00  0.00    -0.422 A  
HETATM   27  C   UNL     1     -13.257  12.651  71.960  1.00  0.00    -0.531 A  
HETATM   28  F   UNL     1     -13.616  10.415  72.614  1.00  0.00    -0.333 F  
HETATM   29  C   UNL     1     -12.751  13.567  71.035  1.00  0.00    -0.399 A  
ENDBRANCH  21  23
ENDBRANCH  20  21
ENDBRANCH  19  20
ENDBRANCH  18  19
ENDBRANCH  15  18
ENDBRANCH  11  12
TORSDOF 6
ENDMDL
MODEL       80
REMARK 921   NORMALIZED FREE ENERGY PREDICTED BY IDOCK:   -5.75 KCAL/MOL
REMARK 922        TOTAL FREE ENERGY PREDICTED BY IDOCK:   -9.07 KCAL/MOL
REMARK 923 INTER-LIGAND FREE ENERGY PREDICTED BY IDOCK:   -8.15 KCAL/MOL
REMARK 924 INTRA-LIGAND FREE ENERGY PREDICTED BY IDOCK:   -0.92 KCAL/MOL
REMARK 927      BINDING AFFINITY PREDICTED BY RF-SCORE:    0.00 PKD
ROOT
HETATM    1  O   UNL     1     -11.204   5.166  74.149  1.00  0.00    -0.397 OA 
HETATM    2  C   UNL     1     -10.767   4.734  72.988  1.00  0.00    -0.237 A  
HETATM    3  H   UNL     1     -11.536   6.048  74.268  1.00  0.00     0.000 HD 
HETATM    4  N   UNL     1     -10.312   3.524  72.825  1.00  0.00    -0.166 NA 
HETATM    5  C   UNL     1      -9.918   3.486  71.511  1.00  0.00    -0.101 A  
HETATM    6  C   UNL     1      -9.296   2.446  70.808  1.00  0.00    -0.210 A  
HETATM    7  C   UNL     1      -8.974   2.643  69.460  1.00  0.00    -0.169 A  
HETATM    8  C   UNL     1      -9.290   3.838  68.819  1.00  0.00    -0.230 A  
HETATM    9  C   UNL     1      -9.916   4.888  69.500  1.00  0.00    -0.295 A  
HETATM   10  C   UNL     1     -10.188   4.693  70.859  1.00  0.00    -0.143 A  
HETATM   11  N   UNL     1     -10.673   5.501  71.858  1.00  0.00    -0.233 NA 
ENDROOT
BRANCH  11  12
HETATM   12  C   UNL     1     -10.855   6.936  71.853  1.00  0.00    -0.229 C  
HETATM   13  C   UNL     1     -12.118   7.421  71.148  1.00  0.00    -0.357 C  
HETATM   14  C   UNL     1     -12.283   8.903  71.489  1.00  0.00    -0.327 C  
HETATM   15  N   UNL     1     -11.124   9.729  71.102  1.00  0.00    -0.360 NA 
HETATM   16  C   UNL     1      -9.863   9.203  71.646  1.00  0.00    -0.225 C  
HETATM   17  C   UNL     1      -9.642   7.723  71.346  1.00  0.00    -0.182 C  
BRANCH  15  18
HETATM   18  C   UNL     1     -11.036   9.982  69.657  1.00  0.00    -0.259 C  
BRANCH  18  19
HETATM   19  C   UNL     1     -12.140  10.914  69.149  1.00  0.00    -0.292 C  
BRANCH  19  20
HETATM   20  C   UNL     1     -11.781  12.388  69.343  1.00  0.00    -0.384 C  
BRANCH  20  21
HETATM   21  C   UNL     1     -10.767  12.853  68.322  1.00  0.00    -0.244 C  
HETATM   22  O   UNL     1      -9.607  13.136  68.612  1.00  0.00    -0.152 OA 
BRANCH  21  23
HETATM   23  C   UNL     1     -11.220  13.010  66.914  1.00  0.00    -0.331 A  
HETATM   24  C   UNL     1     -10.670  12.154  65.950  1.00  0.00    -0.302 A  
HETATM   25  C   UNL     1     -11.040  12.280  64.612  1.00  0.00    -0.358 A  
HETATM   26  C   UNL     1     -11.967  13.248  64.245  1.00  0.00    -0.421 A  
HETATM   27  C   UNL     1     -12.532  14.093  65.193  1.00  0.00    -0.453 A  
HETATM   28  F   UNL     1     -12.320  13.370  62.960  1.00  0.00    -0.607 F  
HETATM   29  C   UNL     1     -12.160  13.978  66.535  1.00  0.00    -0.488 A  
ENDBRANCH  21  23
ENDBRANCH  20  21
ENDBRANCH  19  20
ENDBRANCH  18  19
ENDBRANCH  15  18
ENDBRANCH  11  12
TORSDOF 6
ENDMDL
MODEL       81
REMARK 921   NORMALIZED FREE ENERGY PREDICTED BY IDOCK:   -5.75 KCAL/MOL
REMARK 922        TOTAL FREE ENERGY PREDICTED BY IDOCK:   -9.07 KCAL/MOL
REMARK 923 INTER-LIGAND FREE ENERGY PREDICTED BY IDOCK:   -8.40 KCAL/MOL
REMARK 924 INTRA-LIGAND FREE ENERGY PREDICTED BY IDOCK:   -0.67 KCAL/MOL
REMARK 927      BINDING AFFINITY PREDICTED BY RF-SCORE:    0.00 PKD
ROOT
HETATM    1  O   UNL     1     -12.613   9.742  70.907  1.00  0.00    -0.385 OA 
HETATM    2  C   UNL     1     -12.707  11.044  71.054  1.00  0.00    -0.386 A  
HETATM    3  H   UNL     1     -11.972   9.344  70.329  1.00  0.00     0.000 HD 
HETATM    4  N   UNL     1     -13.586  11.590  71.847  1.00  0.00    -0.153 NA 
HETATM    5  C   UNL     1     -13.395  12.939  71.684  1.00  0.00    -0.269 A  
HETATM    6  C   UNL     1     -14.110  14.003  72.248  1.00  0.00    -0.633 A  
HETATM    7  C   UNL     1     -13.736  15.312  71.923  1.00  0.00    -0.601 A  
HETATM    8  C   UNL     1     -12.657  15.556  71.076  1.00  0.00    -0.513 A  
HETATM    9  C   UNL     1     -11.927  14.508  70.505  1.00  0.00    -0.387 A  
HETATM   10  C   UNL     1     -12.343  13.206  70.803  1.00  0.00    -0.321 A  
HETATM   11  N   UNL     1     -11.965  11.962  70.361  1.00  0.00    -0.347 NA 
ENDROOT
BRANCH  11  12
HETATM   12  C   UNL     1     -11.125  11.618  69.235  1.00  0.00    -0.233 C  
HETATM   13  C   UNL     1     -11.783  11.784  67.869  1.00  0.00    -0.347 C  
HETATM   14  C   UNL     1     -10.677  11.655  66.819  1.00  0.00    -0.260 C  
HETATM   15  N   UNL     1      -9.945  10.377  66.889  1.00  0.00    -0.198 NA 
HETATM   16  C   UNL     1      -9.420  10.112  68.238  1.00  0.00    -0.140 C  
HETATM   17  C   UNL     1     -10.475  10.233  69.335  1.00  0.00    -0.259 C  
BRANCH  15  18
HETATM   18  C   UNL     1     -10.701   9.233  66.360  1.00  0.00     0.189 C  
BRANCH  18  19
HETATM   19  C   UNL     1      -9.945   7.908  66.492  1.00  0.00    -0.267 C  
BRANCH  19  20
HETATM   20  C   UNL     1     -10.809   6.816  67.125  1.00  0.00    -0.462 C  
BRANCH  20  21
HETATM   21  C   UNL     1     -10.010   5.957  68.080  1.00  0.00    -0.137 C  
HETATM   22  O   UNL     1      -9.035   5.296  67.729  1.00  0.00    -0.109 OA 
BRANCH  21  23
HETATM   23  C   UNL     1     -10.461   5.888  69.496  1.00  0.00    -0.346 A  
HETATM   24  C   UNL     1      -9.752   5.051  70.369  1.00  0.00    -0.280 A  
HETATM   25  C   UNL     1     -10.153   4.930  71.699  1.00  0.00    -0.266 A  
HETATM   26  C   UNL     1     -11.249   5.654  72.153  1.00  0.00    -0.227 A  
HETATM   27  C   UNL     1     -11.951   6.499  71.301  1.00  0.00    -0.364 A  
HETATM   28  F   UNL     1     -11.634   5.535  73.429  1.00  0.00    -0.279 F  
HETATM   29  C   UNL     1     -11.560   6.620  69.966  1.00  0.00    -0.423 A  
ENDBRANCH  21  23
ENDBRANCH  20  21
ENDBRANCH  19  20
ENDBRANCH  18  19
ENDBRANCH  15  18
ENDBRANCH  11  12
TORSDOF 6
ENDMDL
MODEL       82
REMARK 921   NORMALIZED FREE ENERGY PREDICTED BY IDOCK:   -5.72 KCAL/MOL
REMARK 922        TOTAL FREE ENERGY PREDICTED BY IDOCK:   -9.03 KCAL/MOL
REMARK 923 INTER-LIGAND FREE ENERGY PREDICTED BY IDOCK:   -8.43 KCAL/MOL
REMARK 924 INTRA-LIGAND FREE ENERGY PREDICTED BY IDOCK:   -0.61 KCAL/MOL
REMARK 927      BINDING AFFINITY PREDICTED BY RF-SCORE:    0.00 PKD
ROOT
HETATM    1  O   UNL     1     -11.003   8.873  72.135  1.00  0.00    -0.362 OA 
HETATM    2  C   UNL     1     -10.862   8.189  71.022  1.00  0.00    -0.235 A  
HETATM    3  H   UNL     1     -11.118   9.816  72.137  1.00  0.00     0.000 HD 
HETATM    4  N   UNL     1     -10.704   6.896  71.019  1.00  0.00    -0.228 NA 
HETATM    5  C   UNL     1     -10.547   6.579  69.693  1.00  0.00    -0.243 A  
HETATM    6  C   UNL     1     -10.281   5.332  69.112  1.00  0.00    -0.281 A  
HETATM    7  C   UNL     1     -10.148   5.253  67.720  1.00  0.00    -0.205 A  
HETATM    8  C   UNL     1     -10.306   6.385  66.923  1.00  0.00    -0.306 A  
HETATM    9  C   UNL     1     -10.577   7.638  67.482  1.00  0.00    -0.323 A  
HETATM   10  C   UNL     1     -10.659   7.709  68.878  1.00  0.00    -0.159 A  
HETATM   11  N   UNL     1     -10.794   8.742  69.771  1.00  0.00    -0.223 NA 
ENDROOT
BRANCH  11  12
HETATM   12  C   UNL     1     -10.668  10.164  69.537  1.00  0.00    -0.249 C  
HETATM   13  C   UNL     1     -11.990  10.912  69.399  1.00  0.00    -0.393 C  
HETATM   14  C   UNL     1     -11.669  12.407  69.445  1.00  0.00    -0.322 C  
HETATM   15  N   UNL     1     -10.719  12.837  68.402  1.00  0.00    -0.243 NA 
HETATM   16  C   UNL     1      -9.486  12.035  68.410  1.00  0.00    -0.181 C  
HETATM   17  C   UNL     1      -9.740  10.531  68.374  1.00  0.00    -0.166 C  
BRANCH  15  18
HETATM   18  C   UNL     1     -11.313  12.918  67.060  1.00  0.00    -0.309 C  
BRANCH  18  19
HETATM   19  C   UNL     1     -11.520  14.360  66.588  1.00  0.00    -0.372 C  
BRANCH  19  20
HETATM   20  C   UNL     1     -10.333  15.256  66.944  1.00  0.00    -0.278 C  
BRANCH  20  21
HETATM   21  C   UNL     1     -10.733  16.357  67.901  1.00  0.00    -0.332 C  
HETATM   22  O   UNL     1     -11.641  16.234  68.721  1.00  0.00    -0.342 OA 
BRANCH  21  23
HETATM   23  C   UNL     1     -10.013  17.655  67.807  1.00  0.00    -0.315 A  
HETATM   24  C   UNL     1     -10.639  18.703  67.120  1.00  0.00    -0.468 A  
HETATM   25  C   UNL     1      -9.993  19.931  66.979  1.00  0.00    -0.559 A  
HETATM   26  C   UNL     1      -8.732  20.109  67.535  1.00  0.00    -0.336 A  
HETATM   27  C   UNL     1      -8.106  19.082  68.232  1.00  0.00    -0.359 A  
HETATM   28  F   UNL     1      -8.112  21.287  67.398  1.00  0.00    -0.340 F  
HETATM   29  C   UNL     1      -8.744  17.848  68.371  1.00  0.00    -0.296 A  
ENDBRANCH  21  23
ENDBRANCH  20  21
ENDBRANCH  19  20
ENDBRANCH  18  19
ENDBRANCH  15  18
ENDBRANCH  11  12
TORSDOF 6
ENDMDL
MODEL       83
REMARK 921   NORMALIZED FREE ENERGY PREDICTED BY IDOCK:   -5.67 KCAL/MOL
REMARK 922        TOTAL FREE ENERGY PREDICTED BY IDOCK:   -8.97 KCAL/MOL
REMARK 923 INTER-LIGAND FREE ENERGY PREDICTED BY IDOCK:   -7.81 KCAL/MOL
REMARK 924 INTRA-LIGAND FREE ENERGY PREDICTED BY IDOCK:   -1.17 KCAL/MOL
REMARK 927      BINDING AFFINITY PREDICTED BY RF-SCORE:    0.00 PKD
ROOT
HETATM    1  O   UNL     1     -10.784  12.406  69.221  1.00  0.00    -0.432 OA 
HETATM    2  C   UNL     1     -10.890  12.347  67.913  1.00  0.00    -0.222 A  
HETATM    3  H   UNL     1     -10.019  12.080  69.681  1.00  0.00     0.000 HD 
HETATM    4  N   UNL     1     -11.940  12.794  67.283  1.00  0.00    -0.416 NA 
HETATM    5  C   UNL     1     -11.688  12.508  65.965  1.00  0.00    -0.417 A  
HETATM    6  C   UNL     1     -12.508  12.712  64.848  1.00  0.00    -0.564 A  
HETATM    7  C   UNL     1     -12.037  12.326  63.587  1.00  0.00    -0.648 A  
HETATM    8  C   UNL     1     -10.767  11.775  63.439  1.00  0.00    -0.468 A  
HETATM    9  C   UNL     1      -9.929  11.567  64.540  1.00  0.00    -0.306 A  
HETATM   10  C   UNL     1     -10.434  11.914  65.798  1.00  0.00    -0.256 A  
HETATM   11  N   UNL     1      -9.973  11.761  67.083  1.00  0.00    -0.202 NA 
ENDROOT
BRANCH  11  12
HETATM   12  C   UNL     1      -8.868  10.959  67.559  1.00  0.00    -0.133 C  
HETATM   13  C   UNL     1      -9.266   9.632  68.199  1.00  0.00    -0.130 C  
HETATM   14  C   UNL     1      -7.985   8.814  68.373  1.00  0.00    -0.109 C  
HETATM   15  N   UNL     1      -6.959   9.493  69.186  1.00  0.00    -0.056 NA 
HETATM   16  C   UNL     1      -6.656  10.841  68.681  1.00  0.00    -0.056 C  
HETATM   17  C   UNL     1      -7.896  11.707  68.477  1.00  0.00    -0.140 C  
BRANCH  15  18
HETATM   18  C   UNL     1      -7.255   9.499  70.625  1.00  0.00    -0.122 C  
BRANCH  18  19
HETATM   19  C   UNL     1      -6.947   8.160  71.301  1.00  0.00    -0.056 C  
BRANCH  19  20
HETATM   20  C   UNL     1      -8.219   7.378  71.631  1.00  0.00    -0.105 C  
BRANCH  20  21
HETATM   21  C   UNL     1      -9.090   8.122  72.619  1.00  0.00    -0.250 C  
HETATM   22  O   UNL     1      -8.688   8.489  73.721  1.00  0.00    -0.263 OA 
BRANCH  21  23
HETATM   23  C   UNL     1     -10.505   8.380  72.242  1.00  0.00    -0.407 A  
HETATM   24  C   UNL     1     -10.796   9.573  71.566  1.00  0.00    -0.321 A  
HETATM   25  C   UNL     1     -12.112   9.875  71.217  1.00  0.00    -0.485 A  
HETATM   26  C   UNL     1     -13.127   8.980  71.529  1.00  0.00    -0.335 A  
HETATM   27  C   UNL     1     -12.850   7.785  72.185  1.00  0.00    -0.190 A  
HETATM   28  F   UNL     1     -14.390   9.270  71.195  1.00  0.00    -0.341 F  
HETATM   29  C   UNL     1     -11.536   7.480  72.546  1.00  0.00    -0.376 A  
ENDBRANCH  21  23
ENDBRANCH  20  21
ENDBRANCH  19  20
ENDBRANCH  18  19
ENDBRANCH  15  18
ENDBRANCH  11  12
TORSDOF 6
ENDMDL
MODEL       84
REMARK 921   NORMALIZED FREE ENERGY PREDICTED BY IDOCK:   -5.67 KCAL/MOL
REMARK 922        TOTAL FREE ENERGY PREDICTED BY IDOCK:   -8.96 KCAL/MOL
REMARK 923 INTER-LIGAND FREE ENERGY PREDICTED BY IDOCK:   -8.38 KCAL/MOL
REMARK 924 INTRA-LIGAND FREE ENERGY PREDICTED BY IDOCK:   -0.58 KCAL/MOL
REMARK 927      BINDING AFFINITY PREDICTED BY RF-SCORE:    0.00 PKD
ROOT
HETATM    1  O   UNL     1      -8.656   9.552  70.556  1.00  0.00    -0.213 OA 
HETATM    2  C   UNL     1      -9.903   9.241  70.826  1.00  0.00    -0.283 A  
HETATM    3  H   UNL     1      -8.412  10.398  70.198  1.00  0.00     0.000 HD 
HETATM    4  N   UNL     1     -10.237   8.081  71.317  1.00  0.00    -0.190 NA 
HETATM    5  C   UNL     1     -11.605   8.134  71.407  1.00  0.00    -0.278 A  
HETATM    6  C   UNL     1     -12.500   7.136  71.812  1.00  0.00    -0.385 A  
HETATM    7  C   UNL     1     -13.871   7.421  71.813  1.00  0.00    -0.438 A  
HETATM    8  C   UNL     1     -14.338   8.680  71.445  1.00  0.00    -0.332 A  
HETATM    9  C   UNL     1     -13.461   9.694  71.043  1.00  0.00    -0.225 A  
HETATM   10  C   UNL     1     -12.098   9.378  71.002  1.00  0.00    -0.298 A  
HETATM   11  N   UNL     1     -10.980  10.046  70.568  1.00  0.00    -0.310 NA 
ENDROOT
BRANCH  11  12
HETATM   12  C   UNL     1     -10.897  11.257  69.781  1.00  0.00    -0.026 C  
HETATM   13  C   UNL     1     -12.159  12.113  69.784  1.00  0.00    -0.306 C  
HETATM   14  C   UNL     1     -11.793  13.458  69.153  1.00  0.00    -0.336 C  
HETATM   15  N   UNL     1     -11.251  13.338  67.786  1.00  0.00    -0.267 NA 
HETATM   16  C   UNL     1     -10.119  12.401  67.719  1.00  0.00    -0.203 C  
HETATM   17  C   UNL     1     -10.419  11.040  68.341  1.00  0.00    -0.203 C  
BRANCH  15  18
HETATM   18  C   UNL     1     -12.272  13.041  66.771  1.00  0.00    -0.194 C  
BRANCH  18  19
HETATM   19  C   UNL     1     -12.342  14.104  65.671  1.00  0.00    -0.473 C  
BRANCH  19  20
HETATM   20  C   UNL     1     -11.413  13.781  64.500  1.00  0.00    -0.401 C  
BRANCH  20  21
HETATM   21  C   UNL     1     -11.693  12.410  63.928  1.00  0.00    -0.447 C  
HETATM   22  O   UNL     1     -12.813  12.049  63.574  1.00  0.00    -0.749 OA 
BRANCH  21  23
HETATM   23  C   UNL     1     -10.559  11.452  63.832  1.00  0.00    -0.452 A  
HETATM   24  C   UNL     1     -10.395  10.524  64.870  1.00  0.00    -0.307 A  
HETATM   25  C   UNL     1      -9.330   9.625  64.841  1.00  0.00    -0.306 A  
HETATM   26  C   UNL     1      -8.444   9.646  63.772  1.00  0.00    -0.188 A  
HETATM   27  C   UNL     1      -8.603  10.551  62.728  1.00  0.00    -0.218 A  
HETATM   28  F   UNL     1      -7.421   8.783  63.746  1.00  0.00    -0.099 F  
HETATM   29  C   UNL     1      -9.663  11.460  62.754  1.00  0.00    -0.253 A  
ENDBRANCH  21  23
ENDBRANCH  20  21
ENDBRANCH  19  20
ENDBRANCH  18  19
ENDBRANCH  15  18
ENDBRANCH  11  12
TORSDOF 6
ENDMDL
MODEL       85
REMARK 921   NORMALIZED FREE ENERGY PREDICTED BY IDOCK:   -5.66 KCAL/MOL
REMARK 922        TOTAL FREE ENERGY PREDICTED BY IDOCK:   -8.95 KCAL/MOL
REMARK 923 INTER-LIGAND FREE ENERGY PREDICTED BY IDOCK:   -8.12 KCAL/MOL
REMARK 924 INTRA-LIGAND FREE ENERGY PREDICTED BY IDOCK:   -0.83 KCAL/MOL
REMARK 927      BINDING AFFINITY PREDICTED BY RF-SCORE:    0.00 PKD
ROOT
HETATM    1  O   UNL     1     -11.422   9.521  67.896  1.00  0.00    -0.408 OA 
HETATM    2  C   UNL     1     -11.589  10.764  68.285  1.00  0.00    -0.221 A  
HETATM    3  H   UNL     1     -11.441   8.794  68.508  1.00  0.00     0.000 HD 
HETATM    4  N   UNL     1     -11.564  11.762  67.446  1.00  0.00    -0.521 NA 
HETATM    5  C   UNL     1     -11.725  12.871  68.237  1.00  0.00    -0.350 A  
HETATM    6  C   UNL     1     -11.713  14.223  67.870  1.00  0.00    -0.394 A  
HETATM    7  C   UNL     1     -11.888  15.192  68.865  1.00  0.00    -0.337 A  
HETATM    8  C   UNL     1     -12.099  14.823  70.192  1.00  0.00    -0.382 A  
HETATM    9  C   UNL     1     -12.120  13.479  70.579  1.00  0.00    -0.409 A  
HETATM   10  C   UNL     1     -11.895  12.524  69.581  1.00  0.00    -0.314 A  
HETATM   11  N   UNL     1     -11.735  11.161  69.587  1.00  0.00    -0.306 NA 
ENDROOT
BRANCH  11  12
HETATM   12  C   UNL     1     -11.522  10.279  70.714  1.00  0.00    -0.351 C  
HETATM   13  C   UNL     1     -10.224   9.478  70.668  1.00  0.00    -0.364 C  
HETATM   14  C   UNL     1     -10.040   8.839  72.046  1.00  0.00    -0.327 C  
HETATM   15  N   UNL     1     -11.166   7.978  72.450  1.00  0.00    -0.341 NA 
HETATM   16  C   UNL     1     -12.458   8.677  72.365  1.00  0.00    -0.362 C  
HETATM   17  C   UNL     1     -12.699   9.345  71.014  1.00  0.00    -0.270 C  
BRANCH  15  18
HETATM   18  C   UNL     1     -11.197   6.682  71.758  1.00  0.00    -0.260 C  
BRANCH  18  19
HETATM   19  C   UNL     1     -10.168   5.689  72.307  1.00  0.00    -0.241 C  
BRANCH  19  20
HETATM   20  C   UNL     1      -9.124   5.307  71.258  1.00  0.00    -0.169 C  
BRANCH  20  21
HETATM   21  C   UNL     1      -9.504   4.036  70.531  1.00  0.00    -0.178 C  
HETATM   22  O   UNL     1      -9.698   2.968  71.106  1.00  0.00    -0.157 OA 
BRANCH  21  23
HETATM   23  C   UNL     1      -9.605   4.089  69.048  1.00  0.00    -0.223 A  
HETATM   24  C   UNL     1     -10.250   5.193  68.474  1.00  0.00    -0.182 A  
HETATM   25  C   UNL     1     -10.396   5.275  67.090  1.00  0.00    -0.268 A  
HETATM   26  C   UNL     1      -9.888   4.263  66.286  1.00  0.00    -0.220 A  
HETATM   27  C   UNL     1      -9.233   3.169  66.841  1.00  0.00    -0.187 A  
HETATM   28  F   UNL     1     -10.030   4.341  64.957  1.00  0.00    -0.167 F  
HETATM   29  C   UNL     1      -9.089   3.077  68.227  1.00  0.00    -0.215 A  
ENDBRANCH  21  23
ENDBRANCH  20  21
ENDBRANCH  19  20
ENDBRANCH  18  19
ENDBRANCH  15  18
ENDBRANCH  11  12
TORSDOF 6
ENDMDL
MODEL       86
REMARK 921   NORMALIZED FREE ENERGY PREDICTED BY IDOCK:   -5.65 KCAL/MOL
REMARK 922        TOTAL FREE ENERGY PREDICTED BY IDOCK:   -8.94 KCAL/MOL
REMARK 923 INTER-LIGAND FREE ENERGY PREDICTED BY IDOCK:   -7.59 KCAL/MOL
REMARK 924 INTRA-LIGAND FREE ENERGY PREDICTED BY IDOCK:   -1.35 KCAL/MOL
REMARK 927      BINDING AFFINITY PREDICTED BY RF-SCORE:    0.00 PKD
ROOT
HETATM    1  O   UNL     1      -5.685  12.470  66.736  1.00  0.00    -0.473 OA 
HETATM    2  C   UNL     1      -6.698  11.634  66.782  1.00  0.00    -0.087 A  
HETATM    3  H   UNL     1      -5.773  13.384  66.977  1.00  0.00     0.000 HD 
HETATM    4  N   UNL     1      -6.576  10.379  66.451  1.00  0.00    -0.091 NA 
HETATM    5  C   UNL     1      -7.843   9.872  66.584  1.00  0.00    -0.110 A  
HETATM    6  C   UNL     1      -8.309   8.581  66.300  1.00  0.00    -0.118 A  
HETATM    7  C   UNL     1      -9.663   8.294  66.507  1.00  0.00    -0.323 A  
HETATM    8  C   UNL     1     -10.529   9.261  67.013  1.00  0.00    -0.303 A  
HETATM    9  C   UNL     1     -10.084  10.554  67.310  1.00  0.00    -0.242 A  
HETATM   10  C   UNL     1      -8.738  10.839  67.052  1.00  0.00    -0.136 A  
HETATM   11  N   UNL     1      -7.981  11.983  67.104  1.00  0.00    -0.172 NA 
ENDROOT
BRANCH  11  12
HETATM   12  C   UNL     1      -8.422  13.354  67.240  1.00  0.00    -0.200 C  
HETATM   13  C   UNL     1      -8.757  13.784  68.665  1.00  0.00    -0.051 C  
HETATM   14  C   UNL     1      -8.919  15.305  68.651  1.00  0.00    -0.193 C  
HETATM   15  N   UNL     1      -9.953  15.777  67.711  1.00  0.00    -0.226 NA 
HETATM   16  C   UNL     1      -9.743  15.260  66.350  1.00  0.00    -0.285 C  
HETATM   17  C   UNL     1      -9.565  13.745  66.297  1.00  0.00    -0.265 C  
BRANCH  15  18
HETATM   18  C   UNL     1     -11.327  15.548  68.180  1.00  0.00    -0.345 C  
BRANCH  18  19
HETATM   19  C   UNL     1     -11.487  15.781  69.685  1.00  0.00    -0.348 C  
BRANCH  19  20
HETATM   20  C   UNL     1     -12.810  15.225  70.214  1.00  0.00    -0.298 C  
BRANCH  20  21
HETATM   21  C   UNL     1     -12.601  14.356  71.434  1.00  0.00    -0.354 C  
HETATM   22  O   UNL     1     -12.390  14.815  72.554  1.00  0.00    -0.336 OA 
BRANCH  21  23
HETATM   23  C   UNL     1     -12.616  12.880  71.247  1.00  0.00    -0.352 A  
HETATM   24  C   UNL     1     -13.340  12.110  72.168  1.00  0.00    -0.438 A  
HETATM   25  C   UNL     1     -13.361  10.721  72.053  1.00  0.00    -0.403 A  
HETATM   26  C   UNL     1     -12.671  10.108  71.014  1.00  0.00    -0.386 A  
HETATM   27  C   UNL     1     -11.961  10.861  70.085  1.00  0.00    -0.435 A  
HETATM   28  F   UNL     1     -12.690   8.775  70.905  1.00  0.00    -0.241 F  
HETATM   29  C   UNL     1     -11.929  12.253  70.199  1.00  0.00    -0.377 A  
ENDBRANCH  21  23
ENDBRANCH  20  21
ENDBRANCH  19  20
ENDBRANCH  18  19
ENDBRANCH  15  18
ENDBRANCH  11  12
TORSDOF 6
ENDMDL
MODEL       87
REMARK 921   NORMALIZED FREE ENERGY PREDICTED BY IDOCK:   -5.62 KCAL/MOL
REMARK 922        TOTAL FREE ENERGY PREDICTED BY IDOCK:   -8.90 KCAL/MOL
REMARK 923 INTER-LIGAND FREE ENERGY PREDICTED BY IDOCK:   -7.89 KCAL/MOL
REMARK 924 INTRA-LIGAND FREE ENERGY PREDICTED BY IDOCK:   -1.01 KCAL/MOL
REMARK 927      BINDING AFFINITY PREDICTED BY RF-SCORE:    0.00 PKD
ROOT
HETATM    1  O   UNL     1     -12.618   8.249  70.836  1.00  0.00    -0.503 OA 
HETATM    2  C   UNL     1     -11.948   7.163  71.149  1.00  0.00    -0.342 A  
HETATM    3  H   UNL     1     -12.448   8.734  70.038  1.00  0.00     0.000 HD 
HETATM    4  N   UNL     1     -12.181   6.496  72.245  1.00  0.00    -0.221 NA 
HETATM    5  C   UNL     1     -11.258   5.481  72.224  1.00  0.00    -0.220 A  
HETATM    6  C   UNL     1     -11.012   4.496  73.189  1.00  0.00    -0.346 A  
HETATM    7  C   UNL     1      -9.999   3.560  72.952  1.00  0.00    -0.212 A  
HETATM    8  C   UNL     1      -9.266   3.587  71.767  1.00  0.00    -0.183 A  
HETATM    9  C   UNL     1      -9.499   4.558  70.788  1.00  0.00    -0.238 A  
HETATM   10  C   UNL     1     -10.482   5.516  71.062  1.00  0.00    -0.244 A  
HETATM   11  N   UNL     1     -10.907   6.653  70.421  1.00  0.00    -0.248 NA 
ENDROOT
BRANCH  11  12
HETATM   12  C   UNL     1     -10.284   7.360  69.323  1.00  0.00    -0.199 C  
HETATM   13  C   UNL     1     -10.029   8.843  69.575  1.00  0.00    -0.191 C  
HETATM   14  C   UNL     1      -9.126   9.342  68.445  1.00  0.00    -0.128 C  
HETATM   15  N   UNL     1      -9.696   9.136  67.101  1.00  0.00    -0.170 NA 
HETATM   16  C   UNL     1     -10.093   7.738  66.876  1.00  0.00    -0.286 C  
HETATM   17  C   UNL     1     -10.990   7.176  67.975  1.00  0.00    -0.127 C  
BRANCH  15  18
HETATM   18  C   UNL     1     -10.778  10.074  66.769  1.00  0.00    -0.101 C  
BRANCH  18  19
HETATM   19  C   UNL     1     -10.259  11.437  66.300  1.00  0.00    -0.274 C  
BRANCH  19  20
HETATM   20  C   UNL     1     -11.072  12.592  66.886  1.00  0.00    -0.315 C  
BRANCH  20  21
HETATM   21  C   UNL     1     -10.525  13.036  68.225  1.00  0.00    -0.250 C  
HETATM   22  O   UNL     1      -9.370  13.427  68.379  1.00  0.00    -0.206 OA 
BRANCH  21  23
HETATM   23  C   UNL     1     -11.425  12.952  69.405  1.00  0.00    -0.323 A  
HETATM   24  C   UNL     1     -11.806  14.150  70.026  1.00  0.00    -0.388 A  
HETATM   25  C   UNL     1     -12.625  14.123  71.154  1.00  0.00    -0.439 A  
HETATM   26  C   UNL     1     -13.071  12.903  71.648  1.00  0.00    -0.335 A  
HETATM   27  C   UNL     1     -12.714  11.708  71.033  1.00  0.00    -0.395 A  
HETATM   28  F   UNL     1     -13.856  12.878  72.731  1.00  0.00    -0.582 F  
HETATM   29  C   UNL     1     -11.887  11.727  69.908  1.00  0.00    -0.423 A  
ENDBRANCH  21  23
ENDBRANCH  20  21
ENDBRANCH  19  20
ENDBRANCH  18  19
ENDBRANCH  15  18
ENDBRANCH  11  12
TORSDOF 6
ENDMDL
MODEL       88
REMARK 921   NORMALIZED FREE ENERGY PREDICTED BY IDOCK:   -5.62 KCAL/MOL
REMARK 922        TOTAL FREE ENERGY PREDICTED BY IDOCK:   -8.90 KCAL/MOL
REMARK 923 INTER-LIGAND FREE ENERGY PREDICTED BY IDOCK:   -7.82 KCAL/MOL
REMARK 924 INTRA-LIGAND FREE ENERGY PREDICTED BY IDOCK:   -1.07 KCAL/MOL
REMARK 927      BINDING AFFINITY PREDICTED BY RF-SCORE:    0.00 PKD
ROOT
HETATM    1  O   UNL     1     -12.600  13.270  63.786  1.00  0.00    -0.687 OA 
HETATM    2  C   UNL     1     -11.597  12.472  64.073  1.00  0.00    -0.413 A  
HETATM    3  H   UNL     1     -12.926  13.914  64.403  1.00  0.00     0.000 HD 
HETATM    4  N   UNL     1     -11.150  11.588  63.226  1.00  0.00    -0.279 NA 
HETATM    5  C   UNL     1     -10.154  10.938  63.910  1.00  0.00    -0.361 A  
HETATM    6  C   UNL     1      -9.372   9.850  63.503  1.00  0.00    -0.231 A  
HETATM    7  C   UNL     1      -8.413   9.343  64.388  1.00  0.00    -0.196 A  
HETATM    8  C   UNL     1      -8.218   9.923  65.639  1.00  0.00    -0.138 A  
HETATM    9  C   UNL     1      -8.984  11.014  66.063  1.00  0.00    -0.209 A  
HETATM   10  C   UNL     1      -9.971  11.479  65.186  1.00  0.00    -0.262 A  
HETATM   11  N   UNL     1     -10.964  12.422  65.286  1.00  0.00    -0.290 NA 
ENDROOT
BRANCH  11  12
HETATM   12  C   UNL     1     -11.451  13.102  66.465  1.00  0.00    -0.338 C  
HETATM   13  C   UNL     1     -10.821  14.467  66.727  1.00  0.00    -0.301 C  
HETATM   14  C   UNL     1     -11.648  15.142  67.823  1.00  0.00    -0.289 C  
HETATM   15  N   UNL     1     -11.724  14.359  69.070  1.00  0.00    -0.292 NA 
HETATM   16  C   UNL     1     -12.191  12.984  68.833  1.00  0.00    -0.035 C  
HETATM   17  C   UNL     1     -11.409  12.257  67.743  1.00  0.00    -0.362 C  
BRANCH  15  18
HETATM   18  C   UNL     1     -10.487  14.391  69.863  1.00  0.00     0.245 C  
BRANCH  18  19
HETATM   19  C   UNL     1      -9.788  15.753  69.821  1.00  0.00    -0.218 C  
BRANCH  19  20
HETATM   20  C   UNL     1      -8.317  15.630  69.424  1.00  0.00    -0.238 C  
BRANCH  20  21
HETATM   21  C   UNL     1      -7.776  16.933  68.879  1.00  0.00    -0.237 C  
HETATM   22  O   UNL     1      -6.643  17.342  69.123  1.00  0.00    -0.218 OA 
BRANCH  21  23
HETATM   23  C   UNL     1      -8.682  17.766  68.044  1.00  0.00    -0.251 A  
HETATM   24  C   UNL     1      -9.314  18.859  68.653  1.00  0.00    -0.415 A  
HETATM   25  C   UNL     1     -10.196  19.653  67.921  1.00  0.00    -0.574 A  
HETATM   26  C   UNL     1     -10.431  19.362  66.583  1.00  0.00    -0.469 A  
HETATM   27  C   UNL     1      -9.799  18.290  65.962  1.00  0.00    -0.164 A  
HETATM   28  F   UNL     1     -11.278  20.123  65.881  1.00  0.00    -0.320 F  
HETATM   29  C   UNL     1      -8.920  17.485  66.692  1.00  0.00    -0.283 A  
ENDBRANCH  21  23
ENDBRANCH  20  21
ENDBRANCH  19  20
ENDBRANCH  18  19
ENDBRANCH  15  18
ENDBRANCH  11  12
TORSDOF 6
ENDMDL
MODEL       89
REMARK 921   NORMALIZED FREE ENERGY PREDICTED BY IDOCK:   -5.60 KCAL/MOL
REMARK 922        TOTAL FREE ENERGY PREDICTED BY IDOCK:   -8.88 KCAL/MOL
REMARK 923 INTER-LIGAND FREE ENERGY PREDICTED BY IDOCK:   -7.68 KCAL/MOL
REMARK 924 INTRA-LIGAND FREE ENERGY PREDICTED BY IDOCK:   -1.19 KCAL/MOL
REMARK 927      BINDING AFFINITY PREDICTED BY RF-SCORE:    0.00 PKD
ROOT
HETATM    1  O   UNL     1     -11.926  12.239  69.422  1.00  0.00    -0.297 OA 
HETATM    2  C   UNL     1     -11.296  13.328  69.042  1.00  0.00    -0.285 A  
HETATM    3  H   UNL     1     -11.665  11.375  69.124  1.00  0.00     0.000 HD 
HETATM    4  N   UNL     1     -11.654  14.513  69.450  1.00  0.00    -0.285 NA 
HETATM    5  C   UNL     1     -10.797  15.366  68.802  1.00  0.00    -0.252 A  
HETATM    6  C   UNL     1     -10.767  16.766  68.821  1.00  0.00    -0.341 A  
HETATM    7  C   UNL     1      -9.796  17.429  68.062  1.00  0.00    -0.288 A  
HETATM    8  C   UNL     1      -8.858  16.713  67.322  1.00  0.00    -0.206 A  
HETATM    9  C   UNL     1      -8.866  15.314  67.293  1.00  0.00    -0.212 A  
HETATM   10  C   UNL     1      -9.873  14.668  68.019  1.00  0.00    -0.216 A  
HETATM   11  N   UNL     1     -10.266  13.358  68.142  1.00  0.00    -0.240 NA 
ENDROOT
BRANCH  11  12
HETATM   12  C   UNL     1      -9.872  12.217  67.346  1.00  0.00    -0.189 C  
HETATM   13  C   UNL     1     -10.955  11.678  66.415  1.00  0.00    -0.345 C  
HETATM   14  C   UNL     1     -10.281  10.682  65.469  1.00  0.00    -0.262 C  
HETATM   15  N   UNL     1      -9.600   9.576  66.167  1.00  0.00    -0.218 NA 
HETATM   16  C   UNL     1      -8.651  10.060  67.181  1.00  0.00    -0.128 C  
HETATM   17  C   UNL     1      -9.262  11.066  68.153  1.00  0.00    -0.165 C  
BRANCH  15  18
HETATM   18  C   UNL     1     -10.520   8.567  66.712  1.00  0.00    -0.238 C  
BRANCH  18  19
HETATM   19  C   UNL     1      -9.856   7.202  66.909  1.00  0.00    -0.271 C  
BRANCH  19  20
HETATM   20  C   UNL     1     -10.439   6.447  68.104  1.00  0.00    -0.267 C  
BRANCH  20  21
HETATM   21  C   UNL     1      -9.964   7.030  69.417  1.00  0.00    -0.162 C  
HETATM   22  O   UNL     1      -8.782   7.050  69.751  1.00  0.00    -0.140 OA 
BRANCH  21  23
HETATM   23  C   UNL     1     -10.991   7.563  70.352  1.00  0.00    -0.264 A  
HETATM   24  C   UNL     1     -10.893   8.908  70.734  1.00  0.00    -0.294 A  
HETATM   25  C   UNL     1     -11.814   9.448  71.631  1.00  0.00    -0.464 A  
HETATM   26  C   UNL     1     -12.834   8.649  72.131  1.00  0.00    -0.391 A  
HETATM   27  C   UNL     1     -12.951   7.317  71.748  1.00  0.00    -0.368 A  
HETATM   28  F   UNL     1     -13.716   9.167  72.993  1.00  0.00    -0.456 F  
HETATM   29  C   UNL     1     -12.028   6.767  70.856  1.00  0.00    -0.437 A  
ENDBRANCH  21  23
ENDBRANCH  20  21
ENDBRANCH  19  20
ENDBRANCH  18  19
ENDBRANCH  15  18
ENDBRANCH  11  12
TORSDOF 6
ENDMDL
MODEL       90
REMARK 921   NORMALIZED FREE ENERGY PREDICTED BY IDOCK:   -5.56 KCAL/MOL
REMARK 922        TOTAL FREE ENERGY PREDICTED BY IDOCK:   -8.81 KCAL/MOL
REMARK 923 INTER-LIGAND FREE ENERGY PREDICTED BY IDOCK:   -7.60 KCAL/MOL
REMARK 924 INTRA-LIGAND FREE ENERGY PREDICTED BY IDOCK:   -1.22 KCAL/MOL
REMARK 927      BINDING AFFINITY PREDICTED BY RF-SCORE:    0.00 PKD
ROOT
HETATM    1  O   UNL     1     -10.374   5.634  70.763  1.00  0.00    -0.215 OA 
HETATM    2  C   UNL     1     -10.993   6.771  70.985  1.00  0.00    -0.255 A  
HETATM    3  H   UNL     1      -9.661   5.561  70.139  1.00  0.00     0.000 HD 
HETATM    4  N   UNL     1     -11.971   6.871  71.842  1.00  0.00    -0.313 NA 
HETATM    5  C   UNL     1     -12.371   8.180  71.745  1.00  0.00    -0.321 A  
HETATM    6  C   UNL     1     -13.429   8.827  72.395  1.00  0.00    -0.446 A  
HETATM    7  C   UNL     1     -13.655  10.182  72.127  1.00  0.00    -0.295 A  
HETATM    8  C   UNL     1     -12.830  10.884  71.252  1.00  0.00    -0.536 A  
HETATM    9  C   UNL     1     -11.764  10.259  70.595  1.00  0.00    -0.438 A  
HETATM   10  C   UNL     1     -11.581   8.892  70.838  1.00  0.00    -0.283 A  
HETATM   11  N   UNL     1     -10.745   7.937  70.314  1.00  0.00    -0.233 NA 
ENDROOT
BRANCH  11  12
HETATM   12  C   UNL     1      -9.907   8.014  69.138  1.00  0.00    -0.178 C  
HETATM   13  C   UNL     1      -8.677   8.906  69.282  1.00  0.00    -0.138 C  
HETATM   14  C   UNL     1      -7.783   8.640  68.070  1.00  0.00    -0.102 C  
HETATM   15  N   UNL     1      -8.453   8.886  66.779  1.00  0.00    -0.114 NA 
HETATM   16  C   UNL     1      -9.723   8.153  66.665  1.00  0.00    -0.248 C  
HETATM   17  C   UNL     1     -10.659   8.371  67.851  1.00  0.00    -0.218 C  
BRANCH  15  18
HETATM   18  C   UNL     1      -8.610  10.312  66.459  1.00  0.00    -0.132 C  
BRANCH  18  19
HETATM   19  C   UNL     1      -7.437  11.165  66.950  1.00  0.00    -0.138 C  
BRANCH  19  20
HETATM   20  C   UNL     1      -7.845  12.100  68.088  1.00  0.00    -0.147 C  
BRANCH  20  21
HETATM   21  C   UNL     1      -8.182  13.484  67.579  1.00  0.00    -0.183 C  
HETATM   22  O   UNL     1      -7.386  14.420  67.606  1.00  0.00    -0.151 OA 
BRANCH  21  23
HETATM   23  C   UNL     1      -9.558  13.718  67.063  1.00  0.00    -0.251 A  
HETATM   24  C   UNL     1     -10.618  13.062  67.703  1.00  0.00    -0.232 A  
HETATM   25  C   UNL     1     -11.923  13.225  67.238  1.00  0.00    -0.393 A  
HETATM   26  C   UNL     1     -12.164  14.051  66.147  1.00  0.00    -0.465 A  
HETATM   27  C   UNL     1     -11.123  14.720  65.513  1.00  0.00    -0.346 A  
HETATM   28  F   UNL     1     -13.415  14.206  65.701  1.00  0.00    -0.483 F  
HETATM   29  C   UNL     1      -9.812  14.555  65.968  1.00  0.00    -0.342 A  
ENDBRANCH  21  23
ENDBRANCH  20  21
ENDBRANCH  19  20
ENDBRANCH  18  19
ENDBRANCH  15  18
ENDBRANCH  11  12
TORSDOF 6
ENDMDL
MODEL       91
REMARK 921   NORMALIZED FREE ENERGY PREDICTED BY IDOCK:   -5.55 KCAL/MOL
REMARK 922        TOTAL FREE ENERGY PREDICTED BY IDOCK:   -8.81 KCAL/MOL
REMARK 923 INTER-LIGAND FREE ENERGY PREDICTED BY IDOCK:   -8.21 KCAL/MOL
REMARK 924 INTRA-LIGAND FREE ENERGY PREDICTED BY IDOCK:   -0.59 KCAL/MOL
REMARK 927      BINDING AFFINITY PREDICTED BY RF-SCORE:    0.00 PKD
ROOT
HETATM    1  O   UNL     1     -11.166   7.298  67.510  1.00  0.00    -0.548 OA 
HETATM    2  C   UNL     1     -10.629   6.207  68.007  1.00  0.00    -0.268 A  
HETATM    3  H   UNL     1     -11.376   8.049  68.052  1.00  0.00     0.000 HD 
HETATM    4  N   UNL     1     -10.341   5.176  67.264  1.00  0.00    -0.191 NA 
HETATM    5  C   UNL     1      -9.855   4.248  68.149  1.00  0.00    -0.041 A  
HETATM    6  C   UNL     1      -9.449   2.929  67.908  1.00  0.00    -0.203 A  
HETATM    7  C   UNL     1      -8.993   2.158  68.983  1.00  0.00    -0.163 A  
HETATM    8  C   UNL     1      -8.916   2.696  70.266  1.00  0.00    -0.164 A  
HETATM    9  C   UNL     1      -9.311   4.012  70.528  1.00  0.00    -0.220 A  
HETATM   10  C   UNL     1      -9.809   4.754  69.451  1.00  0.00    -0.212 A  
HETATM   11  N   UNL     1     -10.380   5.998  69.337  1.00  0.00    -0.211 NA 
ENDROOT
BRANCH  11  12
HETATM   12  C   UNL     1     -10.862   6.873  70.383  1.00  0.00    -0.261 C  
HETATM   13  C   UNL     1     -12.371   6.842  70.602  1.00  0.00    -0.231 C  
HETATM   14  C   UNL     1     -12.652   7.592  71.906  1.00  0.00    -0.303 C  
HETATM   15  N   UNL     1     -12.158   8.981  71.904  1.00  0.00    -0.359 NA 
HETATM   16  C   UNL     1     -10.732   9.062  71.549  1.00  0.00    -0.351 C  
HETATM   17  C   UNL     1     -10.384   8.324  70.259  1.00  0.00    -0.211 C  
BRANCH  15  18
HETATM   18  C   UNL     1     -12.976   9.898  71.099  1.00  0.00    -0.369 C  
BRANCH  18  19
HETATM   19  C   UNL     1     -12.401  11.316  71.044  1.00  0.00    -0.472 C  
BRANCH  19  20
HETATM   20  C   UNL     1     -12.052  11.739  69.616  1.00  0.00    -0.323 C  
BRANCH  20  21
HETATM   21  C   UNL     1     -12.048  13.244  69.465  1.00  0.00    -0.258 C  
HETATM   22  O   UNL     1     -12.349  14.009  70.378  1.00  0.00    -0.321 OA 
BRANCH  21  23
HETATM   23  C   UNL     1     -11.701  13.807  68.133  1.00  0.00    -0.392 A  
HETATM   24  C   UNL     1     -11.070  15.058  68.095  1.00  0.00    -0.296 A  
HETATM   25  C   UNL     1     -10.750  15.642  66.870  1.00  0.00    -0.307 A  
HETATM   26  C   UNL     1     -11.049  14.971  65.691  1.00  0.00    -0.349 A  
HETATM   27  C   UNL     1     -11.661  13.722  65.715  1.00  0.00    -0.365 A  
HETATM   28  F   UNL     1     -10.744  15.532  64.516  1.00  0.00    -0.405 F  
HETATM   29  C   UNL     1     -11.991  13.134  66.938  1.00  0.00    -0.421 A  
ENDBRANCH  21  23
ENDBRANCH  20  21
ENDBRANCH  19  20
ENDBRANCH  18  19
ENDBRANCH  15  18
ENDBRANCH  11  12
TORSDOF 6
ENDMDL
MODEL       92
REMARK 921   NORMALIZED FREE ENERGY PREDICTED BY IDOCK:   -5.55 KCAL/MOL
REMARK 922        TOTAL FREE ENERGY PREDICTED BY IDOCK:   -8.80 KCAL/MOL
REMARK 923 INTER-LIGAND FREE ENERGY PREDICTED BY IDOCK:   -8.00 KCAL/MOL
REMARK 924 INTRA-LIGAND FREE ENERGY PREDICTED BY IDOCK:   -0.80 KCAL/MOL
REMARK 927      BINDING AFFINITY PREDICTED BY RF-SCORE:    0.00 PKD
ROOT
HETATM    1  O   UNL     1     -12.588  13.702  71.602  1.00  0.00    -0.321 OA 
HETATM    2  C   UNL     1     -12.288  13.338  70.376  1.00  0.00    -0.295 A  
HETATM    3  H   UNL     1     -12.519  13.104  72.337  1.00  0.00     0.000 HD 
HETATM    4  N   UNL     1     -12.381  14.158  69.367  1.00  0.00    -0.284 NA 
HETATM    5  C   UNL     1     -12.034  13.396  68.280  1.00  0.00    -0.317 A  
HETATM    6  C   UNL     1     -12.021  13.750  66.925  1.00  0.00    -0.460 A  
HETATM    7  C   UNL     1     -11.636  12.790  65.982  1.00  0.00    -0.432 A  
HETATM    8  C   UNL     1     -11.246  11.514  66.382  1.00  0.00    -0.307 A  
HETATM    9  C   UNL     1     -11.247  11.140  67.730  1.00  0.00    -0.359 A  
HETATM   10  C   UNL     1     -11.680  12.097  68.656  1.00  0.00    -0.330 A  
HETATM   11  N   UNL     1     -11.920  12.072  70.007  1.00  0.00    -0.339 NA 
ENDROOT
BRANCH  11  12
HETATM   12  C   UNL     1     -12.009  10.929  70.890  1.00  0.00    -0.311 C  
HETATM   13  C   UNL     1     -10.923   9.877  70.691  1.00  0.00    -0.405 C  
HETATM   14  C   UNL     1     -11.008   8.912  71.875  1.00  0.00    -0.369 C  
HETATM   15  N   UNL     1     -12.329   8.272  72.019  1.00  0.00    -0.330 NA 
HETATM   16  C   UNL     1     -13.420   9.258  72.065  1.00  0.00    -0.451 C  
HETATM   17  C   UNL     1     -13.386  10.257  70.912  1.00  0.00    -0.242 C  
BRANCH  15  18
HETATM   18  C   UNL     1     -12.585   7.216  71.028  1.00  0.00    -0.290 C  
BRANCH  18  19
HETATM   19  C   UNL     1     -11.373   6.307  70.804  1.00  0.00    -0.397 C  
BRANCH  19  20
HETATM   20  C   UNL     1     -11.091   6.085  69.317  1.00  0.00    -0.424 C  
BRANCH  20  21
HETATM   21  C   UNL     1      -9.747   5.425  69.098  1.00  0.00    -0.159 C  
HETATM   22  O   UNL     1      -8.909   5.302  69.988  1.00  0.00    -0.116 OA 
BRANCH  21  23
HETATM   23  C   UNL     1      -9.425   4.945  67.727  1.00  0.00    -0.168 A  
HETATM   24  C   UNL     1      -8.128   4.470  67.487  1.00  0.00    -0.100 A  
HETATM   25  C   UNL     1      -7.768   4.036  66.212  1.00  0.00    -0.090 A  
HETATM   26  C   UNL     1      -8.706   4.064  65.188  1.00  0.00    -0.120 A  
HETATM   27  C   UNL     1     -10.001   4.518  65.416  1.00  0.00    -0.207 A  
HETATM   28  F   UNL     1      -8.360   3.649  63.964  1.00  0.00    -0.088 F  
HETATM   29  C   UNL     1     -10.367   4.962  66.689  1.00  0.00    -0.285 A  
ENDBRANCH  21  23
ENDBRANCH  20  21
ENDBRANCH  19  20
ENDBRANCH  18  19
ENDBRANCH  15  18
ENDBRANCH  11  12
TORSDOF 6
ENDMDL
MODEL       93
REMARK 921   NORMALIZED FREE ENERGY PREDICTED BY IDOCK:   -5.54 KCAL/MOL
REMARK 922        TOTAL FREE ENERGY PREDICTED BY IDOCK:   -8.79 KCAL/MOL
REMARK 923 INTER-LIGAND FREE ENERGY PREDICTED BY IDOCK:   -7.09 KCAL/MOL
REMARK 924 INTRA-LIGAND FREE ENERGY PREDICTED BY IDOCK:   -1.70 KCAL/MOL
REMARK 927      BINDING AFFINITY PREDICTED BY RF-SCORE:    0.00 PKD
ROOT
HETATM    1  O   UNL     1     -10.459   4.828  71.486  1.00  0.00    -0.167 OA 
HETATM    2  C   UNL     1     -10.915   6.059  71.438  1.00  0.00    -0.276 A  
HETATM    3  H   UNL     1      -9.849   4.491  70.841  1.00  0.00     0.000 HD 
HETATM    4  N   UNL     1     -11.752   6.523  72.323  1.00  0.00    -0.295 NA 
HETATM    5  C   UNL     1     -12.016   7.801  71.900  1.00  0.00    -0.301 A  
HETATM    6  C   UNL     1     -12.901   8.743  72.443  1.00  0.00    -0.434 A  
HETATM    7  C   UNL     1     -13.012   9.994  71.826  1.00  0.00    -0.560 A  
HETATM    8  C   UNL     1     -12.240  10.312  70.711  1.00  0.00    -0.447 A  
HETATM    9  C   UNL     1     -11.346   9.389  70.157  1.00  0.00    -0.220 A  
HETATM   10  C   UNL     1     -11.282   8.126  70.756  1.00  0.00    -0.261 A  
HETATM   11  N   UNL     1     -10.633   6.957  70.443  1.00  0.00    -0.213 NA 
ENDROOT
BRANCH  11  12
HETATM   12  C   UNL     1      -9.957   6.596  69.217  1.00  0.00    -0.158 C  
HETATM   13  C   UNL     1      -8.769   7.483  68.853  1.00  0.00    -0.132 C  
HETATM   14  C   UNL     1      -8.024   6.790  67.711  1.00  0.00    -0.113 C  
HETATM   15  N   UNL     1      -8.865   6.540  66.526  1.00  0.00    -0.133 NA 
HETATM   16  C   UNL     1     -10.098   5.812  66.864  1.00  0.00    -0.192 C  
HETATM   17  C   UNL     1     -10.885   6.449  68.006  1.00  0.00    -0.396 C  
BRANCH  15  18
HETATM   18  C   UNL     1      -9.140   7.746  65.731  1.00  0.00    -0.011 C  
BRANCH  18  19
HETATM   19  C   UNL     1      -7.864   8.438  65.242  1.00  0.00    -0.111 C  
BRANCH  19  20
HETATM   20  C   UNL     1      -7.840   9.922  65.612  1.00  0.00    -0.127 C  
BRANCH  20  21
HETATM   21  C   UNL     1      -9.093  10.632  65.148  1.00  0.00    -0.201 C  
HETATM   22  O   UNL     1      -9.492  10.596  63.987  1.00  0.00    -0.235 OA 
BRANCH  21  23
HETATM   23  C   UNL     1      -9.844  11.439  66.147  1.00  0.00    -0.255 A  
HETATM   24  C   UNL     1     -11.084  11.967  65.764  1.00  0.00    -0.371 A  
HETATM   25  C   UNL     1     -11.813  12.755  66.654  1.00  0.00    -0.462 A  
HETATM   26  C   UNL     1     -11.308  13.000  67.925  1.00  0.00    -0.288 A  
HETATM   27  C   UNL     1     -10.086  12.470  68.323  1.00  0.00    -0.228 A  
HETATM   28  F   UNL     1     -12.007  13.757  68.778  1.00  0.00    -0.339 F  
HETATM   29  C   UNL     1      -9.347  11.686  67.434  1.00  0.00    -0.168 A  
ENDBRANCH  21  23
ENDBRANCH  20  21
ENDBRANCH  19  20
ENDBRANCH  18  19
ENDBRANCH  15  18
ENDBRANCH  11  12
TORSDOF 6
ENDMDL
MODEL       94
REMARK 921   NORMALIZED FREE ENERGY PREDICTED BY IDOCK:   -5.51 KCAL/MOL
REMARK 922        TOTAL FREE ENERGY PREDICTED BY IDOCK:   -8.75 KCAL/MOL
REMARK 923 INTER-LIGAND FREE ENERGY PREDICTED BY IDOCK:   -7.94 KCAL/MOL
REMARK 924 INTRA-LIGAND FREE ENERGY PREDICTED BY IDOCK:   -0.81 KCAL/MOL
REMARK 927      BINDING AFFINITY PREDICTED BY RF-SCORE:    0.00 PKD
ROOT
HETATM    1  O   UNL     1     -13.509  10.185  70.506  1.00  0.00    -0.527 OA 
HETATM    2  C   UNL     1     -12.235   9.874  70.591  1.00  0.00    -0.238 A  
HETATM    3  H   UNL     1     -13.851  10.723  69.802  1.00  0.00     0.000 HD 
HETATM    4  N   UNL     1     -11.766   9.136  71.558  1.00  0.00    -0.336 NA 
HETATM    5  C   UNL     1     -10.416   9.086  71.318  1.00  0.00    -0.311 A  
HETATM    6  C   UNL     1      -9.409   8.479  72.079  1.00  0.00    -0.353 A  
HETATM    7  C   UNL     1      -8.084   8.570  71.637  1.00  0.00    -0.195 A  
HETATM    8  C   UNL     1      -7.771   9.226  70.449  1.00  0.00    -0.150 A  
HETATM    9  C   UNL     1      -8.762   9.835  69.671  1.00  0.00    -0.211 A  
HETATM   10  C   UNL     1     -10.075   9.776  70.151  1.00  0.00    -0.265 A  
HETATM   11  N   UNL     1     -11.263  10.331  69.743  1.00  0.00    -0.265 NA 
ENDROOT
BRANCH  11  12
HETATM   12  C   UNL     1     -11.487  11.374  68.766  1.00  0.00    -0.290 C  
HETATM   13  C   UNL     1     -11.092  11.011  67.337  1.00  0.00    -0.370 C  
HETATM   14  C   UNL     1     -11.656  12.102  66.424  1.00  0.00    -0.364 C  
HETATM   15  N   UNL     1     -11.184  13.457  66.764  1.00  0.00    -0.302 NA 
HETATM   16  C   UNL     1     -11.417  13.786  68.179  1.00  0.00    -0.313 C  
HETATM   17  C   UNL     1     -10.883  12.731  69.144  1.00  0.00    -0.123 C  
BRANCH  15  18
HETATM   18  C   UNL     1      -9.795  13.717  66.360  1.00  0.00    -0.296 C  
BRANCH  18  19
HETATM   19  C   UNL     1      -9.275  15.069  66.856  1.00  0.00    -0.265 C  
BRANCH  19  20
HETATM   20  C   UNL     1      -7.982  14.926  67.660  1.00  0.00    -0.184 C  
BRANCH  20  21
HETATM   21  C   UNL     1      -7.364  16.272  67.964  1.00  0.00    -0.132 C  
HETATM   22  O   UNL     1      -6.256  16.399  68.482  1.00  0.00    -0.123 OA 
BRANCH  21  23
HETATM   23  C   UNL     1      -8.161  17.489  67.653  1.00  0.00    -0.211 A  
HETATM   24  C   UNL     1      -7.950  18.111  66.415  1.00  0.00    -0.297 A  
HETATM   25  C   UNL     1      -8.652  19.271  66.088  1.00  0.00    -0.267 A  
HETATM   26  C   UNL     1      -9.568  19.796  66.991  1.00  0.00    -0.369 A  
HETATM   27  C   UNL     1      -9.797  19.181  68.217  1.00  0.00    -0.462 A  
HETATM   28  F   UNL     1     -10.239  20.910  66.678  1.00  0.00    -0.432 F  
HETATM   29  C   UNL     1      -9.092  18.022  68.554  1.00  0.00    -0.293 A  
ENDBRANCH  21  23
ENDBRANCH  20  21
ENDBRANCH  19  20
ENDBRANCH  18  19
ENDBRANCH  15  18
ENDBRANCH  11  12
TORSDOF 6
ENDMDL
MODEL       95
REMARK 921   NORMALIZED FREE ENERGY PREDICTED BY IDOCK:   -5.51 KCAL/MOL
REMARK 922        TOTAL FREE ENERGY PREDICTED BY IDOCK:   -8.75 KCAL/MOL
REMARK 923 INTER-LIGAND FREE ENERGY PREDICTED BY IDOCK:   -7.63 KCAL/MOL
REMARK 924 INTRA-LIGAND FREE ENERGY PREDICTED BY IDOCK:   -1.11 KCAL/MOL
REMARK 927      BINDING AFFINITY PREDICTED BY RF-SCORE:    0.00 PKD
ROOT
HETATM    1  O   UNL     1     -11.355  14.653  71.057  1.00  0.00    -0.504 OA 
HETATM    2  C   UNL     1     -11.017  15.136  69.882  1.00  0.00    -0.274 A  
HETATM    3  H   UNL     1     -11.252  13.734  71.273  1.00  0.00     0.000 HD 
HETATM    4  N   UNL     1     -11.157  16.397  69.585  1.00  0.00    -0.330 NA 
HETATM    5  C   UNL     1     -10.746  16.483  68.279  1.00  0.00    -0.345 A  
HETATM    6  C   UNL     1     -10.743  17.597  67.429  1.00  0.00    -0.262 A  
HETATM    7  C   UNL     1     -10.282  17.440  66.116  1.00  0.00    -0.334 A  
HETATM    8  C   UNL     1      -9.808  16.209  65.669  1.00  0.00    -0.290 A  
HETATM    9  C   UNL     1      -9.797  15.086  66.503  1.00  0.00    -0.276 A  
HETATM   10  C   UNL     1     -10.306  15.247  67.796  1.00  0.00    -0.244 A  
HETATM   11  N   UNL     1     -10.558  14.385  68.834  1.00  0.00    -0.244 NA 
ENDROOT
BRANCH  11  12
HETATM   12  C   UNL     1     -10.576  12.938  68.825  1.00  0.00    -0.190 C  
HETATM   13  C   UNL     1      -9.243  12.280  68.480  1.00  0.00    -0.089 C  
HETATM   14  C   UNL     1      -9.382  10.790  68.796  1.00  0.00    -0.182 C  
HETATM   15  N   UNL     1     -10.486  10.134  68.071  1.00  0.00    -0.194 NA 
HETATM   16  C   UNL     1     -11.767  10.832  68.263  1.00  0.00    -0.127 C  
HETATM   17  C   UNL     1     -11.693  12.329  67.971  1.00  0.00    -0.417 C  
BRANCH  15  18
HETATM   18  C   UNL     1     -10.198   9.895  66.650  1.00  0.00    -0.226 C  
BRANCH  18  19
HETATM   19  C   UNL     1      -9.705   8.471  66.375  1.00  0.00    -0.328 C  
BRANCH  19  20
HETATM   20  C   UNL     1     -10.632   7.416  66.981  1.00  0.00    -0.414 C  
BRANCH  20  21
HETATM   21  C   UNL     1      -9.930   6.605  68.048  1.00  0.00    -0.142 C  
HETATM   22  O   UNL     1      -9.121   5.717  67.789  1.00  0.00    -0.109 OA 
BRANCH  21  23
HETATM   23  C   UNL     1     -10.275   6.879  69.469  1.00  0.00    -0.198 A  
HETATM   24  C   UNL     1     -11.525   6.449  69.934  1.00  0.00    -0.483 A  
HETATM   25  C   UNL     1     -11.907   6.708  71.250  1.00  0.00    -0.403 A  
HETATM   26  C   UNL     1     -11.037   7.382  72.097  1.00  0.00    -0.252 A  
HETATM   27  C   UNL     1      -9.788   7.802  71.652  1.00  0.00    -0.201 A  
HETATM   28  F   UNL     1     -11.405   7.632  73.358  1.00  0.00    -0.413 F  
HETATM   29  C   UNL     1      -9.401   7.552  70.333  1.00  0.00    -0.161 A  
ENDBRANCH  21  23
ENDBRANCH  20  21
ENDBRANCH  19  20
ENDBRANCH  18  19
ENDBRANCH  15  18
ENDBRANCH  11  12
TORSDOF 6
ENDMDL
MODEL       96
REMARK 921   NORMALIZED FREE ENERGY PREDICTED BY IDOCK:   -5.48 KCAL/MOL
REMARK 922        TOTAL FREE ENERGY PREDICTED BY IDOCK:   -8.71 KCAL/MOL
REMARK 923 INTER-LIGAND FREE ENERGY PREDICTED BY IDOCK:   -7.30 KCAL/MOL
REMARK 924 INTRA-LIGAND FREE ENERGY PREDICTED BY IDOCK:   -1.41 KCAL/MOL
REMARK 927      BINDING AFFINITY PREDICTED BY RF-SCORE:    0.00 PKD
ROOT
HETATM    1  O   UNL     1      -7.455   9.481  64.751  1.00  0.00    -0.104 OA 
HETATM    2  C   UNL     1      -8.203   8.705  65.503  1.00  0.00    -0.135 A  
HETATM    3  H   UNL     1      -7.397  10.418  64.893  1.00  0.00     0.000 HD 
HETATM    4  N   UNL     1      -8.283   7.419  65.308  1.00  0.00    -0.134 NA 
HETATM    5  C   UNL     1      -9.184   6.991  66.250  1.00  0.00    -0.126 A  
HETATM    6  C   UNL     1      -9.696   5.703  66.457  1.00  0.00    -0.181 A  
HETATM    7  C   UNL     1     -10.624   5.506  67.486  1.00  0.00    -0.252 A  
HETATM    8  C   UNL     1     -11.013   6.561  68.309  1.00  0.00    -0.362 A  
HETATM    9  C   UNL     1     -10.510   7.853  68.123  1.00  0.00    -0.227 A  
HETATM   10  C   UNL     1      -9.620   8.044  67.060  1.00  0.00    -0.196 A  
HETATM   11  N   UNL     1      -9.020   9.149  66.508  1.00  0.00    -0.142 NA 
ENDROOT
BRANCH  11  12
HETATM   12  C   UNL     1      -9.314  10.546  66.735  1.00  0.00    -0.157 C  
HETATM   13  C   UNL     1      -9.325  10.971  68.201  1.00  0.00    -0.173 C  
HETATM   14  C   UNL     1      -9.365  12.500  68.226  1.00  0.00    -0.193 C  
HETATM   15  N   UNL     1     -10.523  13.070  67.513  1.00  0.00    -0.226 NA 
HETATM   16  C   UNL     1     -10.629  12.566  66.135  1.00  0.00    -0.253 C  
HETATM   17  C   UNL     1     -10.587  11.043  66.040  1.00  0.00    -0.275 C  
BRANCH  15  18
HETATM   18  C   UNL     1     -11.791  12.939  68.245  1.00  0.00    -0.330 C  
BRANCH  18  19
HETATM   19  C   UNL     1     -11.624  12.252  69.604  1.00  0.00    -0.348 C  
BRANCH  19  20
HETATM   20  C   UNL     1     -12.249  10.857  69.621  1.00  0.00    -0.354 C  
BRANCH  20  21
HETATM   21  C   UNL     1     -12.502  10.377  71.034  1.00  0.00    -0.388 C  
HETATM   22  O   UNL     1     -13.102  11.048  71.870  1.00  0.00    -0.486 OA 
BRANCH  21  23
HETATM   23  C   UNL     1     -11.960   9.048  71.424  1.00  0.00    -0.400 A  
HETATM   24  C   UNL     1     -10.597   8.965  71.744  1.00  0.00    -0.432 A  
HETATM   25  C   UNL     1     -10.034   7.736  72.087  1.00  0.00    -0.249 A  
HETATM   26  C   UNL     1     -10.835   6.602  72.122  1.00  0.00    -0.229 A  
HETATM   27  C   UNL     1     -12.191   6.673  71.822  1.00  0.00    -0.400 A  
HETATM   28  F   UNL     1     -10.294   5.423  72.450  1.00  0.00    -0.212 F  
HETATM   29  C   UNL     1     -12.760   7.899  71.469  1.00  0.00    -0.342 A  
ENDBRANCH  21  23
ENDBRANCH  20  21
ENDBRANCH  19  20
ENDBRANCH  18  19
ENDBRANCH  15  18
ENDBRANCH  11  12
TORSDOF 6
ENDMDL
MODEL       97
REMARK 921   NORMALIZED FREE ENERGY PREDICTED BY IDOCK:   -5.48 KCAL/MOL
REMARK 922        TOTAL FREE ENERGY PREDICTED BY IDOCK:   -8.71 KCAL/MOL
REMARK 923 INTER-LIGAND FREE ENERGY PREDICTED BY IDOCK:   -7.66 KCAL/MOL
REMARK 924 INTRA-LIGAND FREE ENERGY PREDICTED BY IDOCK:   -1.04 KCAL/MOL
REMARK 927      BINDING AFFINITY PREDICTED BY RF-SCORE:    0.00 PKD
ROOT
HETATM    1  O   UNL     1     -13.229  12.067  64.062  1.00  0.00    -0.681 OA 
HETATM    2  C   UNL     1     -12.522  13.039  64.593  1.00  0.00    -0.400 A  
HETATM    3  H   UNL     1     -13.221  11.185  64.416  1.00  0.00     0.000 HD 
HETATM    4  N   UNL     1     -12.533  14.248  64.107  1.00  0.00    -0.712 NA 
HETATM    5  C   UNL     1     -11.646  14.936  64.896  1.00  0.00    -0.395 A  
HETATM    6  C   UNL     1     -11.219  16.266  64.787  1.00  0.00    -0.267 A  
HETATM    7  C   UNL     1     -10.287  16.751  65.712  1.00  0.00    -0.322 A  
HETATM    8  C   UNL     1      -9.812  15.939  66.740  1.00  0.00    -0.254 A  
HETATM    9  C   UNL     1     -10.229  14.610  66.870  1.00  0.00    -0.262 A  
HETATM   10  C   UNL     1     -11.124  14.126  65.909  1.00  0.00    -0.306 A  
HETATM   11  N   UNL     1     -11.658  12.889  65.644  1.00  0.00    -0.343 NA 
ENDROOT
BRANCH  11  12
HETATM   12  C   UNL     1     -11.265  11.602  66.173  1.00  0.00    -0.254 C  
HETATM   13  C   UNL     1     -11.467  11.436  67.677  1.00  0.00    -0.348 C  
HETATM   14  C   UNL     1     -11.274   9.953  67.996  1.00  0.00    -0.061 C  
HETATM   15  N   UNL     1      -9.957   9.429  67.590  1.00  0.00    -0.178 NA 
HETATM   16  C   UNL     1      -9.664   9.703  66.174  1.00  0.00    -0.252 C  
HETATM   17  C   UNL     1      -9.847  11.169  65.788  1.00  0.00    -0.279 C  
BRANCH  15  18
HETATM   18  C   UNL     1      -8.858   9.851  68.470  1.00  0.00    -0.122 C  
BRANCH  18  19
HETATM   19  C   UNL     1      -9.250   9.858  69.950  1.00  0.00    -0.245 C  
BRANCH  19  20
HETATM   20  C   UNL     1      -8.950   8.522  70.630  1.00  0.00    -0.182 C  
BRANCH  20  21
HETATM   21  C   UNL     1     -10.124   7.572  70.535  1.00  0.00    -0.188 C  
HETATM   22  O   UNL     1     -11.254   7.865  70.919  1.00  0.00    -0.262 OA 
BRANCH  21  23
HETATM   23  C   UNL     1      -9.874   6.212  69.987  1.00  0.00    -0.207 A  
HETATM   24  C   UNL     1     -10.178   5.984  68.638  1.00  0.00    -0.233 A  
HETATM   25  C   UNL     1      -9.990   4.718  68.084  1.00  0.00    -0.152 A  
HETATM   26  C   UNL     1      -9.487   3.692  68.874  1.00  0.00    -0.148 A  
HETATM   27  C   UNL     1      -9.167   3.909  70.210  1.00  0.00    -0.215 A  
HETATM   28  F   UNL     1      -9.308   2.477  68.343  1.00  0.00    -0.188 F  
HETATM   29  C   UNL     1      -9.360   5.172  70.773  1.00  0.00    -0.210 A  
ENDBRANCH  21  23
ENDBRANCH  20  21
ENDBRANCH  19  20
ENDBRANCH  18  19
ENDBRANCH  15  18
ENDBRANCH  11  12
TORSDOF 6
ENDMDL
MODEL       98
REMARK 921   NORMALIZED FREE ENERGY PREDICTED BY IDOCK:   -5.47 KCAL/MOL
REMARK 922        TOTAL FREE ENERGY PREDICTED BY IDOCK:   -8.70 KCAL/MOL
REMARK 923 INTER-LIGAND FREE ENERGY PREDICTED BY IDOCK:   -7.61 KCAL/MOL
REMARK 924 INTRA-LIGAND FREE ENERGY PREDICTED BY IDOCK:   -1.09 KCAL/MOL
REMARK 927      BINDING AFFINITY PREDICTED BY RF-SCORE:    0.00 PKD
ROOT
HETATM    1  O   UNL     1     -11.561   6.210  69.055  1.00  0.00    -0.421 OA 
HETATM    2  C   UNL     1     -10.799   6.478  70.091  1.00  0.00    -0.282 A  
HETATM    3  H   UNL     1     -12.040   6.887  68.591  1.00  0.00     0.000 HD 
HETATM    4  N   UNL     1     -10.142   5.550  70.727  1.00  0.00    -0.200 NA 
HETATM    5  C   UNL     1      -9.523   6.218  71.753  1.00  0.00    -0.150 A  
HETATM    6  C   UNL     1      -8.732   5.703  72.789  1.00  0.00    -0.119 A  
HETATM    7  C   UNL     1      -8.209   6.588  73.739  1.00  0.00    -0.113 A  
HETATM    8  C   UNL     1      -8.444   7.957  73.645  1.00  0.00    -0.299 A  
HETATM    9  C   UNL     1      -9.226   8.494  72.616  1.00  0.00    -0.269 A  
HETATM   10  C   UNL     1      -9.781   7.591  71.701  1.00  0.00    -0.161 A  
HETATM   11  N   UNL     1     -10.664   7.717  70.657  1.00  0.00    -0.227 NA 
ENDROOT
BRANCH  11  12
HETATM   12  C   UNL     1     -11.497   8.847  70.307  1.00  0.00    -0.105 C  
HETATM   13  C   UNL     1     -10.858   9.842  69.343  1.00  0.00    -0.265 C  
HETATM   14  C   UNL     1     -11.965  10.789  68.875  1.00  0.00    -0.139 C  
HETATM   15  N   UNL     1     -12.640  11.497  69.979  1.00  0.00    -0.091 NA 
HETATM   16  C   UNL     1     -13.141  10.572  71.007  1.00  0.00    -0.330 C  
HETATM   17  C   UNL     1     -12.084   9.592  71.511  1.00  0.00    -0.482 C  
BRANCH  15  18
HETATM   18  C   UNL     1     -11.838  12.582  70.561  1.00  0.00    -0.055 C  
BRANCH  18  19
HETATM   19  C   UNL     1     -12.126  13.943  69.920  1.00  0.00    -0.406 C  
BRANCH  19  20
HETATM   20  C   UNL     1     -10.867  14.573  69.323  1.00  0.00    -0.270 C  
BRANCH  20  21
HETATM   21  C   UNL     1     -11.121  15.112  67.932  1.00  0.00    -0.321 C  
HETATM   22  O   UNL     1     -11.229  16.312  67.689  1.00  0.00    -0.244 OA 
BRANCH  21  23
HETATM   23  C   UNL     1     -11.283  14.131  66.826  1.00  0.00    -0.330 A  
HETATM   24  C   UNL     1     -12.520  14.085  66.168  1.00  0.00    -0.467 A  
HETATM   25  C   UNL     1     -12.733  13.162  65.144  1.00  0.00    -0.468 A  
HETATM   26  C   UNL     1     -11.707  12.302  64.773  1.00  0.00    -0.358 A  
HETATM   27  C   UNL     1     -10.471  12.347  65.408  1.00  0.00    -0.306 A  
HETATM   28  F   UNL     1     -11.912  11.415  63.792  1.00  0.00    -0.441 F  
HETATM   29  C   UNL     1     -10.253  13.263  66.439  1.00  0.00    -0.292 A  
ENDBRANCH  21  23
ENDBRANCH  20  21
ENDBRANCH  19  20
ENDBRANCH  18  19
ENDBRANCH  15  18
ENDBRANCH  11  12
TORSDOF 6
ENDMDL
MODEL       99
REMARK 921   NORMALIZED FREE ENERGY PREDICTED BY IDOCK:   -5.45 KCAL/MOL
REMARK 922        TOTAL FREE ENERGY PREDICTED BY IDOCK:   -8.67 KCAL/MOL
REMARK 923 INTER-LIGAND FREE ENERGY PREDICTED BY IDOCK:   -7.97 KCAL/MOL
REMARK 924 INTRA-LIGAND FREE ENERGY PREDICTED BY IDOCK:   -0.70 KCAL/MOL
REMARK 927      BINDING AFFINITY PREDICTED BY RF-SCORE:    0.00 PKD
ROOT
HETATM    1  O   UNL     1      -7.457  10.607  63.537  1.00  0.00    -0.345 OA 
HETATM    2  C   UNL     1      -8.077   9.857  64.420  1.00  0.00    -0.157 A  
HETATM    3  H   UNL     1      -7.555  11.552  63.521  1.00  0.00     0.000 HD 
HETATM    4  N   UNL     1      -7.942   8.561  64.443  1.00  0.00    -0.140 NA 
HETATM    5  C   UNL     1      -8.771   8.154  65.457  1.00  0.00    -0.120 A  
HETATM    6  C   UNL     1      -9.067   6.853  65.884  1.00  0.00    -0.045 A  
HETATM    7  C   UNL     1      -9.963   6.681  66.946  1.00  0.00    -0.238 A  
HETATM    8  C   UNL     1     -10.530   7.780  67.587  1.00  0.00    -0.308 A  
HETATM    9  C   UNL     1     -10.244   9.088  67.181  1.00  0.00    -0.334 A  
HETATM   10  C   UNL     1      -9.384   9.241  66.087  1.00  0.00    -0.212 A  
HETATM   11  N   UNL     1      -8.967  10.321  65.349  1.00  0.00    -0.167 NA 
ENDROOT
BRANCH  11  12
HETATM   12  C   UNL     1      -9.489  11.670  65.345  1.00  0.00    -0.171 C  
HETATM   13  C   UNL     1      -9.376  12.408  66.676  1.00  0.00    -0.227 C  
HETATM   14  C   UNL     1      -9.706  13.877  66.406  1.00  0.00    -0.297 C  
HETATM   15  N   UNL     1     -11.040  14.082  65.812  1.00  0.00    -0.301 NA 
HETATM   16  C   UNL     1     -11.239  13.270  64.602  1.00  0.00    -0.348 C  
HETATM   17  C   UNL     1     -10.918  11.791  64.804  1.00  0.00    -0.360 C  
BRANCH  15  18
HETATM   18  C   UNL     1     -12.143  13.921  66.769  1.00  0.00    -0.439 C  
BRANCH  18  19
HETATM   19  C   UNL     1     -11.732  14.240  68.209  1.00  0.00    -0.377 C  
BRANCH  19  20
HETATM   20  C   UNL     1     -11.711  15.745  68.480  1.00  0.00    -0.328 C  
BRANCH  20  21
HETATM   21  C   UNL     1     -10.348  16.209  68.944  1.00  0.00    -0.250 C  
HETATM   22  O   UNL     1      -9.663  15.578  69.745  1.00  0.00    -0.287 OA 
BRANCH  21  23
HETATM   23  C   UNL     1      -9.845  17.510  68.428  1.00  0.00    -0.325 A  
HETATM   24  C   UNL     1      -8.483  17.799  68.594  1.00  0.00    -0.271 A  
HETATM   25  C   UNL     1      -7.969  19.018  68.154  1.00  0.00    -0.334 A  
HETATM   26  C   UNL     1      -8.812  19.936  67.540  1.00  0.00    -0.338 A  
HETATM   27  C   UNL     1     -10.161  19.657  67.356  1.00  0.00    -0.561 A  
HETATM   28  F   UNL     1      -8.318  21.106  67.120  1.00  0.00    -0.319 F  
HETATM   29  C   UNL     1     -10.685  18.441  67.801  1.00  0.00    -0.371 A  
ENDBRANCH  21  23
ENDBRANCH  20  21
ENDBRANCH  19  20
ENDBRANCH  18  19
ENDBRANCH  15  18
ENDBRANCH  11  12
TORSDOF 6
ENDMDL
MODEL      100
REMARK 921   NORMALIZED FREE ENERGY PREDICTED BY IDOCK:   -5.44 KCAL/MOL
REMARK 922        TOTAL FREE ENERGY PREDICTED BY IDOCK:   -8.65 KCAL/MOL
REMARK 923 INTER-LIGAND FREE ENERGY PREDICTED BY IDOCK:   -6.73 KCAL/MOL
REMARK 924 INTRA-LIGAND FREE ENERGY PREDICTED BY IDOCK:   -1.92 KCAL/MOL
REMARK 927      BINDING AFFINITY PREDICTED BY RF-SCORE:    0.00 PKD
ROOT
HETATM    1  O   UNL     1     -14.033   9.022  73.284  1.00  0.00    -1.205 OA 
HETATM    2  C   UNL     1     -13.165   9.420  72.381  1.00  0.00    -0.403 A  
HETATM    3  H   UNL     1     -13.831   8.336  73.909  1.00  0.00     0.000 HD 
HETATM    4  N   UNL     1     -13.442  10.362  71.523  1.00  0.00    -0.269 NA 
HETATM    5  C   UNL     1     -12.318  10.444  70.740  1.00  0.00    -0.367 A  
HETATM    6  C   UNL     1     -12.085  11.250  69.618  1.00  0.00    -0.391 A  
HETATM    7  C   UNL     1     -10.850  11.152  68.965  1.00  0.00    -0.276 A  
HETATM    8  C   UNL     1      -9.860  10.293  69.436  1.00  0.00    -0.247 A  
HETATM    9  C   UNL     1     -10.070   9.484  70.557  1.00  0.00    -0.347 A  
HETATM   10  C   UNL     1     -11.326   9.558  71.170  1.00  0.00    -0.370 A  
HETATM   11  N   UNL     1     -11.930   8.864  72.189  1.00  0.00    -0.361 NA 
ENDROOT
BRANCH  11  12
HETATM   12  C   UNL     1     -11.504   7.636  72.824  1.00  0.00    -0.332 C  
HETATM   13  C   UNL     1     -10.052   7.626  73.293  1.00  0.00    -0.393 C  
HETATM   14  C   UNL     1      -9.873   6.389  74.176  1.00  0.00    -0.279 C  
HETATM   15  N   UNL     1     -10.206   5.125  73.494  1.00  0.00    -0.182 NA 
HETATM   16  C   UNL     1     -11.551   5.154  72.899  1.00  0.00    -0.205 C  
HETATM   17  C   UNL     1     -11.796   6.371  72.010  1.00  0.00    -0.382 C  
BRANCH  15  18
HETATM   18  C   UNL     1      -9.187   4.690  72.528  1.00  0.00    -0.128 C  
BRANCH  18  19
HETATM   19  C   UNL     1      -7.758   4.866  73.051  1.00  0.00    -0.093 C  
BRANCH  19  20
HETATM   20  C   UNL     1      -6.835   5.482  71.999  1.00  0.00    -0.071 C  
BRANCH  20  21
HETATM   21  C   UNL     1      -6.411   6.883  72.381  1.00  0.00    -0.057 C  
HETATM   22  O   UNL     1      -6.164   7.215  73.538  1.00  0.00    -0.064 OA 
BRANCH  21  23
HETATM   23  C   UNL     1      -6.334   7.903  71.302  1.00  0.00    -0.034 A  
HETATM   24  C   UNL     1      -6.093   7.457  69.995  1.00  0.00    -0.027 A  
HETATM   25  C   UNL     1      -5.982   8.377  68.952  1.00  0.00    -0.043 A  
HETATM   26  C   UNL     1      -6.127   9.733  69.216  1.00  0.00    -0.036 A  
HETATM   27  C   UNL     1      -6.381  10.188  70.506  1.00  0.00    -0.117 A  
HETATM   28  F   UNL     1      -6.019  10.615  68.216  1.00  0.00    -0.047 F  
HETATM   29  C   UNL     1      -6.485   9.273  71.556  1.00  0.00    -0.007 A  
ENDBRANCH  21  23
ENDBRANCH  20  21
ENDBRANCH  19  20
ENDBRANCH  18  19
ENDBRANCH  15  18
ENDBRANCH  11  12
TORSDOF 6
ENDMDL
MODEL      101
REMARK 921   NORMALIZED FREE ENERGY PREDICTED BY IDOCK:   -5.43 KCAL/MOL
REMARK 922        TOTAL FREE ENERGY PREDICTED BY IDOCK:   -8.64 KCAL/MOL
REMARK 923 INTER-LIGAND FREE ENERGY PREDICTED BY IDOCK:   -8.08 KCAL/MOL
REMARK 924 INTRA-LIGAND FREE ENERGY PREDICTED BY IDOCK:   -0.55 KCAL/MOL
REMARK 927      BINDING AFFINITY PREDICTED BY RF-SCORE:    0.00 PKD
ROOT
HETATM    1  O   UNL     1     -11.565  15.917  64.075  1.00  0.00    -0.992 OA 
HETATM    2  C   UNL     1     -11.131  16.633  65.088  1.00  0.00    -0.081 A  
HETATM    3  H   UNL     1     -11.795  15.000  64.166  1.00  0.00     0.000 HD 
HETATM    4  N   UNL     1     -10.816  17.891  64.963  1.00  0.00    -0.646 NA 
HETATM    5  C   UNL     1     -10.372  18.252  66.210  1.00  0.00    -0.405 A  
HETATM    6  C   UNL     1      -9.847  19.479  66.636  1.00  0.00    -0.494 A  
HETATM    7  C   UNL     1      -9.445  19.612  67.970  1.00  0.00    -0.446 A  
HETATM    8  C   UNL     1      -9.588  18.556  68.867  1.00  0.00    -0.307 A  
HETATM    9  C   UNL     1     -10.114  17.324  68.465  1.00  0.00    -0.341 A  
HETATM   10  C   UNL     1     -10.467  17.192  67.116  1.00  0.00    -0.291 A  
HETATM   11  N   UNL     1     -10.897  16.141  66.344  1.00  0.00    -0.200 NA 
ENDROOT
BRANCH  11  12
HETATM   12  C   UNL     1     -10.906  14.730  66.660  1.00  0.00    -0.319 C  
HETATM   13  C   UNL     1     -12.245  14.192  67.157  1.00  0.00    -0.348 C  
HETATM   14  C   UNL     1     -12.143  12.666  67.163  1.00  0.00    -0.122 C  
HETATM   15  N   UNL     1     -11.038  12.153  67.994  1.00  0.00    -0.227 NA 
HETATM   16  C   UNL     1      -9.748  12.764  67.639  1.00  0.00    -0.205 C  
HETATM   17  C   UNL     1      -9.785  14.289  67.608  1.00  0.00    -0.220 C  
BRANCH  15  18
HETATM   18  C   UNL     1     -11.302  12.227  69.438  1.00  0.00    -0.228 C  
BRANCH  18  19
HETATM   19  C   UNL     1     -11.524  10.851  70.073  1.00  0.00    -0.411 C  
BRANCH  19  20
HETATM   20  C   UNL     1     -10.439   9.852  69.669  1.00  0.00    -0.273 C  
BRANCH  20  21
HETATM   21  C   UNL     1     -10.398   8.665  70.605  1.00  0.00    -0.202 C  
HETATM   22  O   UNL     1     -11.363   7.928  70.794  1.00  0.00    -0.273 OA 
BRANCH  21  23
HETATM   23  C   UNL     1      -9.137   8.414  71.354  1.00  0.00    -0.240 A  
HETATM   24  C   UNL     1      -7.933   8.450  70.638  1.00  0.00    -0.101 A  
HETATM   25  C   UNL     1      -6.726   8.193  71.289  1.00  0.00    -0.046 A  
HETATM   26  C   UNL     1      -6.727   7.915  72.650  1.00  0.00    -0.074 A  
HETATM   27  C   UNL     1      -7.913   7.891  73.374  1.00  0.00    -0.218 A  
HETATM   28  F   UNL     1      -5.569   7.667  73.273  1.00  0.00    -0.044 F  
HETATM   29  C   UNL     1      -9.126   8.140  72.728  1.00  0.00    -0.328 A  
ENDBRANCH  21  23
ENDBRANCH  20  21
ENDBRANCH  19  20
ENDBRANCH  18  19
ENDBRANCH  15  18
ENDBRANCH  11  12
TORSDOF 6
ENDMDL
MODEL      102
REMARK 921   NORMALIZED FREE ENERGY PREDICTED BY IDOCK:   -5.42 KCAL/MOL
REMARK 922        TOTAL FREE ENERGY PREDICTED BY IDOCK:   -8.63 KCAL/MOL
REMARK 923 INTER-LIGAND FREE ENERGY PREDICTED BY IDOCK:   -8.24 KCAL/MOL
REMARK 924 INTRA-LIGAND FREE ENERGY PREDICTED BY IDOCK:   -0.38 KCAL/MOL
REMARK 927      BINDING AFFINITY PREDICTED BY RF-SCORE:    0.00 PKD
ROOT
HETATM    1  O   UNL     1     -10.936  14.845  64.539  1.00  0.00    -0.599 OA 
HETATM    2  C   UNL     1     -10.819  15.943  65.250  1.00  0.00    -0.387 A  
HETATM    3  H   UNL     1     -10.896  13.982  64.933  1.00  0.00     0.000 HD 
HETATM    4  N   UNL     1     -10.874  17.128  64.709  1.00  0.00    -0.800 NA 
HETATM    5  C   UNL     1     -10.663  17.987  65.758  1.00  0.00    -0.084 A  
HETATM    6  C   UNL     1     -10.558  19.384  65.744  1.00  0.00    -0.490 A  
HETATM    7  C   UNL     1     -10.328  20.053  66.952  1.00  0.00    -0.567 A  
HETATM    8  C   UNL     1     -10.233  19.350  68.151  1.00  0.00    -0.537 A  
HETATM    9  C   UNL     1     -10.341  17.956  68.188  1.00  0.00    -0.395 A  
HETATM   10  C   UNL     1     -10.523  17.298  66.966  1.00  0.00    -0.287 A  
HETATM   11  N   UNL     1     -10.560  15.977  66.594  1.00  0.00    -0.316 NA 
ENDROOT
BRANCH  11  12
HETATM   12  C   UNL     1     -10.185  14.809  67.360  1.00  0.00    -0.236 C  
HETATM   13  C   UNL     1      -9.042  13.991  66.768  1.00  0.00    -0.250 C  
HETATM   14  C   UNL     1      -8.605  12.987  67.837  1.00  0.00    -0.189 C  
HETATM   15  N   UNL     1      -9.693  12.103  68.293  1.00  0.00    -0.214 NA 
HETATM   16  C   UNL     1     -10.874  12.860  68.736  1.00  0.00    -0.242 C  
HETATM   17  C   UNL     1     -11.356  13.886  67.715  1.00  0.00    -0.335 C  
BRANCH  15  18
HETATM   18  C   UNL     1     -10.044  11.052  67.327  1.00  0.00    -0.189 C  
BRANCH  18  19
HETATM   19  C   UNL     1     -10.073   9.655  67.953  1.00  0.00    -0.222 C  
BRANCH  19  20
HETATM   20  C   UNL     1     -10.611   8.603  66.983  1.00  0.00    -0.293 C  
BRANCH  20  21
HETATM   21  C   UNL     1      -9.595   7.514  66.721  1.00  0.00    -0.206 C  
HETATM   22  O   UNL     1      -8.895   7.480  65.712  1.00  0.00    -0.158 OA 
BRANCH  21  23
HETATM   23  C   UNL     1      -9.477   6.419  67.722  1.00  0.00    -0.115 A  
HETATM   24  C   UNL     1     -10.416   6.379  68.762  1.00  0.00    -0.260 A  
HETATM   25  C   UNL     1     -10.330   5.390  69.742  1.00  0.00    -0.375 A  
HETATM   26  C   UNL     1      -9.319   4.441  69.671  1.00  0.00    -0.158 A  
HETATM   27  C   UNL     1      -8.390   4.460  68.636  1.00  0.00    -0.090 A  
HETATM   28  F   UNL     1      -9.236   3.493  70.612  1.00  0.00    -0.145 F  
HETATM   29  C   UNL     1      -8.464   5.452  67.656  1.00  0.00    -0.105 A  
ENDBRANCH  21  23
ENDBRANCH  20  21
ENDBRANCH  19  20
ENDBRANCH  18  19
ENDBRANCH  15  18
ENDBRANCH  11  12
TORSDOF 6
ENDMDL
MODEL      103
REMARK 921   NORMALIZED FREE ENERGY PREDICTED BY IDOCK:   -5.40 KCAL/MOL
REMARK 922        TOTAL FREE ENERGY PREDICTED BY IDOCK:   -8.61 KCAL/MOL
REMARK 923 INTER-LIGAND FREE ENERGY PREDICTED BY IDOCK:   -6.77 KCAL/MOL
REMARK 924 INTRA-LIGAND FREE ENERGY PREDICTED BY IDOCK:   -1.83 KCAL/MOL
REMARK 927      BINDING AFFINITY PREDICTED BY RF-SCORE:    0.00 PKD
ROOT
HETATM    1  O   UNL     1      -6.062  12.511  68.334  1.00  0.00    -0.053 OA 
HETATM    2  C   UNL     1      -7.371  12.410  68.374  1.00  0.00    -0.113 A  
HETATM    3  H   UNL     1      -5.618  13.347  68.415  1.00  0.00     0.000 HD 
HETATM    4  N   UNL     1      -7.980  11.263  68.263  1.00  0.00    -0.126 NA 
HETATM    5  C   UNL     1      -9.313  11.585  68.303  1.00  0.00    -0.190 A  
HETATM    6  C   UNL     1     -10.426  10.745  68.164  1.00  0.00    -0.214 A  
HETATM    7  C   UNL     1     -11.706  11.308  68.230  1.00  0.00    -0.344 A  
HETATM    8  C   UNL     1     -11.875  12.671  68.457  1.00  0.00    -0.342 A  
HETATM    9  C   UNL     1     -10.778  13.527  68.605  1.00  0.00    -0.271 A  
HETATM   10  C   UNL     1      -9.505  12.957  68.488  1.00  0.00    -0.096 A  
HETATM   11  N   UNL     1      -8.232  13.470  68.461  1.00  0.00    -0.137 NA 
ENDROOT
BRANCH  11  12
HETATM   12  C   UNL     1      -7.814  14.847  68.320  1.00  0.00    -0.122 C  
HETATM   13  C   UNL     1      -8.600  15.847  69.163  1.00  0.00    -0.252 C  
HETATM   14  C   UNL     1      -7.845  17.177  69.104  1.00  0.00    -0.063 C  
HETATM   15  N   UNL     1      -7.659  17.688  67.734  1.00  0.00    -0.203 NA 
HETATM   16  C   UNL     1      -7.035  16.691  66.850  1.00  0.00    -0.227 C  
HETATM   17  C   UNL     1      -7.738  15.336  66.870  1.00  0.00    -0.108 C  
BRANCH  15  18
HETATM   18  C   UNL     1      -8.880  18.256  67.144  1.00  0.00    -0.260 C  
BRANCH  18  19
HETATM   19  C   UNL     1      -9.374  17.470  65.926  1.00  0.00     0.028 C  
BRANCH  19  20
HETATM   20  C   UNL     1     -10.769  16.886  66.148  1.00  0.00    -0.109 C  
BRANCH  20  21
HETATM   21  C   UNL     1     -11.297  16.214  64.899  1.00  0.00    -0.198 C  
HETATM   22  O   UNL     1     -11.724  16.840  63.932  1.00  0.00    -1.076 OA 
BRANCH  21  23
HETATM   23  C   UNL     1     -11.331  14.727  64.872  1.00  0.00    -0.411 A  
HETATM   24  C   UNL     1     -10.112  14.047  64.741  1.00  0.00    -0.224 A  
HETATM   25  C   UNL     1     -10.094  12.654  64.680  1.00  0.00    -0.260 A  
HETATM   26  C   UNL     1     -11.287  11.948  64.765  1.00  0.00    -0.283 A  
HETATM   27  C   UNL     1     -12.501  12.610  64.910  1.00  0.00    -0.564 A  
HETATM   28  F   UNL     1     -11.268  10.611  64.705  1.00  0.00    -0.109 F  
HETATM   29  C   UNL     1     -12.528  14.005  64.963  1.00  0.00    -0.446 A  
ENDBRANCH  21  23
ENDBRANCH  20  21
ENDBRANCH  19  20
ENDBRANCH  18  19
ENDBRANCH  15  18
ENDBRANCH  11  12
TORSDOF 6
ENDMDL
MODEL      104
REMARK 921   NORMALIZED FREE ENERGY PREDICTED BY IDOCK:   -5.40 KCAL/MOL
REMARK 922        TOTAL FREE ENERGY PREDICTED BY IDOCK:   -8.60 KCAL/MOL
REMARK 923 INTER-LIGAND FREE ENERGY PREDICTED BY IDOCK:   -7.02 KCAL/MOL
REMARK 924 INTRA-LIGAND FREE ENERGY PREDICTED BY IDOCK:   -1.57 KCAL/MOL
REMARK 927      BINDING AFFINITY PREDICTED BY RF-SCORE:    0.00 PKD
ROOT
HETATM    1  O   UNL     1     -10.458  11.589  62.481  1.00  0.00    -0.357 OA 
HETATM    2  C   UNL     1      -9.839  10.920  63.428  1.00  0.00    -0.362 A  
HETATM    3  H   UNL     1     -10.849  12.440  62.638  1.00  0.00     0.000 HD 
HETATM    4  N   UNL     1      -9.302   9.752  63.213  1.00  0.00    -0.196 NA 
HETATM    5  C   UNL     1      -8.811   9.376  64.438  1.00  0.00    -0.188 A  
HETATM    6  C   UNL     1      -8.186   8.178  64.806  1.00  0.00    -0.137 A  
HETATM    7  C   UNL     1      -7.775   8.014  66.133  1.00  0.00    -0.087 A  
HETATM    8  C   UNL     1      -7.956   9.031  67.068  1.00  0.00    -0.102 A  
HETATM    9  C   UNL     1      -8.573  10.237  66.721  1.00  0.00    -0.129 A  
HETATM   10  C   UNL     1      -9.022  10.367  65.401  1.00  0.00    -0.183 A  
HETATM   11  N   UNL     1      -9.748  11.321  64.733  1.00  0.00    -0.248 NA 
ENDROOT
BRANCH  11  12
HETATM   12  C   UNL     1     -10.494  12.436  65.275  1.00  0.00    -0.286 C  
HETATM   13  C   UNL     1      -9.644  13.624  65.716  1.00  0.00    -0.086 C  
HETATM   14  C   UNL     1     -10.600  14.787  65.984  1.00  0.00    -0.312 C  
HETATM   15  N   UNL     1     -11.629  14.483  66.996  1.00  0.00    -0.374 NA 
HETATM   16  C   UNL     1     -12.373  13.254  66.677  1.00  0.00    -0.212 C  
HETATM   17  C   UNL     1     -11.473  12.055  66.391  1.00  0.00    -0.417 C  
BRANCH  15  18
HETATM   18  C   UNL     1     -11.117  14.473  68.374  1.00  0.00    -0.256 C  
BRANCH  18  19
HETATM   19  C   UNL     1     -12.225  14.313  69.418  1.00  0.00    -0.319 C  
BRANCH  19  20
HETATM   20  C   UNL     1     -11.724  13.619  70.685  1.00  0.00    -0.104 C  
BRANCH  20  21
HETATM   21  C   UNL     1     -12.651  12.504  71.114  1.00  0.00    -0.253 C  
HETATM   22  O   UNL     1     -13.763  12.706  71.596  1.00  0.00    -0.083 OA 
BRANCH  21  23
HETATM   23  C   UNL     1     -12.164  11.105  70.977  1.00  0.00    -0.438 A  
HETATM   24  C   UNL     1     -11.068  10.872  70.135  1.00  0.00    -0.238 A  
HETATM   25  C   UNL     1     -10.592   9.575  69.950  1.00  0.00    -0.269 A  
HETATM   26  C   UNL     1     -11.203   8.519  70.615  1.00  0.00    -0.252 A  
HETATM   27  C   UNL     1     -12.283   8.738  71.464  1.00  0.00    -0.382 A  
HETATM   28  F   UNL     1     -10.748   7.274  70.435  1.00  0.00    -0.219 F  
HETATM   29  C   UNL     1     -12.769  10.034  71.648  1.00  0.00    -0.535 A  
ENDBRANCH  21  23
ENDBRANCH  20  21
ENDBRANCH  19  20
ENDBRANCH  18  19
ENDBRANCH  15  18
ENDBRANCH  11  12
TORSDOF 6
ENDMDL
MODEL      105
REMARK 921   NORMALIZED FREE ENERGY PREDICTED BY IDOCK:   -5.32 KCAL/MOL
REMARK 922        TOTAL FREE ENERGY PREDICTED BY IDOCK:   -8.50 KCAL/MOL
REMARK 923 INTER-LIGAND FREE ENERGY PREDICTED BY IDOCK:   -6.58 KCAL/MOL
REMARK 924 INTRA-LIGAND FREE ENERGY PREDICTED BY IDOCK:   -1.92 KCAL/MOL
REMARK 927      BINDING AFFINITY PREDICTED BY RF-SCORE:    0.00 PKD
ROOT
HETATM    1  O   UNL     1      -8.414  11.549  65.252  1.00  0.00    -0.371 OA 
HETATM    2  C   UNL     1      -9.247  11.600  66.267  1.00  0.00    -0.217 A  
HETATM    3  H   UNL     1      -8.072  10.727  64.920  1.00  0.00     0.000 HD 
HETATM    4  N   UNL     1      -9.716  12.727  66.723  1.00  0.00    -0.237 NA 
HETATM    5  C   UNL     1     -10.493  12.360  67.792  1.00  0.00    -0.218 A  
HETATM    6  C   UNL     1     -11.191  13.175  68.693  1.00  0.00    -0.314 A  
HETATM    7  C   UNL     1     -11.917  12.569  69.725  1.00  0.00    -0.359 A  
HETATM    8  C   UNL     1     -11.969  11.182  69.842  1.00  0.00    -0.439 A  
HETATM    9  C   UNL     1     -11.285  10.350  68.950  1.00  0.00    -0.290 A  
HETATM   10  C   UNL     1     -10.525  10.972  67.953  1.00  0.00    -0.192 A  
HETATM   11  N   UNL     1      -9.655  10.514  66.994  1.00  0.00    -0.170 NA 
ENDROOT
BRANCH  11  12
HETATM   12  C   UNL     1      -9.065   9.200  66.861  1.00  0.00    -0.135 C  
HETATM   13  C   UNL     1     -10.047   8.087  66.512  1.00  0.00    -0.270 C  
HETATM   14  C   UNL     1      -9.219   6.856  66.137  1.00  0.00    -0.079 C  
HETATM   15  N   UNL     1      -8.298   6.420  67.202  1.00  0.00    -0.112 NA 
HETATM   16  C   UNL     1      -7.431   7.513  67.669  1.00  0.00    -0.104 C  
HETATM   17  C   UNL     1      -8.199   8.776  68.052  1.00  0.00    -0.118 C  
BRANCH  15  18
HETATM   18  C   UNL     1      -8.967   5.736  68.318  1.00  0.00    -0.115 C  
BRANCH  18  19
HETATM   19  C   UNL     1      -8.026   5.450  69.491  1.00  0.00    -0.089 C  
BRANCH  19  20
HETATM   20  C   UNL     1      -8.791   5.117  70.773  1.00  0.00    -0.154 C  
BRANCH  20  21
HETATM   21  C   UNL     1      -8.968   6.338  71.648  1.00  0.00    -0.144 C  
HETATM   22  O   UNL     1      -8.063   6.806  72.335  1.00  0.00    -0.102 OA 
BRANCH  21  23
HETATM   23  C   UNL     1     -10.316   6.965  71.700  1.00  0.00    -0.216 A  
HETATM   24  C   UNL     1     -11.329   6.409  70.907  1.00  0.00    -0.398 A  
HETATM   25  C   UNL     1     -12.601   6.979  70.898  1.00  0.00    -0.273 A  
HETATM   26  C   UNL     1     -12.860   8.090  71.690  1.00  0.00    -0.329 A  
HETATM   27  C   UNL     1     -11.869   8.643  72.493  1.00  0.00    -0.342 A  
HETATM   28  F   UNL     1     -14.081   8.638  71.680  1.00  0.00    -0.399 F  
HETATM   29  C   UNL     1     -10.589   8.082  72.501  1.00  0.00    -0.397 A  
ENDBRANCH  21  23
ENDBRANCH  20  21
ENDBRANCH  19  20
ENDBRANCH  18  19
ENDBRANCH  15  18
ENDBRANCH  11  12
TORSDOF 6
ENDMDL
MODEL      106
REMARK 921   NORMALIZED FREE ENERGY PREDICTED BY IDOCK:   -5.31 KCAL/MOL
REMARK 922        TOTAL FREE ENERGY PREDICTED BY IDOCK:   -8.48 KCAL/MOL
REMARK 923 INTER-LIGAND FREE ENERGY PREDICTED BY IDOCK:   -6.74 KCAL/MOL
REMARK 924 INTRA-LIGAND FREE ENERGY PREDICTED BY IDOCK:   -1.73 KCAL/MOL
REMARK 927      BINDING AFFINITY PREDICTED BY RF-SCORE:    0.00 PKD
ROOT
HETATM    1  O   UNL     1      -9.420   9.459  64.884  1.00  0.00    -0.424 OA 
HETATM    2  C   UNL     1      -9.989  10.641  64.958  1.00  0.00    -0.305 A  
HETATM    3  H   UNL     1      -8.799   9.156  65.536  1.00  0.00     0.000 HD 
HETATM    4  N   UNL     1     -10.841  11.057  64.065  1.00  0.00    -0.290 NA 
HETATM    5  C   UNL     1     -11.158  12.330  64.467  1.00  0.00    -0.321 A  
HETATM    6  C   UNL     1     -11.985  13.271  63.841  1.00  0.00    -0.541 A  
HETATM    7  C   UNL     1     -12.152  14.525  64.440  1.00  0.00    -0.492 A  
HETATM    8  C   UNL     1     -11.531  14.825  65.650  1.00  0.00    -0.327 A  
HETATM    9  C   UNL     1     -10.705  13.899  66.296  1.00  0.00    -0.285 A  
HETATM   10  C   UNL     1     -10.511  12.667  65.659  1.00  0.00    -0.275 A  
HETATM   11  N   UNL     1      -9.710  11.581  65.914  1.00  0.00    -0.225 NA 
ENDROOT
BRANCH  11  12
HETATM   12  C   UNL     1      -8.610  11.466  66.845  1.00  0.00    -0.154 C  
HETATM   13  C   UNL     1      -9.018  11.311  68.307  1.00  0.00    -0.172 C  
HETATM   14  C   UNL     1      -7.761  10.922  69.087  1.00  0.00    -0.127 C  
HETATM   15  N   UNL     1      -6.662  11.897  68.957  1.00  0.00    -0.093 NA 
HETATM   16  C   UNL     1      -6.339  12.184  67.550  1.00  0.00    -0.129 C  
HETATM   17  C   UNL     1      -7.556  12.571  66.714  1.00  0.00     0.199 C  
BRANCH  15  18
HETATM   18  C   UNL     1      -6.869  13.127  69.734  1.00  0.00     0.245 C  
BRANCH  18  19
HETATM   19  C   UNL     1      -5.843  14.216  69.408  1.00  0.00    -0.090 C  
BRANCH  19  20
HETATM   20  C   UNL     1      -6.474  15.609  69.384  1.00  0.00    -0.156 C  
BRANCH  20  21
HETATM   21  C   UNL     1      -6.792  16.053  67.973  1.00  0.00    -0.129 C  
HETATM   22  O   UNL     1      -6.113  15.730  67.001  1.00  0.00    -0.314 OA 
BRANCH  21  23
HETATM   23  C   UNL     1      -7.960  16.952  67.775  1.00  0.00    -0.188 A  
HETATM   24  C   UNL     1      -8.971  16.936  68.745  1.00  0.00    -0.256 A  
HETATM   25  C   UNL     1     -10.101  17.739  68.590  1.00  0.00    -0.384 A  
HETATM   26  C   UNL     1     -10.209  18.563  67.477  1.00  0.00    -0.385 A  
HETATM   27  C   UNL     1      -9.206  18.599  66.514  1.00  0.00    -0.322 A  
HETATM   28  F   UNL     1     -11.294  19.331  67.328  1.00  0.00    -0.512 F  
HETATM   29  C   UNL     1      -8.075  17.791  66.659  1.00  0.00    -0.288 A  
ENDBRANCH  21  23
ENDBRANCH  20  21
ENDBRANCH  19  20
ENDBRANCH  18  19
ENDBRANCH  15  18
ENDBRANCH  11  12
TORSDOF 6
ENDMDL
MODEL      107
REMARK 921   NORMALIZED FREE ENERGY PREDICTED BY IDOCK:   -5.31 KCAL/MOL
REMARK 922        TOTAL FREE ENERGY PREDICTED BY IDOCK:   -8.47 KCAL/MOL
REMARK 923 INTER-LIGAND FREE ENERGY PREDICTED BY IDOCK:   -7.63 KCAL/MOL
REMARK 924 INTRA-LIGAND FREE ENERGY PREDICTED BY IDOCK:   -0.84 KCAL/MOL
REMARK 927      BINDING AFFINITY PREDICTED BY RF-SCORE:    0.00 PKD
ROOT
HETATM    1  O   UNL     1     -11.817  11.036  68.531  1.00  0.00    -0.465 OA 
HETATM    2  C   UNL     1     -12.106  11.993  69.383  1.00  0.00    -0.202 A  
HETATM    3  H   UNL     1     -11.870  10.118  68.766  1.00  0.00     0.000 HD 
HETATM    4  N   UNL     1     -12.034  13.254  69.060  1.00  0.00    -0.311 NA 
HETATM    5  C   UNL     1     -12.360  13.917  70.216  1.00  0.00    -0.345 A  
HETATM    6  C   UNL     1     -12.382  15.296  70.464  1.00  0.00    -0.434 A  
HETATM    7  C   UNL     1     -12.740  15.744  71.740  1.00  0.00    -0.519 A  
HETATM    8  C   UNL     1     -13.096  14.842  72.740  1.00  0.00    -0.558 A  
HETATM    9  C   UNL     1     -13.087  13.462  72.513  1.00  0.00    -0.424 A  
HETATM   10  C   UNL     1     -12.680  13.028  71.246  1.00  0.00    -0.293 A  
HETATM   11  N   UNL     1     -12.440  11.793  70.695  1.00  0.00    -0.307 NA 
ENDROOT
BRANCH  11  12
HETATM   12  C   UNL     1     -12.321  10.513  71.359  1.00  0.00    -0.372 C  
HETATM   13  C   UNL     1     -11.041   9.744  71.046  1.00  0.00    -0.431 C  
HETATM   14  C   UNL     1     -10.961   8.581  72.037  1.00  0.00    -0.340 C  
HETATM   15  N   UNL     1     -12.130   7.684  71.987  1.00  0.00    -0.295 NA 
HETATM   16  C   UNL     1     -13.397   8.416  72.139  1.00  0.00    -0.315 C  
HETATM   17  C   UNL     1     -13.536   9.596  71.182  1.00  0.00    -0.292 C  
BRANCH  15  18
HETATM   18  C   UNL     1     -12.145   6.797  70.815  1.00  0.00    -0.347 C  
BRANCH  18  19
HETATM   19  C   UNL     1     -11.018   5.761  70.840  1.00  0.00    -0.305 C  
BRANCH  19  20
HETATM   20  C   UNL     1     -10.147   5.831  69.585  1.00  0.00    -0.276 C  
BRANCH  20  21
HETATM   21  C   UNL     1      -8.780   6.405  69.888  1.00  0.00    -0.142 C  
HETATM   22  O   UNL     1      -8.218   7.217  69.157  1.00  0.00    -0.119 OA 
BRANCH  21  23
HETATM   23  C   UNL     1      -8.080   5.923  71.109  1.00  0.00    -0.121 A  
HETATM   24  C   UNL     1      -7.837   6.849  72.133  1.00  0.00    -0.094 A  
HETATM   25  C   UNL     1      -7.158   6.454  73.285  1.00  0.00    -0.082 A  
HETATM   26  C   UNL     1      -6.738   5.137  73.415  1.00  0.00    -0.073 A  
HETATM   27  C   UNL     1      -6.985   4.205  72.413  1.00  0.00    -0.051 A  
HETATM   28  F   UNL     1      -6.084   4.759  74.520  1.00  0.00    -0.042 F  
HETATM   29  C   UNL     1      -7.657   4.595  71.253  1.00  0.00    -0.080 A  
ENDBRANCH  21  23
ENDBRANCH  20  21
ENDBRANCH  19  20
ENDBRANCH  18  19
ENDBRANCH  15  18
ENDBRANCH  11  12
TORSDOF 6
ENDMDL
MODEL      108
REMARK 921   NORMALIZED FREE ENERGY PREDICTED BY IDOCK:   -5.25 KCAL/MOL
REMARK 922        TOTAL FREE ENERGY PREDICTED BY IDOCK:   -8.40 KCAL/MOL
REMARK 923 INTER-LIGAND FREE ENERGY PREDICTED BY IDOCK:   -7.57 KCAL/MOL
REMARK 924 INTRA-LIGAND FREE ENERGY PREDICTED BY IDOCK:   -0.83 KCAL/MOL
REMARK 927      BINDING AFFINITY PREDICTED BY RF-SCORE:    0.00 PKD
ROOT
HETATM    1  O   UNL     1      -9.769   3.370  72.528  1.00  0.00    -0.128 OA 
HETATM    2  C   UNL     1      -9.763   3.569  71.229  1.00  0.00    -0.166 A  
HETATM    3  H   UNL     1     -10.052   4.040  73.139  1.00  0.00     0.000 HD 
HETATM    4  N   UNL     1      -9.375   2.650  70.390  1.00  0.00    -0.142 NA 
HETATM    5  C   UNL     1      -9.469   3.254  69.162  1.00  0.00    -0.119 A  
HETATM    6  C   UNL     1      -9.118   2.748  67.903  1.00  0.00    -0.226 A  
HETATM    7  C   UNL     1      -9.294   3.562  66.778  1.00  0.00    -0.203 A  
HETATM    8  C   UNL     1      -9.834   4.840  66.900  1.00  0.00    -0.225 A  
HETATM    9  C   UNL     1     -10.196   5.363  68.146  1.00  0.00    -0.226 A  
HETATM   10  C   UNL     1      -9.969   4.555  69.266  1.00  0.00    -0.122 A  
HETATM   11  N   UNL     1     -10.084   4.752  70.620  1.00  0.00    -0.232 NA 
ENDROOT
BRANCH  11  12
HETATM   12  C   UNL     1     -10.279   5.990  71.342  1.00  0.00    -0.206 C  
HETATM   13  C   UNL     1     -11.610   6.687  71.075  1.00  0.00    -0.399 C  
HETATM   14  C   UNL     1     -11.753   7.797  72.118  1.00  0.00    -0.320 C  
HETATM   15  N   UNL     1     -10.646   8.770  72.098  1.00  0.00    -0.343 NA 
HETATM   16  C   UNL     1      -9.332   8.117  72.205  1.00  0.00    -0.224 C  
HETATM   17  C   UNL     1      -9.128   6.992  71.194  1.00  0.00    -0.153 C  
BRANCH  15  18
HETATM   18  C   UNL     1     -10.703   9.707  70.967  1.00  0.00    -0.323 C  
BRANCH  18  19
HETATM   19  C   UNL     1     -12.017  10.490  70.909  1.00  0.00    -0.481 C  
BRANCH  19  20
HETATM   20  C   UNL     1     -12.221  11.170  69.555  1.00  0.00    -0.347 C  
BRANCH  20  21
HETATM   21  C   UNL     1     -12.035  12.668  69.650  1.00  0.00    -0.286 C  
HETATM   22  O   UNL     1     -12.289  13.312  70.665  1.00  0.00    -0.356 OA 
BRANCH  21  23
HETATM   23  C   UNL     1     -11.558  13.387  68.437  1.00  0.00    -0.368 A  
HETATM   24  C   UNL     1     -10.912  14.617  68.617  1.00  0.00    -0.266 A  
HETATM   25  C   UNL     1     -10.473  15.344  67.510  1.00  0.00    -0.275 A  
HETATM   26  C   UNL     1     -10.668  14.833  66.234  1.00  0.00    -0.313 A  
HETATM   27  C   UNL     1     -11.294  13.606  66.042  1.00  0.00    -0.322 A  
HETATM   28  F   UNL     1     -10.248  15.531  65.172  1.00  0.00    -0.362 F  
HETATM   29  C   UNL     1     -11.743  12.876  67.145  1.00  0.00    -0.437 A  
ENDBRANCH  21  23
ENDBRANCH  20  21
ENDBRANCH  19  20
ENDBRANCH  18  19
ENDBRANCH  15  18
ENDBRANCH  11  12
TORSDOF 6
ENDMDL
MODEL      109
REMARK 921   NORMALIZED FREE ENERGY PREDICTED BY IDOCK:   -5.25 KCAL/MOL
REMARK 922        TOTAL FREE ENERGY PREDICTED BY IDOCK:   -8.40 KCAL/MOL
REMARK 923 INTER-LIGAND FREE ENERGY PREDICTED BY IDOCK:   -7.99 KCAL/MOL
REMARK 924 INTRA-LIGAND FREE ENERGY PREDICTED BY IDOCK:   -0.41 KCAL/MOL
REMARK 927      BINDING AFFINITY PREDICTED BY RF-SCORE:    0.00 PKD
ROOT
HETATM    1  O   UNL     1     -10.018   9.016  65.902  1.00  0.00    -0.413 OA 
HETATM    2  C   UNL     1     -10.407   9.449  67.079  1.00  0.00    -0.252 A  
HETATM    3  H   UNL     1     -10.009   9.577  65.135  1.00  0.00     0.000 HD 
HETATM    4  N   UNL     1     -10.419   8.680  68.131  1.00  0.00    -0.211 NA 
HETATM    5  C   UNL     1     -10.927   9.477  69.126  1.00  0.00    -0.125 A  
HETATM    6  C   UNL     1     -11.218   9.147  70.456  1.00  0.00    -0.309 A  
HETATM    7  C   UNL     1     -11.746  10.136  71.294  1.00  0.00    -0.426 A  
HETATM    8  C   UNL     1     -11.955  11.431  70.827  1.00  0.00    -0.355 A  
HETATM    9  C   UNL     1     -11.666  11.784  69.504  1.00  0.00    -0.408 A  
HETATM   10  C   UNL     1     -11.183  10.772  68.666  1.00  0.00    -0.274 A  
HETATM   11  N   UNL     1     -10.902  10.702  67.324  1.00  0.00    -0.286 NA 
ENDROOT
BRANCH  11  12
HETATM   12  C   UNL     1     -11.243  11.640  66.277  1.00  0.00    -0.271 C  
HETATM   13  C   UNL     1     -10.170  11.831  65.210  1.00  0.00    -0.307 C  
HETATM   14  C   UNL     1     -10.810  12.616  64.063  1.00  0.00    -0.415 C  
HETATM   15  N   UNL     1     -11.364  13.918  64.479  1.00  0.00    -0.377 NA 
HETATM   16  C   UNL     1     -12.296  13.788  65.610  1.00  0.00    -0.482 C  
HETATM   17  C   UNL     1     -11.719  13.005  66.786  1.00  0.00    -0.440 C  
BRANCH  15  18
HETATM   18  C   UNL     1     -10.340  14.944  64.725  1.00  0.00    -0.198 C  
BRANCH  18  19
HETATM   19  C   UNL     1     -10.937  16.334  64.961  1.00  0.00    -0.311 C  
BRANCH  19  20
HETATM   20  C   UNL     1     -10.627  16.860  66.363  1.00  0.00    -0.183 C  
BRANCH  20  21
HETATM   21  C   UNL     1      -9.144  17.087  66.558  1.00  0.00    -0.264 C  
HETATM   22  O   UNL     1      -8.509  17.935  65.937  1.00  0.00    -0.516 OA 
BRANCH  21  23
HETATM   23  C   UNL     1      -8.428  16.207  67.521  1.00  0.00    -0.177 A  
HETATM   24  C   UNL     1      -7.986  16.776  68.724  1.00  0.00    -0.250 A  
HETATM   25  C   UNL     1      -7.284  16.001  69.646  1.00  0.00    -0.070 A  
HETATM   26  C   UNL     1      -7.040  14.662  69.371  1.00  0.00    -0.157 A  
HETATM   27  C   UNL     1      -7.485  14.081  68.189  1.00  0.00    -0.131 A  
HETATM   28  F   UNL     1      -6.365  13.919  70.256  1.00  0.00    -0.147 F  
HETATM   29  C   UNL     1      -8.182  14.853  67.256  1.00  0.00    -0.234 A  
ENDBRANCH  21  23
ENDBRANCH  20  21
ENDBRANCH  19  20
ENDBRANCH  18  19
ENDBRANCH  15  18
ENDBRANCH  11  12
TORSDOF 6
ENDMDL
MODEL      110
REMARK 921   NORMALIZED FREE ENERGY PREDICTED BY IDOCK:   -5.24 KCAL/MOL
REMARK 922        TOTAL FREE ENERGY PREDICTED BY IDOCK:   -8.38 KCAL/MOL
REMARK 923 INTER-LIGAND FREE ENERGY PREDICTED BY IDOCK:   -7.18 KCAL/MOL
REMARK 924 INTRA-LIGAND FREE ENERGY PREDICTED BY IDOCK:   -1.20 KCAL/MOL
REMARK 927      BINDING AFFINITY PREDICTED BY RF-SCORE:    0.00 PKD
ROOT
HETATM    1  O   UNL     1      -9.886   3.534  72.548  1.00  0.00    -0.139 OA 
HETATM    2  C   UNL     1      -9.848   3.745  71.252  1.00  0.00    -0.149 A  
HETATM    3  H   UNL     1     -10.264   4.163  73.151  1.00  0.00     0.000 HD 
HETATM    4  N   UNL     1      -9.330   2.882  70.424  1.00  0.00    -0.145 NA 
HETATM    5  C   UNL     1      -9.439   3.485  69.197  1.00  0.00    -0.154 A  
HETATM    6  C   UNL     1      -8.985   3.034  67.951  1.00  0.00    -0.191 A  
HETATM    7  C   UNL     1      -9.203   3.835  66.824  1.00  0.00    -0.193 A  
HETATM    8  C   UNL     1      -9.882   5.047  66.931  1.00  0.00    -0.209 A  
HETATM    9  C   UNL     1     -10.349   5.514  68.164  1.00  0.00    -0.236 A  
HETATM   10  C   UNL     1     -10.081   4.724  69.288  1.00  0.00    -0.147 A  
HETATM   11  N   UNL     1     -10.271   4.893  70.637  1.00  0.00    -0.234 NA 
ENDROOT
BRANCH  11  12
HETATM   12  C   UNL     1     -10.627   6.095  71.358  1.00  0.00    -0.243 C  
HETATM   13  C   UNL     1     -11.913   6.769  70.889  1.00  0.00    -0.437 C  
HETATM   14  C   UNL     1     -12.270   7.832  71.930  1.00  0.00    -0.306 C  
HETATM   15  N   UNL     1     -11.207   8.833  72.137  1.00  0.00    -0.362 NA 
HETATM   16  C   UNL     1      -9.912   8.209  72.448  1.00  0.00    -0.275 C  
HETATM   17  C   UNL     1      -9.501   7.131  71.449  1.00  0.00    -0.162 C  
BRANCH  15  18
HETATM   18  C   UNL     1     -11.098   9.813  71.047  1.00  0.00    -0.361 C  
BRANCH  18  19
HETATM   19  C   UNL     1     -12.295  10.766  70.983  1.00  0.00    -0.509 C  
BRANCH  19  20
HETATM   20  C   UNL     1     -12.750  11.019  69.545  1.00  0.00     0.176 C  
BRANCH  20  21
HETATM   21  C   UNL     1     -11.761  11.880  68.791  1.00  0.00    -0.321 C  
HETATM   22  O   UNL     1     -11.361  12.964  69.211  1.00  0.00    -0.261 OA 
BRANCH  21  23
HETATM   23  C   UNL     1     -11.291  11.399  67.465  1.00  0.00    -0.362 A  
HETATM   24  C   UNL     1     -10.600  10.180  67.418  1.00  0.00    -0.329 A  
HETATM   25  C   UNL     1     -10.113   9.699  66.203  1.00  0.00    -0.328 A  
HETATM   26  C   UNL     1     -10.329  10.430  65.041  1.00  0.00    -0.179 A  
HETATM   27  C   UNL     1     -11.025  11.633  65.071  1.00  0.00    -0.334 A  
HETATM   28  F   UNL     1      -9.859   9.969  63.876  1.00  0.00    -0.354 F  
HETATM   29  C   UNL     1     -11.509  12.125  66.286  1.00  0.00    -0.433 A  
ENDBRANCH  21  23
ENDBRANCH  20  21
ENDBRANCH  19  20
ENDBRANCH  18  19
ENDBRANCH  15  18
ENDBRANCH  11  12
TORSDOF 6
ENDMDL
MODEL      111
REMARK 921   NORMALIZED FREE ENERGY PREDICTED BY IDOCK:   -5.23 KCAL/MOL
REMARK 922        TOTAL FREE ENERGY PREDICTED BY IDOCK:   -8.38 KCAL/MOL
REMARK 923 INTER-LIGAND FREE ENERGY PREDICTED BY IDOCK:   -7.74 KCAL/MOL
REMARK 924 INTRA-LIGAND FREE ENERGY PREDICTED BY IDOCK:   -0.64 KCAL/MOL
REMARK 927      BINDING AFFINITY PREDICTED BY RF-SCORE:    0.00 PKD
ROOT
HETATM    1  O   UNL     1     -11.583  12.343  69.153  1.00  0.00    -0.274 OA 
HETATM    2  C   UNL     1     -11.452  12.256  67.848  1.00  0.00    -0.330 A  
HETATM    3  H   UNL     1     -11.039  11.841  69.749  1.00  0.00     0.000 HD 
HETATM    4  N   UNL     1     -12.198  12.944  67.030  1.00  0.00    -0.391 NA 
HETATM    5  C   UNL     1     -11.791  12.540  65.784  1.00  0.00    -0.437 A  
HETATM    6  C   UNL     1     -12.296  12.910  64.531  1.00  0.00    -0.483 A  
HETATM    7  C   UNL     1     -11.722  12.353  63.382  1.00  0.00    -0.554 A  
HETATM    8  C   UNL     1     -10.649  11.470  63.478  1.00  0.00    -0.487 A  
HETATM    9  C   UNL     1     -10.126  11.091  64.719  1.00  0.00    -0.367 A  
HETATM   10  C   UNL     1     -10.743  11.619  65.859  1.00  0.00    -0.278 A  
HETATM   11  N   UNL     1     -10.593  11.405  67.207  1.00  0.00    -0.216 NA 
ENDROOT
BRANCH  11  12
HETATM   12  C   UNL     1      -9.865  10.353  67.881  1.00  0.00    -0.154 C  
HETATM   13  C   UNL     1     -10.724   9.413  68.721  1.00  0.00    -0.200 C  
HETATM   14  C   UNL     1      -9.842   8.226  69.112  1.00  0.00    -0.179 C  
HETATM   15  N   UNL     1      -8.625   8.614  69.850  1.00  0.00    -0.128 NA 
HETATM   16  C   UNL     1      -7.844   9.634  69.133  1.00  0.00    -0.090 C  
HETATM   17  C   UNL     1      -8.671  10.844  68.707  1.00  0.00    -0.158 C  
BRANCH  15  18
HETATM   18  C   UNL     1      -8.878   8.997  71.246  1.00  0.00    -0.189 C  
BRANCH  18  19
HETATM   19  C   UNL     1      -9.100   7.790  72.162  1.00  0.00    -0.192 C  
BRANCH  19  20
HETATM   20  C   UNL     1     -10.492   7.799  72.796  1.00  0.00    -0.390 C  
BRANCH  20  21
HETATM   21  C   UNL     1     -11.376   6.718  72.216  1.00  0.00    -0.273 C  
HETATM   22  O   UNL     1     -12.550   6.908  71.905  1.00  0.00    -0.339 OA 
BRANCH  21  23
HETATM   23  C   UNL     1     -10.796   5.357  72.057  1.00  0.00    -0.266 A  
HETATM   24  C   UNL     1     -10.147   5.059  70.851  1.00  0.00    -0.302 A  
HETATM   25  C   UNL     1      -9.612   3.789  70.641  1.00  0.00    -0.259 A  
HETATM   26  C   UNL     1      -9.715   2.828  71.640  1.00  0.00    -0.156 A  
HETATM   27  C   UNL     1     -10.343   3.115  72.846  1.00  0.00    -0.248 A  
HETATM   28  F   UNL     1      -9.203   1.609  71.437  1.00  0.00    -0.109 F  
HETATM   29  C   UNL     1     -10.888   4.384  73.061  1.00  0.00    -0.293 A  
ENDBRANCH  21  23
ENDBRANCH  20  21
ENDBRANCH  19  20
ENDBRANCH  18  19
ENDBRANCH  15  18
ENDBRANCH  11  12
TORSDOF 6
ENDMDL
MODEL      112
REMARK 921   NORMALIZED FREE ENERGY PREDICTED BY IDOCK:   -5.23 KCAL/MOL
REMARK 922        TOTAL FREE ENERGY PREDICTED BY IDOCK:   -8.36 KCAL/MOL
REMARK 923 INTER-LIGAND FREE ENERGY PREDICTED BY IDOCK:   -6.71 KCAL/MOL
REMARK 924 INTRA-LIGAND FREE ENERGY PREDICTED BY IDOCK:   -1.66 KCAL/MOL
REMARK 927      BINDING AFFINITY PREDICTED BY RF-SCORE:    0.00 PKD
ROOT
HETATM    1  O   UNL     1      -5.576  14.945  70.564  1.00  0.00    -0.129 OA 
HETATM    2  C   UNL     1      -6.299  15.590  69.677  1.00  0.00    -0.163 A  
HETATM    3  H   UNL     1      -5.409  14.012  70.497  1.00  0.00     0.000 HD 
HETATM    4  N   UNL     1      -6.528  16.870  69.768  1.00  0.00    -0.181 NA 
HETATM    5  C   UNL     1      -7.345  17.142  68.701  1.00  0.00    -0.238 A  
HETATM    6  C   UNL     1      -7.952  18.354  68.344  1.00  0.00    -0.325 A  
HETATM    7  C   UNL     1      -8.763  18.389  67.203  1.00  0.00    -0.260 A  
HETATM    8  C   UNL     1      -8.944  17.252  66.420  1.00  0.00    -0.282 A  
HETATM    9  C   UNL     1      -8.343  16.034  66.755  1.00  0.00    -0.305 A  
HETATM   10  C   UNL     1      -7.574  16.003  67.924  1.00  0.00    -0.132 A  
HETATM   11  N   UNL     1      -6.940  15.003  68.620  1.00  0.00    -0.106 NA 
ENDROOT
BRANCH  11  12
HETATM   12  C   UNL     1      -7.066  13.571  68.462  1.00  0.00    -0.108 C  
HETATM   13  C   UNL     1      -6.379  12.998  67.225  1.00  0.00     0.035 C  
HETATM   14  C   UNL     1      -6.372  11.476  67.379  1.00  0.00    -0.091 C  
HETATM   15  N   UNL     1      -7.718  10.894  67.540  1.00  0.00    -0.107 NA 
HETATM   16  C   UNL     1      -8.468  11.528  68.635  1.00  0.00    -0.115 C  
HETATM   17  C   UNL     1      -8.505  13.052  68.544  1.00  0.00    -0.048 C  
BRANCH  15  18
HETATM   18  C   UNL     1      -8.496  10.852  66.293  1.00  0.00    -0.166 C  
BRANCH  18  19
HETATM   19  C   UNL     1      -9.984  11.142  66.511  1.00  0.00    -0.252 C  
BRANCH  19  20
HETATM   20  C   UNL     1     -10.495  12.245  65.584  1.00  0.00    -0.293 C  
BRANCH  20  21
HETATM   21  C   UNL     1     -11.811  12.814  66.067  1.00  0.00    -0.439 C  
HETATM   22  O   UNL     1     -12.851  12.739  65.417  1.00  0.00    -0.586 OA 
BRANCH  21  23
HETATM   23  C   UNL     1     -11.822  13.528  67.372  1.00  0.00    -0.423 A  
HETATM   24  C   UNL     1     -11.637  14.917  67.360  1.00  0.00    -0.347 A  
HETATM   25  C   UNL     1     -11.609  15.628  68.559  1.00  0.00    -0.378 A  
HETATM   26  C   UNL     1     -11.781  14.953  69.761  1.00  0.00    -0.305 A  
HETATM   27  C   UNL     1     -11.980  13.577  69.786  1.00  0.00    -0.405 A  
HETATM   28  F   UNL     1     -11.753  15.636  70.911  1.00  0.00    -0.277 F  
HETATM   29  C   UNL     1     -12.001  12.857  68.589  1.00  0.00    -0.282 A  
ENDBRANCH  21  23
ENDBRANCH  20  21
ENDBRANCH  19  20
ENDBRANCH  18  19
ENDBRANCH  15  18
ENDBRANCH  11  12
TORSDOF 6
ENDMDL
MODEL      113
REMARK 921   NORMALIZED FREE ENERGY PREDICTED BY IDOCK:   -5.20 KCAL/MOL
REMARK 922        TOTAL FREE ENERGY PREDICTED BY IDOCK:   -8.33 KCAL/MOL
REMARK 923 INTER-LIGAND FREE ENERGY PREDICTED BY IDOCK:   -6.79 KCAL/MOL
REMARK 924 INTRA-LIGAND FREE ENERGY PREDICTED BY IDOCK:   -1.54 KCAL/MOL
REMARK 927      BINDING AFFINITY PREDICTED BY RF-SCORE:    0.00 PKD
ROOT
HETATM    1  O   UNL     1     -10.108  13.306  64.022  1.00  0.00    -0.742 OA 
HETATM    2  C   UNL     1     -10.527  13.186  65.262  1.00  0.00    -0.307 A  
HETATM    3  H   UNL     1      -9.612  12.622  63.588  1.00  0.00     0.000 HD 
HETATM    4  N   UNL     1     -11.207  14.124  65.857  1.00  0.00    -0.309 NA 
HETATM    5  C   UNL     1     -11.405  13.643  67.127  1.00  0.00    -0.319 A  
HETATM    6  C   UNL     1     -12.026  14.265  68.217  1.00  0.00    -0.346 A  
HETATM    7  C   UNL     1     -12.103  13.575  69.432  1.00  0.00    -0.340 A  
HETATM    8  C   UNL     1     -11.597  12.282  69.552  1.00  0.00    -0.366 A  
HETATM    9  C   UNL     1     -10.978  11.640  68.474  1.00  0.00    -0.264 A  
HETATM   10  C   UNL     1     -10.867  12.362  67.280  1.00  0.00    -0.243 A  
HETATM   11  N   UNL     1     -10.247  12.123  66.079  1.00  0.00    -0.231 NA 
ENDROOT
BRANCH  11  12
HETATM   12  C   UNL     1      -9.288  11.094  65.743  1.00  0.00    -0.214 C  
HETATM   13  C   UNL     1      -9.894   9.732  65.419  1.00  0.00    -0.365 C  
HETATM   14  C   UNL     1      -8.778   8.873  64.822  1.00  0.00    -0.127 C  
HETATM   15  N   UNL     1      -7.612   8.722  65.711  1.00  0.00    -0.085 NA 
HETATM   16  C   UNL     1      -7.089  10.019  66.165  1.00  0.00    -0.108 C  
HETATM   17  C   UNL     1      -8.157  10.929  66.765  1.00  0.00    -0.142 C  
BRANCH  15  18
HETATM   18  C   UNL     1      -7.840   7.799  66.832  1.00  0.00    -0.107 C  
BRANCH  18  19
HETATM   19  C   UNL     1      -6.964   8.113  68.049  1.00  0.00    -0.077 C  
BRANCH  19  20
HETATM   20  C   UNL     1      -6.895   6.938  69.024  1.00  0.00    -0.069 C  
BRANCH  20  21
HETATM   21  C   UNL     1      -8.273   6.413  69.363  1.00  0.00    -0.118 C  
HETATM   22  O   UNL     1      -8.663   5.296  69.031  1.00  0.00    -0.099 OA 
BRANCH  21  23
HETATM   23  C   UNL     1      -9.199   7.316  70.097  1.00  0.00    -0.152 A  
HETATM   24  C   UNL     1     -10.486   7.502  69.572  1.00  0.00    -0.227 A  
HETATM   25  C   UNL     1     -11.382   8.361  70.206  1.00  0.00    -0.131 A  
HETATM   26  C   UNL     1     -10.995   9.019  71.367  1.00  0.00    -0.324 A  
HETATM   27  C   UNL     1      -9.727   8.832  71.907  1.00  0.00    -0.386 A  
HETATM   28  F   UNL     1     -11.855   9.845  71.975  1.00  0.00    -0.431 F  
HETATM   29  C   UNL     1      -8.822   7.978  71.273  1.00  0.00    -0.163 A  
ENDBRANCH  21  23
ENDBRANCH  20  21
ENDBRANCH  19  20
ENDBRANCH  18  19
ENDBRANCH  15  18
ENDBRANCH  11  12
TORSDOF 6
ENDMDL
MODEL      114
REMARK 921   NORMALIZED FREE ENERGY PREDICTED BY IDOCK:   -5.19 KCAL/MOL
REMARK 922        TOTAL FREE ENERGY PREDICTED BY IDOCK:   -8.32 KCAL/MOL
REMARK 923 INTER-LIGAND FREE ENERGY PREDICTED BY IDOCK:   -7.89 KCAL/MOL
REMARK 924 INTRA-LIGAND FREE ENERGY PREDICTED BY IDOCK:   -0.43 KCAL/MOL
REMARK 927      BINDING AFFINITY PREDICTED BY RF-SCORE:    0.00 PKD
ROOT
HETATM    1  O   UNL     1      -8.067  10.055  70.473  1.00  0.00    -0.402 OA 
HETATM    2  C   UNL     1      -8.798   9.063  70.928  1.00  0.00    -0.240 A  
HETATM    3  H   UNL     1      -8.424  10.723  69.900  1.00  0.00     0.000 HD 
HETATM    4  N   UNL     1      -8.309   8.146  71.715  1.00  0.00    -0.130 NA 
HETATM    5  C   UNL     1      -9.356   7.283  71.918  1.00  0.00    -0.137 A  
HETATM    6  C   UNL     1      -9.378   6.080  72.636  1.00  0.00    -0.147 A  
HETATM    7  C   UNL     1     -10.574   5.355  72.697  1.00  0.00    -0.274 A  
HETATM    8  C   UNL     1     -11.729   5.830  72.080  1.00  0.00    -0.175 A  
HETATM    9  C   UNL     1     -11.730   7.031  71.362  1.00  0.00    -0.344 A  
HETATM   10  C   UNL     1     -10.515   7.720  71.271  1.00  0.00    -0.206 A  
HETATM   11  N   UNL     1     -10.103   8.836  70.584  1.00  0.00    -0.193 NA 
ENDROOT
BRANCH  11  12
HETATM   12  C   UNL     1     -10.781   9.547  69.523  1.00  0.00    -0.228 C  
HETATM   13  C   UNL     1      -9.970   9.713  68.241  1.00  0.00    -0.178 C  
HETATM   14  C   UNL     1     -10.931  10.220  67.163  1.00  0.00    -0.165 C  
HETATM   15  N   UNL     1     -11.602  11.483  67.519  1.00  0.00    -0.544 NA 
HETATM   16  C   UNL     1     -12.274  11.405  68.826  1.00  0.00    -0.033 C  
HETATM   17  C   UNL     1     -11.369  10.897  69.945  1.00  0.00    -0.381 C  
BRANCH  15  18
HETATM   18  C   UNL     1     -10.731  12.663  67.420  1.00  0.00    -0.229 C  
BRANCH  18  19
HETATM   19  C   UNL     1     -11.503  13.982  67.521  1.00  0.00    -0.369 C  
BRANCH  19  20
HETATM   20  C   UNL     1     -10.637  15.184  67.142  1.00  0.00    -0.295 C  
BRANCH  20  21
HETATM   21  C   UNL     1     -10.651  16.243  68.221  1.00  0.00    -0.300 C  
HETATM   22  O   UNL     1     -11.178  16.074  69.318  1.00  0.00    -0.302 OA 
BRANCH  21  23
HETATM   23  C   UNL     1     -10.029  17.559  67.911  1.00  0.00    -0.312 A  
HETATM   24  C   UNL     1      -8.909  17.946  68.659  1.00  0.00    -0.267 A  
HETATM   25  C   UNL     1      -8.308  19.183  68.427  1.00  0.00    -0.384 A  
HETATM   26  C   UNL     1      -8.818  20.019  67.442  1.00  0.00    -0.346 A  
HETATM   27  C   UNL     1      -9.920  19.640  66.682  1.00  0.00    -0.532 A  
HETATM   28  F   UNL     1      -8.242  21.206  67.220  1.00  0.00    -0.353 F  
HETATM   29  C   UNL     1     -10.532  18.406  66.915  1.00  0.00    -0.419 A  
ENDBRANCH  21  23
ENDBRANCH  20  21
ENDBRANCH  19  20
ENDBRANCH  18  19
ENDBRANCH  15  18
ENDBRANCH  11  12
TORSDOF 6
ENDMDL
MODEL      115
REMARK 921   NORMALIZED FREE ENERGY PREDICTED BY IDOCK:   -5.18 KCAL/MOL
REMARK 922        TOTAL FREE ENERGY PREDICTED BY IDOCK:   -8.30 KCAL/MOL
REMARK 923 INTER-LIGAND FREE ENERGY PREDICTED BY IDOCK:   -7.55 KCAL/MOL
REMARK 924 INTRA-LIGAND FREE ENERGY PREDICTED BY IDOCK:   -0.75 KCAL/MOL
REMARK 927      BINDING AFFINITY PREDICTED BY RF-SCORE:    0.00 PKD
ROOT
HETATM    1  O   UNL     1     -12.410  12.384  66.309  1.00  0.00    -0.577 OA 
HETATM    2  C   UNL     1     -11.525  13.350  66.413  1.00  0.00    -0.329 A  
HETATM    3  H   UNL     1     -12.225  11.498  66.597  1.00  0.00     0.000 HD 
HETATM    4  N   UNL     1     -11.778  14.566  66.018  1.00  0.00    -0.362 NA 
HETATM    5  C   UNL     1     -10.608  15.245  66.249  1.00  0.00    -0.309 A  
HETATM    6  C   UNL     1     -10.291  16.577  65.953  1.00  0.00    -0.365 A  
HETATM    7  C   UNL     1      -9.014  17.051  66.275  1.00  0.00    -0.282 A  
HETATM    8  C   UNL     1      -8.083  16.227  66.902  1.00  0.00    -0.270 A  
HETATM    9  C   UNL     1      -8.381  14.895  67.211  1.00  0.00    -0.233 A  
HETATM   10  C   UNL     1      -9.645  14.422  66.839  1.00  0.00    -0.256 A  
HETATM   11  N   UNL     1     -10.245  13.188  66.870  1.00  0.00    -0.243 NA 
ENDROOT
BRANCH  11  12
HETATM   12  C   UNL     1      -9.643  11.894  67.106  1.00  0.00    -0.186 C  
HETATM   13  C   UNL     1      -9.388  11.065  65.850  1.00  0.00    -0.229 C  
HETATM   14  C   UNL     1      -8.506   9.885  66.262  1.00  0.00    -0.128 C  
HETATM   15  N   UNL     1      -9.098   9.049  67.323  1.00  0.00    -0.133 NA 
HETATM   16  C   UNL     1      -9.494   9.842  68.497  1.00  0.00    -0.145 C  
HETATM   17  C   UNL     1     -10.371  11.043  68.152  1.00  0.00    -0.204 C  
BRANCH  15  18
HETATM   18  C   UNL     1     -10.188   8.182  66.852  1.00  0.00    -0.316 C  
BRANCH  18  19
HETATM   19  C   UNL     1      -9.776   6.711  66.752  1.00  0.00    -0.217 C  
BRANCH  19  20
HETATM   20  C   UNL     1     -10.785   5.786  67.434  1.00  0.00    -0.332 C  
BRANCH  20  21
HETATM   21  C   UNL     1     -10.193   5.119  68.656  1.00  0.00    -0.122 C  
HETATM   22  O   UNL     1      -9.519   4.093  68.599  1.00  0.00    -0.147 OA 
BRANCH  21  23
HETATM   23  C   UNL     1     -10.481   5.724  69.984  1.00  0.00    -0.353 A  
HETATM   24  C   UNL     1     -11.532   6.647  70.070  1.00  0.00    -0.434 A  
HETATM   25  C   UNL     1     -11.823   7.263  71.286  1.00  0.00    -0.340 A  
HETATM   26  C   UNL     1     -11.074   6.947  72.412  1.00  0.00    -0.260 A  
HETATM   27  C   UNL     1     -10.037   6.022  72.344  1.00  0.00    -0.199 A  
HETATM   28  F   UNL     1     -11.352   7.540  73.578  1.00  0.00    -0.352 F  
HETATM   29  C   UNL     1      -9.735   5.406  71.127  1.00  0.00    -0.229 A  
ENDBRANCH  21  23
ENDBRANCH  20  21
ENDBRANCH  19  20
ENDBRANCH  18  19
ENDBRANCH  15  18
ENDBRANCH  11  12
TORSDOF 6
ENDMDL
MODEL      116
REMARK 921   NORMALIZED FREE ENERGY PREDICTED BY IDOCK:   -5.14 KCAL/MOL
REMARK 922        TOTAL FREE ENERGY PREDICTED BY IDOCK:   -8.25 KCAL/MOL
REMARK 923 INTER-LIGAND FREE ENERGY PREDICTED BY IDOCK:   -7.14 KCAL/MOL
REMARK 924 INTRA-LIGAND FREE ENERGY PREDICTED BY IDOCK:   -1.11 KCAL/MOL
REMARK 927      BINDING AFFINITY PREDICTED BY RF-SCORE:    0.00 PKD
ROOT
HETATM    1  O   UNL     1     -11.634   6.318  68.015  1.00  0.00    -0.499 OA 
HETATM    2  C   UNL     1     -10.602   6.398  67.206  1.00  0.00    -0.314 A  
HETATM    3  H   UNL     1     -11.965   7.072  68.488  1.00  0.00     0.000 HD 
HETATM    4  N   UNL     1     -10.149   5.363  66.557  1.00  0.00    -0.195 NA 
HETATM    5  C   UNL     1      -9.058   5.843  65.876  1.00  0.00    -0.122 A  
HETATM    6  C   UNL     1      -8.151   5.149  65.065  1.00  0.00    -0.117 A  
HETATM    7  C   UNL     1      -7.097   5.857  64.477  1.00  0.00    -0.053 A  
HETATM    8  C   UNL     1      -6.964   7.230  64.668  1.00  0.00    -0.051 A  
HETATM    9  C   UNL     1      -7.862   7.944  65.470  1.00  0.00    -0.112 A  
HETATM   10  C   UNL     1      -8.882   7.213  66.090  1.00  0.00    -0.150 A  
HETATM   11  N   UNL     1      -9.854   7.527  67.007  1.00  0.00    -0.195 NA 
ENDROOT
BRANCH  11  12
HETATM   12  C   UNL     1      -9.986   8.720  67.814  1.00  0.00    -0.194 C  
HETATM   13  C   UNL     1     -10.778   9.851  67.165  1.00  0.00    -0.276 C  
HETATM   14  C   UNL     1     -11.052  10.892  68.253  1.00  0.00    -0.266 C  
HETATM   15  N   UNL     1      -9.828  11.414  68.889  1.00  0.00    -0.160 NA 
HETATM   16  C   UNL     1      -8.965  10.338  69.398  1.00  0.00    -0.176 C  
HETATM   17  C   UNL     1      -8.660   9.260  68.360  1.00  0.00    -0.124 C  
BRANCH  15  18
HETATM   18  C   UNL     1      -9.085  12.363  68.048  1.00  0.00    -0.195 C  
BRANCH  18  19
HETATM   19  C   UNL     1      -9.792  13.714  67.909  1.00  0.00    -0.237 C  
BRANCH  19  20
HETATM   20  C   UNL     1      -8.973  14.707  67.083  1.00  0.00    -0.240 C  
BRANCH  20  21
HETATM   21  C   UNL     1      -9.703  15.118  65.823  1.00  0.00    -0.344 C  
HETATM   22  O   UNL     1      -9.609  16.240  65.331  1.00  0.00    -0.448 OA 
BRANCH  21  23
HETATM   23  C   UNL     1     -10.601  14.120  65.184  1.00  0.00    -0.414 A  
HETATM   24  C   UNL     1     -11.976  14.215  65.443  1.00  0.00    -0.382 A  
HETATM   25  C   UNL     1     -12.857  13.285  64.892  1.00  0.00    -0.321 A  
HETATM   26  C   UNL     1     -12.364  12.275  64.074  1.00  0.00    -0.475 A  
HETATM   27  C   UNL     1     -11.005  12.179  63.797  1.00  0.00    -0.494 A  
HETATM   28  F   UNL     1     -13.210  11.382  63.547  1.00  0.00    -0.361 F  
HETATM   29  C   UNL     1     -10.116  13.102  64.352  1.00  0.00    -0.224 A  
ENDBRANCH  21  23
ENDBRANCH  20  21
ENDBRANCH  19  20
ENDBRANCH  18  19
ENDBRANCH  15  18
ENDBRANCH  11  12
TORSDOF 6
ENDMDL
MODEL      117
REMARK 921   NORMALIZED FREE ENERGY PREDICTED BY IDOCK:   -5.14 KCAL/MOL
REMARK 922        TOTAL FREE ENERGY PREDICTED BY IDOCK:   -8.25 KCAL/MOL
REMARK 923 INTER-LIGAND FREE ENERGY PREDICTED BY IDOCK:   -6.99 KCAL/MOL
REMARK 924 INTRA-LIGAND FREE ENERGY PREDICTED BY IDOCK:   -1.26 KCAL/MOL
REMARK 927      BINDING AFFINITY PREDICTED BY RF-SCORE:    0.00 PKD
ROOT
HETATM    1  O   UNL     1     -10.100   5.558  67.626  1.00  0.00    -0.152 OA 
HETATM    2  C   UNL     1     -10.463   6.389  68.577  1.00  0.00    -0.224 A  
HETATM    3  H   UNL     1      -9.556   5.832  66.897  1.00  0.00     0.000 HD 
HETATM    4  N   UNL     1     -11.208   6.013  69.578  1.00  0.00    -0.403 NA 
HETATM    5  C   UNL     1     -11.398   7.161  70.306  1.00  0.00    -0.269 A  
HETATM    6  C   UNL     1     -12.175   7.355  71.456  1.00  0.00    -0.368 A  
HETATM    7  C   UNL     1     -12.226   8.633  72.024  1.00  0.00    -0.439 A  
HETATM    8  C   UNL     1     -11.498   9.687  71.478  1.00  0.00    -0.439 A  
HETATM    9  C   UNL     1     -10.712   9.514  70.334  1.00  0.00    -0.341 A  
HETATM   10  C   UNL     1     -10.710   8.242  69.749  1.00  0.00    -0.221 A  
HETATM   11  N   UNL     1     -10.171   7.726  68.596  1.00  0.00    -0.197 NA 
ENDROOT
BRANCH  11  12
HETATM   12  C   UNL     1      -9.598   8.431  67.471  1.00  0.00    -0.154 C  
HETATM   13  C   UNL     1      -8.279   9.141  67.761  1.00  0.00    -0.109 C  
HETATM   14  C   UNL     1      -7.695   9.574  66.416  1.00  0.00    -0.097 C  
HETATM   15  N   UNL     1      -8.593  10.447  65.638  1.00  0.00    -0.161 NA 
HETATM   16  C   UNL     1      -9.928   9.855  65.463  1.00  0.00    -0.292 C  
HETATM   17  C   UNL     1     -10.564   9.393  66.772  1.00  0.00    -0.210 C  
BRANCH  15  18
HETATM   18  C   UNL     1      -8.665  11.824  66.147  1.00  0.00    -0.057 C  
BRANCH  18  19
HETATM   19  C   UNL     1      -7.448  12.210  66.992  1.00  0.00    -0.086 C  
BRANCH  19  20
HETATM   20  C   UNL     1      -7.847  12.962  68.262  1.00  0.00    -0.142 C  
BRANCH  20  21
HETATM   21  C   UNL     1      -8.653  14.202  67.946  1.00  0.00    -0.178 C  
HETATM   22  O   UNL     1      -8.329  15.006  67.075  1.00  0.00    -0.202 OA 
BRANCH  21  23
HETATM   23  C   UNL     1      -9.868  14.467  68.762  1.00  0.00    -0.220 A  
HETATM   24  C   UNL     1     -10.801  13.431  68.904  1.00  0.00    -0.253 A  
HETATM   25  C   UNL     1     -11.970  13.638  69.634  1.00  0.00    -0.402 A  
HETATM   26  C   UNL     1     -12.196  14.873  70.230  1.00  0.00    -0.335 A  
HETATM   27  C   UNL     1     -11.272  15.905  70.110  1.00  0.00    -0.368 A  
HETATM   28  F   UNL     1     -13.319  15.072  70.929  1.00  0.00    -0.403 F  
HETATM   29  C   UNL     1     -10.102  15.706  69.373  1.00  0.00    -0.269 A  
ENDBRANCH  21  23
ENDBRANCH  20  21
ENDBRANCH  19  20
ENDBRANCH  18  19
ENDBRANCH  15  18
ENDBRANCH  11  12
TORSDOF 6
ENDMDL
MODEL      118
REMARK 921   NORMALIZED FREE ENERGY PREDICTED BY IDOCK:   -5.14 KCAL/MOL
REMARK 922        TOTAL FREE ENERGY PREDICTED BY IDOCK:   -8.25 KCAL/MOL
REMARK 923 INTER-LIGAND FREE ENERGY PREDICTED BY IDOCK:   -8.11 KCAL/MOL
REMARK 924 INTRA-LIGAND FREE ENERGY PREDICTED BY IDOCK:   -0.13 KCAL/MOL
REMARK 927      BINDING AFFINITY PREDICTED BY RF-SCORE:    0.00 PKD
ROOT
HETATM    1  O   UNL     1      -9.214  11.048  63.166  1.00  0.00    -0.255 OA 
HETATM    2  C   UNL     1      -9.166  10.144  64.118  1.00  0.00    -0.270 A  
HETATM    3  H   UNL     1      -9.678  11.870  63.273  1.00  0.00     0.000 HD 
HETATM    4  N   UNL     1      -8.530   9.016  63.971  1.00  0.00    -0.181 NA 
HETATM    5  C   UNL     1      -8.756   8.346  65.147  1.00  0.00    -0.083 A  
HETATM    6  C   UNL     1      -8.359   7.054  65.514  1.00  0.00    -0.135 A  
HETATM    7  C   UNL     1      -8.720   6.573  66.778  1.00  0.00    -0.123 A  
HETATM    8  C   UNL     1      -9.437   7.370  67.667  1.00  0.00    -0.156 A  
HETATM    9  C   UNL     1      -9.839   8.665  67.323  1.00  0.00    -0.256 A  
HETATM   10  C   UNL     1      -9.512   9.114  66.038  1.00  0.00    -0.255 A  
HETATM   11  N   UNL     1      -9.818  10.242  65.318  1.00  0.00    -0.286 NA 
ENDROOT
BRANCH  11  12
HETATM   12  C   UNL     1     -10.802  11.261  65.607  1.00  0.00    -0.177 C  
HETATM   13  C   UNL     1     -11.375  11.968  64.382  1.00  0.00    -0.411 C  
HETATM   14  C   UNL     1     -12.578  12.786  64.855  1.00  0.00    -0.470 C  
HETATM   15  N   UNL     1     -12.248  13.763  65.909  1.00  0.00    -0.438 NA 
HETATM   16  C   UNL     1     -11.558  13.138  67.048  1.00  0.00    -0.359 C  
HETATM   17  C   UNL     1     -10.350  12.298  66.641  1.00  0.00    -0.237 C  
BRANCH  15  18
HETATM   18  C   UNL     1     -11.529  14.945  65.413  1.00  0.00    -0.320 C  
BRANCH  18  19
HETATM   19  C   UNL     1     -10.933  15.794  66.540  1.00  0.00    -0.165 C  
BRANCH  19  20
HETATM   20  C   UNL     1      -9.628  16.472  66.119  1.00  0.00    -0.344 C  
BRANCH  20  21
HETATM   21  C   UNL     1      -9.760  17.979  66.114  1.00  0.00    -0.212 C  
HETATM   22  O   UNL     1     -10.639  18.572  65.493  1.00  0.00    -0.621 OA 
BRANCH  21  23
HETATM   23  C   UNL     1      -8.747  18.766  66.866  1.00  0.00    -0.298 A  
HETATM   24  C   UNL     1      -8.050  19.767  66.175  1.00  0.00    -0.357 A  
HETATM   25  C   UNL     1      -7.069  20.513  66.828  1.00  0.00    -0.331 A  
HETATM   26  C   UNL     1      -6.801  20.268  68.169  1.00  0.00    -0.289 A  
HETATM   27  C   UNL     1      -7.496  19.289  68.871  1.00  0.00    -0.397 A  
HETATM   28  F   UNL     1      -5.859  20.983  68.795  1.00  0.00    -0.348 F  
HETATM   29  C   UNL     1      -8.474  18.532  68.221  1.00  0.00    -0.341 A  
ENDBRANCH  21  23
ENDBRANCH  20  21
ENDBRANCH  19  20
ENDBRANCH  18  19
ENDBRANCH  15  18
ENDBRANCH  11  12
TORSDOF 6
ENDMDL
MODEL      119
REMARK 921   NORMALIZED FREE ENERGY PREDICTED BY IDOCK:   -5.14 KCAL/MOL
REMARK 922        TOTAL FREE ENERGY PREDICTED BY IDOCK:   -8.25 KCAL/MOL
REMARK 923 INTER-LIGAND FREE ENERGY PREDICTED BY IDOCK:   -7.22 KCAL/MOL
REMARK 924 INTRA-LIGAND FREE ENERGY PREDICTED BY IDOCK:   -1.02 KCAL/MOL
REMARK 927      BINDING AFFINITY PREDICTED BY RF-SCORE:    0.00 PKD
ROOT
HETATM    1  O   UNL     1     -10.870   9.694  68.750  1.00  0.00    -0.287 OA 
HETATM    2  C   UNL     1     -11.502  10.589  69.474  1.00  0.00    -0.272 A  
HETATM    3  H   UNL     1     -10.817   8.781  69.008  1.00  0.00     0.000 HD 
HETATM    4  N   UNL     1     -11.575  11.841  69.120  1.00  0.00    -0.283 NA 
HETATM    5  C   UNL     1     -12.260  12.442  70.146  1.00  0.00    -0.229 A  
HETATM    6  C   UNL     1     -12.572  13.797  70.321  1.00  0.00    -0.288 A  
HETATM    7  C   UNL     1     -13.278  14.181  71.466  1.00  0.00    -0.423 A  
HETATM    8  C   UNL     1     -13.691  13.235  72.402  1.00  0.00    -0.678 A  
HETATM    9  C   UNL     1     -13.395  11.877  72.244  1.00  0.00    -0.212 A  
HETATM   10  C   UNL     1     -12.646  11.515  71.118  1.00  0.00    -0.359 A  
HETATM   11  N   UNL     1     -12.082  10.339  70.689  1.00  0.00    -0.313 NA 
ENDROOT
BRANCH  11  12
HETATM   12  C   UNL     1     -11.899   9.104  71.418  1.00  0.00    -0.345 C  
HETATM   13  C   UNL     1     -10.573   8.989  72.164  1.00  0.00    -0.209 C  
HETATM   14  C   UNL     1     -10.679   7.774  73.088  1.00  0.00    -0.351 C  
HETATM   15  N   UNL     1     -10.984   6.519  72.376  1.00  0.00    -0.236 NA 
HETATM   16  C   UNL     1     -12.179   6.639  71.527  1.00  0.00    -0.340 C  
HETATM   17  C   UNL     1     -12.138   7.840  70.586  1.00  0.00    -0.030 C  
BRANCH  15  18
HETATM   18  C   UNL     1      -9.839   5.966  71.638  1.00  0.00    -0.165 C  
BRANCH  18  19
HETATM   19  C   UNL     1     -10.019   4.487  71.284  1.00  0.00    -0.258 C  
BRANCH  19  20
HETATM   20  C   UNL     1      -8.935   3.991  70.326  1.00  0.00    -0.158 C  
BRANCH  20  21
HETATM   21  C   UNL     1      -9.459   3.857  68.913  1.00  0.00    -0.163 C  
HETATM   22  O   UNL     1      -9.782   2.779  68.418  1.00  0.00    -0.114 OA 
BRANCH  21  23
HETATM   23  C   UNL     1      -9.545   5.089  68.084  1.00  0.00    -0.182 A  
HETATM   24  C   UNL     1      -8.349   5.745  67.760  1.00  0.00    -0.104 A  
HETATM   25  C   UNL     1      -8.378   6.920  67.010  1.00  0.00    -0.121 A  
HETATM   26  C   UNL     1      -9.597   7.427  66.577  1.00  0.00    -0.164 A  
HETATM   27  C   UNL     1     -10.789   6.778  66.879  1.00  0.00    -0.402 A  
HETATM   28  F   UNL     1      -9.624   8.556  65.859  1.00  0.00    -0.277 F  
HETATM   29  C   UNL     1     -10.769   5.605  67.636  1.00  0.00    -0.260 A  
ENDBRANCH  21  23
ENDBRANCH  20  21
ENDBRANCH  19  20
ENDBRANCH  18  19
ENDBRANCH  15  18
ENDBRANCH  11  12
TORSDOF 6
ENDMDL
MODEL      120
REMARK 921   NORMALIZED FREE ENERGY PREDICTED BY IDOCK:   -5.12 KCAL/MOL
REMARK 922        TOTAL FREE ENERGY PREDICTED BY IDOCK:   -8.22 KCAL/MOL
REMARK 923 INTER-LIGAND FREE ENERGY PREDICTED BY IDOCK:   -7.25 KCAL/MOL
REMARK 924 INTRA-LIGAND FREE ENERGY PREDICTED BY IDOCK:   -0.97 KCAL/MOL
REMARK 927      BINDING AFFINITY PREDICTED BY RF-SCORE:    0.00 PKD
ROOT
HETATM    1  O   UNL     1     -10.601  10.688  69.996  1.00  0.00    -0.429 OA 
HETATM    2  C   UNL     1     -10.117   9.687  69.295  1.00  0.00    -0.193 A  
HETATM    3  H   UNL     1     -10.560  11.586  69.689  1.00  0.00     0.000 HD 
HETATM    4  N   UNL     1     -10.173   8.455  69.717  1.00  0.00    -0.202 NA 
HETATM    5  C   UNL     1      -9.530   7.736  68.741  1.00  0.00    -0.149 A  
HETATM    6  C   UNL     1      -9.241   6.366  68.704  1.00  0.00    -0.125 A  
HETATM    7  C   UNL     1      -8.557   5.853  67.596  1.00  0.00    -0.102 A  
HETATM    8  C   UNL     1      -8.193   6.680  66.536  1.00  0.00    -0.114 A  
HETATM    9  C   UNL     1      -8.476   8.050  66.550  1.00  0.00    -0.137 A  
HETATM   10  C   UNL     1      -9.118   8.556  67.686  1.00  0.00    -0.135 A  
HETATM   11  N   UNL     1      -9.452   9.819  68.106  1.00  0.00    -0.135 NA 
ENDROOT
BRANCH  11  12
HETATM   12  C   UNL     1      -9.023  11.094  67.573  1.00  0.00    -0.139 C  
HETATM   13  C   UNL     1      -8.046  11.864  68.455  1.00  0.00    -0.130 C  
HETATM   14  C   UNL     1      -7.496  13.019  67.616  1.00  0.00    -0.156 C  
HETATM   15  N   UNL     1      -8.542  13.918  67.095  1.00  0.00    -0.214 NA 
HETATM   16  C   UNL     1      -9.585  13.187  66.360  1.00  0.00    -0.255 C  
HETATM   17  C   UNL     1     -10.171  12.014  67.142  1.00  0.00    -0.221 C  
BRANCH  15  18
HETATM   18  C   UNL     1      -9.111  14.814  68.112  1.00  0.00    -0.180 C  
BRANCH  18  19
HETATM   19  C   UNL     1      -9.877  15.992  67.504  1.00  0.00    -0.235 C  
BRANCH  19  20
HETATM   20  C   UNL     1     -11.058  16.419  68.376  1.00  0.00    -0.351 C  
BRANCH  20  21
HETATM   21  C   UNL     1     -11.894  15.233  68.803  1.00  0.00    -0.307 C  
HETATM   22  O   UNL     1     -12.380  14.435  68.006  1.00  0.00    -0.201 OA 
BRANCH  21  23
HETATM   23  C   UNL     1     -12.162  15.060  70.256  1.00  0.00    -0.390 A  
HETATM   24  C   UNL     1     -11.718  16.063  71.129  1.00  0.00    -0.487 A  
HETATM   25  C   UNL     1     -11.919  15.934  72.502  1.00  0.00    -0.622 A  
HETATM   26  C   UNL     1     -12.575  14.814  72.997  1.00  0.00    -0.404 A  
HETATM   27  C   UNL     1     -13.034  13.818  72.141  1.00  0.00    -0.437 A  
HETATM   28  F   UNL     1     -12.766  14.689  74.315  1.00  0.00    -0.471 F  
HETATM   29  C   UNL     1     -12.829  13.937  70.764  1.00  0.00    -0.329 A  
ENDBRANCH  21  23
ENDBRANCH  20  21
ENDBRANCH  19  20
ENDBRANCH  18  19
ENDBRANCH  15  18
ENDBRANCH  11  12
TORSDOF 6
ENDMDL
MODEL      121
REMARK 921   NORMALIZED FREE ENERGY PREDICTED BY IDOCK:   -5.11 KCAL/MOL
REMARK 922        TOTAL FREE ENERGY PREDICTED BY IDOCK:   -8.21 KCAL/MOL
REMARK 923 INTER-LIGAND FREE ENERGY PREDICTED BY IDOCK:   -7.69 KCAL/MOL
REMARK 924 INTRA-LIGAND FREE ENERGY PREDICTED BY IDOCK:   -0.53 KCAL/MOL
REMARK 927      BINDING AFFINITY PREDICTED BY RF-SCORE:    0.00 PKD
ROOT
HETATM    1  O   UNL     1     -11.654   6.806  66.987  1.00  0.00    -0.681 OA 
HETATM    2  C   UNL     1     -10.698   5.907  66.925  1.00  0.00    -0.321 A  
HETATM    3  H   UNL     1     -11.700   7.447  67.687  1.00  0.00     0.000 HD 
HETATM    4  N   UNL     1     -10.635   5.028  65.964  1.00  0.00    -0.277 NA 
HETATM    5  C   UNL     1      -9.545   4.259  66.283  1.00  0.00    -0.196 A  
HETATM    6  C   UNL     1      -9.046   3.125  65.629  1.00  0.00    -0.152 A  
HETATM    7  C   UNL     1      -7.913   2.490  66.152  1.00  0.00    -0.082 A  
HETATM    8  C   UNL     1      -7.274   2.990  67.284  1.00  0.00    -0.058 A  
HETATM    9  C   UNL     1      -7.751   4.124  67.949  1.00  0.00    -0.071 A  
HETATM   10  C   UNL     1      -8.913   4.718  67.442  1.00  0.00    -0.109 A  
HETATM   11  N   UNL     1      -9.722   5.742  67.870  1.00  0.00    -0.116 NA 
ENDROOT
BRANCH  11  12
HETATM   12  C   UNL     1      -9.738   6.406  69.154  1.00  0.00    -0.136 C  
HETATM   13  C   UNL     1     -10.854   5.960  70.095  1.00  0.00    -0.402 C  
HETATM   14  C   UNL     1     -10.543   6.546  71.473  1.00  0.00    -0.229 C  
HETATM   15  N   UNL     1     -10.423   8.016  71.474  1.00  0.00    -0.212 NA 
HETATM   16  C   UNL     1      -9.458   8.494  70.471  1.00  0.00    -0.170 C  
HETATM   17  C   UNL     1      -9.710   7.936  69.072  1.00  0.00    -0.162 C  
BRANCH  15  18
HETATM   18  C   UNL     1     -11.712   8.714  71.372  1.00  0.00    -0.297 C  
BRANCH  18  19
HETATM   19  C   UNL     1     -11.558  10.230  71.228  1.00  0.00    -0.318 C  
BRANCH  19  20
HETATM   20  C   UNL     1     -12.897  10.922  70.970  1.00  0.00    -0.472 C  
BRANCH  20  21
HETATM   21  C   UNL     1     -12.890  12.352  71.462  1.00  0.00    -0.274 C  
HETATM   22  O   UNL     1     -13.335  12.685  72.558  1.00  0.00    -0.446 OA 
BRANCH  21  23
HETATM   23  C   UNL     1     -12.353  13.397  70.550  1.00  0.00    -0.401 A  
HETATM   24  C   UNL     1     -12.371  14.726  70.995  1.00  0.00    -0.397 A  
HETATM   25  C   UNL     1     -11.906  15.747  70.166  1.00  0.00    -0.369 A  
HETATM   26  C   UNL     1     -11.414  15.434  68.905  1.00  0.00    -0.342 A  
HETATM   27  C   UNL     1     -11.376  14.118  68.457  1.00  0.00    -0.312 A  
HETATM   28  F   UNL     1     -10.969  16.414  68.109  1.00  0.00    -0.307 F  
HETATM   29  C   UNL     1     -11.848  13.092  69.279  1.00  0.00    -0.377 A  
ENDBRANCH  21  23
ENDBRANCH  20  21
ENDBRANCH  19  20
ENDBRANCH  18  19
ENDBRANCH  15  18
ENDBRANCH  11  12
TORSDOF 6
ENDMDL
MODEL      122
REMARK 921   NORMALIZED FREE ENERGY PREDICTED BY IDOCK:   -5.11 KCAL/MOL
REMARK 922        TOTAL FREE ENERGY PREDICTED BY IDOCK:   -8.21 KCAL/MOL
REMARK 923 INTER-LIGAND FREE ENERGY PREDICTED BY IDOCK:   -7.98 KCAL/MOL
REMARK 924 INTRA-LIGAND FREE ENERGY PREDICTED BY IDOCK:   -0.23 KCAL/MOL
REMARK 927      BINDING AFFINITY PREDICTED BY RF-SCORE:    0.00 PKD
ROOT
HETATM    1  O   UNL     1      -8.651   9.110  71.316  1.00  0.00    -0.278 OA 
HETATM    2  C   UNL     1      -9.924   8.804  71.431  1.00  0.00    -0.283 A  
HETATM    3  H   UNL     1      -8.362   9.935  70.944  1.00  0.00     0.000 HD 
HETATM    4  N   UNL     1     -10.321   7.673  71.941  1.00  0.00    -0.195 NA 
HETATM    5  C   UNL     1     -11.688   7.719  71.840  1.00  0.00    -0.292 A  
HETATM    6  C   UNL     1     -12.629   6.738  72.179  1.00  0.00    -0.163 A  
HETATM    7  C   UNL     1     -13.987   7.009  71.974  1.00  0.00    -0.210 A  
HETATM    8  C   UNL     1     -14.401   8.240  71.470  1.00  0.00    -0.525 A  
HETATM    9  C   UNL     1     -13.478   9.236  71.130  1.00  0.00    -0.224 A  
HETATM   10  C   UNL     1     -12.122   8.931  71.295  1.00  0.00    -0.306 A  
HETATM   11  N   UNL     1     -10.956   9.582  70.979  1.00  0.00    -0.326 NA 
ENDROOT
BRANCH  11  12
HETATM   12  C   UNL     1     -10.766  10.744  70.139  1.00  0.00     0.013 C  
HETATM   13  C   UNL     1     -11.997  11.633  69.985  1.00  0.00    -0.429 C  
HETATM   14  C   UNL     1     -11.534  12.929  69.317  1.00  0.00    -0.282 C  
HETATM   15  N   UNL     1     -10.881  12.718  68.012  1.00  0.00    -0.225 NA 
HETATM   16  C   UNL     1      -9.778  11.749  68.094  1.00  0.00    -0.192 C  
HETATM   17  C   UNL     1     -10.173  10.433  68.760  1.00  0.00    -0.201 C  
BRANCH  15  18
HETATM   18  C   UNL     1     -11.819  12.392  66.928  1.00  0.00    -0.307 C  
BRANCH  18  19
HETATM   19  C   UNL     1     -12.081  13.576  65.993  1.00  0.00    -0.489 C  
BRANCH  19  20
HETATM   20  C   UNL     1     -11.746  14.914  66.653  1.00  0.00    -0.225 C  
BRANCH  20  21
HETATM   21  C   UNL     1     -10.767  15.715  65.824  1.00  0.00    -0.341 C  
HETATM   22  O   UNL     1     -10.737  15.672  64.596  1.00  0.00    -0.431 OA 
BRANCH  21  23
HETATM   23  C   UNL     1      -9.776  16.560  66.543  1.00  0.00    -0.290 A  
HETATM   24  C   UNL     1     -10.248  17.405  67.557  1.00  0.00    -0.332 A  
HETATM   25  C   UNL     1      -9.363  18.238  68.241  1.00  0.00    -0.320 A  
HETATM   26  C   UNL     1      -8.012  18.214  67.919  1.00  0.00    -0.246 A  
HETATM   27  C   UNL     1      -7.528  17.370  66.926  1.00  0.00    -0.244 A  
HETATM   28  F   UNL     1      -7.164  19.014  68.574  1.00  0.00    -0.274 F  
HETATM   29  C   UNL     1      -8.410  16.538  66.231  1.00  0.00    -0.364 A  
ENDBRANCH  21  23
ENDBRANCH  20  21
ENDBRANCH  19  20
ENDBRANCH  18  19
ENDBRANCH  15  18
ENDBRANCH  11  12
TORSDOF 6
ENDMDL
MODEL      123
REMARK 921   NORMALIZED FREE ENERGY PREDICTED BY IDOCK:   -5.11 KCAL/MOL
REMARK 922        TOTAL FREE ENERGY PREDICTED BY IDOCK:   -8.21 KCAL/MOL
REMARK 923 INTER-LIGAND FREE ENERGY PREDICTED BY IDOCK:   -7.48 KCAL/MOL
REMARK 924 INTRA-LIGAND FREE ENERGY PREDICTED BY IDOCK:   -0.73 KCAL/MOL
REMARK 927      BINDING AFFINITY PREDICTED BY RF-SCORE:    0.00 PKD
ROOT
HETATM    1  O   UNL     1     -11.424  11.251  70.476  1.00  0.00    -0.461 OA 
HETATM    2  C   UNL     1     -11.195   9.962  70.371  1.00  0.00    -0.313 A  
HETATM    3  H   UNL     1     -11.016  11.885  69.898  1.00  0.00     0.000 HD 
HETATM    4  N   UNL     1     -11.755   9.092  71.163  1.00  0.00    -0.288 NA 
HETATM    5  C   UNL     1     -11.229   7.888  70.768  1.00  0.00    -0.266 A  
HETATM    6  C   UNL     1     -11.433   6.615  71.316  1.00  0.00    -0.360 A  
HETATM    7  C   UNL     1     -10.773   5.522  70.743  1.00  0.00    -0.294 A  
HETATM    8  C   UNL     1      -9.950   5.688  69.632  1.00  0.00    -0.267 A  
HETATM    9  C   UNL     1      -9.736   6.948  69.065  1.00  0.00    -0.150 A  
HETATM   10  C   UNL     1     -10.365   8.038  69.679  1.00  0.00    -0.220 A  
HETATM   11  N   UNL     1     -10.312   9.397  69.491  1.00  0.00    -0.204 NA 
ENDROOT
BRANCH  11  12
HETATM   12  C   UNL     1      -9.373  10.165  68.702  1.00  0.00    -0.161 C  
HETATM   13  C   UNL     1      -8.080  10.536  69.423  1.00  0.00    -0.136 C  
HETATM   14  C   UNL     1      -7.117  11.081  68.367  1.00  0.00    -0.074 C  
HETATM   15  N   UNL     1      -7.648  12.241  67.629  1.00  0.00    -0.132 NA 
HETATM   16  C   UNL     1      -8.969  11.967  67.041  1.00  0.00    -0.190 C  
HETATM   17  C   UNL     1      -9.976  11.411  68.044  1.00  0.00    -0.192 C  
BRANCH  15  18
HETATM   18  C   UNL     1      -7.641  13.489  68.405  1.00  0.00    -0.133 C  
BRANCH  18  19
HETATM   19  C   UNL     1      -7.728  14.738  67.523  1.00  0.00    -0.215 C  
BRANCH  19  20
HETATM   20  C   UNL     1      -8.617  15.817  68.143  1.00  0.00    -0.164 C  
BRANCH  20  21
HETATM   21  C   UNL     1     -10.051  15.354  68.267  1.00  0.00    -0.218 C  
HETATM   22  O   UNL     1     -10.621  15.221  69.347  1.00  0.00    -0.231 OA 
BRANCH  21  23
HETATM   23  C   UNL     1     -10.780  15.010  67.016  1.00  0.00    -0.304 A  
HETATM   24  C   UNL     1     -10.301  15.543  65.811  1.00  0.00    -0.384 A  
HETATM   25  C   UNL     1     -10.967  15.274  64.616  1.00  0.00    -0.322 A  
HETATM   26  C   UNL     1     -12.097  14.466  64.627  1.00  0.00    -0.471 A  
HETATM   27  C   UNL     1     -12.574  13.920  65.813  1.00  0.00    -0.533 A  
HETATM   28  F   UNL     1     -12.736  14.210  63.480  1.00  0.00    -0.322 F  
HETATM   29  C   UNL     1     -11.917  14.191  67.016  1.00  0.00    -0.471 A  
ENDBRANCH  21  23
ENDBRANCH  20  21
ENDBRANCH  19  20
ENDBRANCH  18  19
ENDBRANCH  15  18
ENDBRANCH  11  12
TORSDOF 6
ENDMDL
MODEL      124
REMARK 921   NORMALIZED FREE ENERGY PREDICTED BY IDOCK:   -5.11 KCAL/MOL
REMARK 922        TOTAL FREE ENERGY PREDICTED BY IDOCK:   -8.20 KCAL/MOL
REMARK 923 INTER-LIGAND FREE ENERGY PREDICTED BY IDOCK:   -7.74 KCAL/MOL
REMARK 924 INTRA-LIGAND FREE ENERGY PREDICTED BY IDOCK:   -0.47 KCAL/MOL
REMARK 927      BINDING AFFINITY PREDICTED BY RF-SCORE:    0.00 PKD
ROOT
HETATM    1  O   UNL     1     -11.463  15.906  64.031  1.00  0.00    -0.952 OA 
HETATM    2  C   UNL     1     -11.119  16.626  65.074  1.00  0.00    -0.115 A  
HETATM    3  H   UNL     1     -11.649  14.977  64.099  1.00  0.00     0.000 HD 
HETATM    4  N   UNL     1     -10.864  17.901  64.982  1.00  0.00    -0.646 NA 
HETATM    5  C   UNL     1     -10.502  18.265  66.254  1.00  0.00    -0.376 A  
HETATM    6  C   UNL     1     -10.064  19.511  66.722  1.00  0.00    -0.519 A  
HETATM    7  C   UNL     1      -9.737  19.644  68.077  1.00  0.00    -0.501 A  
HETATM    8  C   UNL     1      -9.870  18.568  68.952  1.00  0.00    -0.377 A  
HETATM    9  C   UNL     1     -10.311  17.317  68.507  1.00  0.00    -0.371 A  
HETATM   10  C   UNL     1     -10.588  17.188  67.141  1.00  0.00    -0.244 A  
HETATM   11  N   UNL     1     -10.923  16.129  66.334  1.00  0.00    -0.123 NA 
ENDROOT
BRANCH  11  12
HETATM   12  C   UNL     1     -10.875  14.714  66.632  1.00  0.00    -0.312 C  
HETATM   13  C   UNL     1      -9.490  14.083  66.532  1.00  0.00    -0.295 C  
HETATM   14  C   UNL     1      -9.587  12.685  67.147  1.00  0.00    -0.207 C  
HETATM   15  N   UNL     1     -10.595  11.826  66.500  1.00  0.00    -0.244 NA 
HETATM   16  C   UNL     1     -11.918  12.468  66.446  1.00  0.00    -0.318 C  
HETATM   17  C   UNL     1     -11.888  13.872  65.848  1.00  0.00    -0.399 C  
BRANCH  15  18
HETATM   18  C   UNL     1     -10.179  11.313  65.187  1.00  0.00    -0.289 C  
BRANCH  18  19
HETATM   19  C   UNL     1      -8.872  10.518  65.246  1.00  0.00    -0.205 C  
BRANCH  19  20
HETATM   20  C   UNL     1      -9.095   9.028  64.981  1.00  0.00    -0.171 C  
BRANCH  20  21
HETATM   21  C   UNL     1      -9.102   8.228  66.264  1.00  0.00    -0.188 C  
HETATM   22  O   UNL     1      -9.734   7.183  66.398  1.00  0.00    -0.159 OA 
BRANCH  21  23
HETATM   23  C   UNL     1      -8.336   8.765  67.421  1.00  0.00    -0.109 A  
HETATM   24  C   UNL     1      -9.060   9.312  68.490  1.00  0.00    -0.132 A  
HETATM   25  C   UNL     1      -8.388   9.854  69.584  1.00  0.00    -0.181 A  
HETATM   26  C   UNL     1      -7.000   9.836  69.614  1.00  0.00    -0.078 A  
HETATM   27  C   UNL     1      -6.269   9.284  68.568  1.00  0.00    -0.049 A  
HETATM   28  F   UNL     1      -6.355  10.359  70.663  1.00  0.00    -0.106 F  
HETATM   29  C   UNL     1      -6.935   8.745  67.464  1.00  0.00    -0.075 A  
ENDBRANCH  21  23
ENDBRANCH  20  21
ENDBRANCH  19  20
ENDBRANCH  18  19
ENDBRANCH  15  18
ENDBRANCH  11  12
TORSDOF 6
ENDMDL
MODEL      125
REMARK 921   NORMALIZED FREE ENERGY PREDICTED BY IDOCK:   -5.11 KCAL/MOL
REMARK 922        TOTAL FREE ENERGY PREDICTED BY IDOCK:   -8.20 KCAL/MOL
REMARK 923 INTER-LIGAND FREE ENERGY PREDICTED BY IDOCK:   -7.18 KCAL/MOL
REMARK 924 INTRA-LIGAND FREE ENERGY PREDICTED BY IDOCK:   -1.02 KCAL/MOL
REMARK 927      BINDING AFFINITY PREDICTED BY RF-SCORE:    0.00 PKD
ROOT
HETATM    1  O   UNL     1     -13.102   9.541  71.008  1.00  0.00    -0.499 OA 
HETATM    2  C   UNL     1     -12.124   8.797  71.472  1.00  0.00    -0.329 A  
HETATM    3  H   UNL     1     -13.119   9.849  70.110  1.00  0.00     0.000 HD 
HETATM    4  N   UNL     1     -12.099   8.374  72.704  1.00  0.00    -0.345 NA 
HETATM    5  C   UNL     1     -10.916   7.687  72.801  1.00  0.00    -0.377 A  
HETATM    6  C   UNL     1     -10.345   7.072  73.923  1.00  0.00    -0.386 A  
HETATM    7  C   UNL     1      -9.108   6.432  73.782  1.00  0.00    -0.143 A  
HETATM    8  C   UNL     1      -8.467   6.381  72.547  1.00  0.00    -0.123 A  
HETATM    9  C   UNL     1      -9.022   6.984  71.413  1.00  0.00    -0.139 A  
HETATM   10  C   UNL     1     -10.235   7.661  71.581  1.00  0.00    -0.185 A  
HETATM   11  N   UNL     1     -11.009   8.444  70.760  1.00  0.00    -0.242 NA 
ENDROOT
BRANCH  11  12
HETATM   12  C   UNL     1     -10.674   9.014  69.474  1.00  0.00    -0.206 C  
HETATM   13  C   UNL     1     -10.501   8.000  68.347  1.00  0.00    -0.205 C  
HETATM   14  C   UNL     1     -10.438   8.788  67.037  1.00  0.00    -0.268 C  
HETATM   15  N   UNL     1      -9.356   9.788  67.004  1.00  0.00    -0.145 NA 
HETATM   16  C   UNL     1      -9.404  10.696  68.160  1.00  0.00    -0.151 C  
HETATM   17  C   UNL     1      -9.476   9.970  69.501  1.00  0.00    -0.245 C  
BRANCH  15  18
HETATM   18  C   UNL     1      -8.019   9.206  66.818  1.00  0.00    -0.104 C  
BRANCH  18  19
HETATM   19  C   UNL     1      -7.564   9.218  65.356  1.00  0.00    -0.098 C  
BRANCH  19  20
HETATM   20  C   UNL     1      -7.757  10.589  64.707  1.00  0.00     0.000 C  
BRANCH  20  21
HETATM   21  C   UNL     1      -8.997  10.626  63.841  1.00  0.00    -0.192 C  
HETATM   22  O   UNL     1      -9.230   9.792  62.969  1.00  0.00    -0.266 OA 
BRANCH  21  23
HETATM   23  C   UNL     1      -9.949  11.752  64.040  1.00  0.00    -0.320 A  
HETATM   24  C   UNL     1     -11.083  11.804  63.218  1.00  0.00    -0.370 A  
HETATM   25  C   UNL     1     -11.990  12.855  63.345  1.00  0.00    -0.612 A  
HETATM   26  C   UNL     1     -11.769  13.840  64.300  1.00  0.00    -0.395 A  
HETATM   27  C   UNL     1     -10.656  13.792  65.133  1.00  0.00    -0.385 A  
HETATM   28  F   UNL     1     -12.639  14.849  64.420  1.00  0.00    -0.485 F  
HETATM   29  C   UNL     1      -9.739  12.746  65.006  1.00  0.00     0.034 A  
ENDBRANCH  21  23
ENDBRANCH  20  21
ENDBRANCH  19  20
ENDBRANCH  18  19
ENDBRANCH  15  18
ENDBRANCH  11  12
TORSDOF 6
ENDMDL
MODEL      126
REMARK 921   NORMALIZED FREE ENERGY PREDICTED BY IDOCK:   -5.10 KCAL/MOL
REMARK 922        TOTAL FREE ENERGY PREDICTED BY IDOCK:   -8.19 KCAL/MOL
REMARK 923 INTER-LIGAND FREE ENERGY PREDICTED BY IDOCK:   -7.18 KCAL/MOL
REMARK 924 INTRA-LIGAND FREE ENERGY PREDICTED BY IDOCK:   -1.01 KCAL/MOL
REMARK 927      BINDING AFFINITY PREDICTED BY RF-SCORE:    0.00 PKD
ROOT
HETATM    1  O   UNL     1     -11.490   9.020  69.492  1.00  0.00    -0.432 OA 
HETATM    2  C   UNL     1     -10.215   8.749  69.657  1.00  0.00    -0.210 A  
HETATM    3  H   UNL     1     -11.806   9.531  68.756  1.00  0.00     0.000 HD 
HETATM    4  N   UNL     1      -9.781   8.048  70.665  1.00  0.00    -0.173 NA 
HETATM    5  C   UNL     1      -8.418   8.034  70.504  1.00  0.00    -0.125 A  
HETATM    6  C   UNL     1      -7.439   7.474  71.336  1.00  0.00    -0.079 A  
HETATM    7  C   UNL     1      -6.094   7.596  70.967  1.00  0.00    -0.035 A  
HETATM    8  C   UNL     1      -5.734   8.234  69.783  1.00  0.00    -0.026 A  
HETATM    9  C   UNL     1      -6.695   8.795  68.936  1.00  0.00    -0.053 A  
HETATM   10  C   UNL     1      -8.031   8.707  69.342  1.00  0.00    -0.102 A  
HETATM   11  N   UNL     1      -9.209   9.216  68.854  1.00  0.00    -0.139 NA 
ENDROOT
BRANCH  11  12
HETATM   12  C   UNL     1      -9.407  10.230  67.841  1.00  0.00    -0.138 C  
HETATM   13  C   UNL     1      -9.815  11.600  68.374  1.00  0.00    -0.202 C  
HETATM   14  C   UNL     1      -9.697  12.588  67.212  1.00  0.00    -0.202 C  
HETATM   15  N   UNL     1     -10.517  12.222  66.042  1.00  0.00    -0.247 NA 
HETATM   16  C   UNL     1     -10.255  10.847  65.590  1.00  0.00    -0.263 C  
HETATM   17  C   UNL     1     -10.349   9.811  66.707  1.00  0.00    -0.289 C  
BRANCH  15  18
HETATM   18  C   UNL     1     -11.954  12.476  66.226  1.00  0.00    -0.343 C  
BRANCH  18  19
HETATM   19  C   UNL     1     -12.527  13.433  65.178  1.00  0.00    -0.509 C  
BRANCH  19  20
HETATM   20  C   UNL     1     -11.429  14.084  64.334  1.00  0.00    -0.357 C  
BRANCH  20  21
HETATM   21  C   UNL     1     -11.221  15.533  64.713  1.00  0.00    -0.390 C  
HETATM   22  O   UNL     1     -11.681  16.468  64.063  1.00  0.00    -1.111 OA 
BRANCH  21  23
HETATM   23  C   UNL     1     -10.384  15.825  65.908  1.00  0.00    -0.372 A  
HETATM   24  C   UNL     1     -11.036  15.994  67.138  1.00  0.00    -0.183 A  
HETATM   25  C   UNL     1     -10.299  16.298  68.283  1.00  0.00    -0.272 A  
HETATM   26  C   UNL     1      -8.918  16.418  68.197  1.00  0.00    -0.197 A  
HETATM   27  C   UNL     1      -8.258  16.239  66.986  1.00  0.00    -0.238 A  
HETATM   28  F   UNL     1      -8.212  16.712  69.295  1.00  0.00    -0.239 F  
HETATM   29  C   UNL     1      -8.990  15.942  65.834  1.00  0.00    -0.251 A  
ENDBRANCH  21  23
ENDBRANCH  20  21
ENDBRANCH  19  20
ENDBRANCH  18  19
ENDBRANCH  15  18
ENDBRANCH  11  12
TORSDOF 6
ENDMDL
MODEL      127
REMARK 921   NORMALIZED FREE ENERGY PREDICTED BY IDOCK:   -5.09 KCAL/MOL
REMARK 922        TOTAL FREE ENERGY PREDICTED BY IDOCK:   -8.18 KCAL/MOL
REMARK 923 INTER-LIGAND FREE ENERGY PREDICTED BY IDOCK:   -6.77 KCAL/MOL
REMARK 924 INTRA-LIGAND FREE ENERGY PREDICTED BY IDOCK:   -1.41 KCAL/MOL
REMARK 927      BINDING AFFINITY PREDICTED BY RF-SCORE:    0.00 PKD
ROOT
HETATM    1  O   UNL     1     -11.404   6.351  67.657  1.00  0.00    -0.625 OA 
HETATM    2  C   UNL     1     -10.996   6.675  68.863  1.00  0.00    -0.267 A  
HETATM    3  H   UNL     1     -10.883   6.528  66.884  1.00  0.00     0.000 HD 
HETATM    4  N   UNL     1     -11.711   6.432  69.926  1.00  0.00    -0.370 NA 
HETATM    5  C   UNL     1     -10.973   6.957  70.956  1.00  0.00    -0.252 A  
HETATM    6  C   UNL     1     -11.292   7.032  72.318  1.00  0.00    -0.305 A  
HETATM    7  C   UNL     1     -10.376   7.629  73.192  1.00  0.00    -0.411 A  
HETATM    8  C   UNL     1      -9.157   8.115  72.725  1.00  0.00    -0.328 A  
HETATM    9  C   UNL     1      -8.816   8.045  71.370  1.00  0.00    -0.170 A  
HETATM   10  C   UNL     1      -9.763   7.488  70.502  1.00  0.00    -0.179 A  
HETATM   11  N   UNL     1      -9.839   7.352  69.138  1.00  0.00    -0.165 NA 
ENDROOT
BRANCH  11  12
HETATM   12  C   UNL     1      -9.019   7.971  68.119  1.00  0.00    -0.135 C  
HETATM   13  C   UNL     1      -7.515   7.806  68.318  1.00  0.00    -0.104 C  
HETATM   14  C   UNL     1      -6.838   8.263  67.024  1.00  0.00    -0.070 C  
HETATM   15  N   UNL     1      -7.162   9.651  66.648  1.00  0.00    -0.086 NA 
HETATM   16  C   UNL     1      -8.613   9.886  66.591  1.00  0.00    -0.125 C  
HETATM   17  C   UNL     1      -9.350   9.443  67.852  1.00  0.00    -0.142 C  
BRANCH  15  18
HETATM   18  C   UNL     1      -6.474  10.660  67.466  1.00  0.00    -0.058 C  
BRANCH  18  19
HETATM   19  C   UNL     1      -6.819  12.094  67.054  1.00  0.00    -0.067 C  
BRANCH  19  20
HETATM   20  C   UNL     1      -7.369  12.911  68.224  1.00  0.00    -0.118 C  
BRANCH  20  21
HETATM   21  C   UNL     1      -8.280  14.021  67.749  1.00  0.00    -0.168 C  
HETATM   22  O   UNL     1      -8.027  15.212  67.916  1.00  0.00    -0.122 OA 
BRANCH  21  23
HETATM   23  C   UNL     1      -9.555  13.638  67.087  1.00  0.00    -0.241 A  
HETATM   24  C   UNL     1      -9.795  14.125  65.795  1.00  0.00    -0.297 A  
HETATM   25  C   UNL     1     -10.989  13.818  65.143  1.00  0.00    -0.337 A  
HETATM   26  C   UNL     1     -11.930  13.016  65.778  1.00  0.00    -0.429 A  
HETATM   27  C   UNL     1     -11.698  12.514  67.054  1.00  0.00    -0.437 A  
HETATM   28  F   UNL     1     -13.076  12.724  65.153  1.00  0.00    -0.531 F  
HETATM   29  C   UNL     1     -10.508  12.824  67.716  1.00  0.00    -0.228 A  
ENDBRANCH  21  23
ENDBRANCH  20  21
ENDBRANCH  19  20
ENDBRANCH  18  19
ENDBRANCH  15  18
ENDBRANCH  11  12
TORSDOF 6
ENDMDL
MODEL      128
REMARK 921   NORMALIZED FREE ENERGY PREDICTED BY IDOCK:   -5.09 KCAL/MOL
REMARK 922        TOTAL FREE ENERGY PREDICTED BY IDOCK:   -8.18 KCAL/MOL
REMARK 923 INTER-LIGAND FREE ENERGY PREDICTED BY IDOCK:   -7.60 KCAL/MOL
REMARK 924 INTRA-LIGAND FREE ENERGY PREDICTED BY IDOCK:   -0.58 KCAL/MOL
REMARK 927      BINDING AFFINITY PREDICTED BY RF-SCORE:    0.00 PKD
ROOT
HETATM    1  O   UNL     1     -10.188  14.253  64.689  1.00  0.00    -0.554 OA 
HETATM    2  C   UNL     1     -10.274  15.364  65.385  1.00  0.00    -0.377 A  
HETATM    3  H   UNL     1      -9.974  13.420  65.092  1.00  0.00     0.000 HD 
HETATM    4  N   UNL     1     -10.568  16.507  64.832  1.00  0.00    -0.690 NA 
HETATM    5  C   UNL     1     -10.510  17.407  65.866  1.00  0.00    -0.252 A  
HETATM    6  C   UNL     1     -10.678  18.797  65.834  1.00  0.00    -0.323 A  
HETATM    7  C   UNL     1     -10.561  19.517  67.029  1.00  0.00    -0.607 A  
HETATM    8  C   UNL     1     -10.311  18.864  68.234  1.00  0.00    -0.400 A  
HETATM    9  C   UNL     1     -10.146  17.476  68.290  1.00  0.00    -0.346 A  
HETATM   10  C   UNL     1     -10.218  16.777  67.079  1.00  0.00    -0.292 A  
HETATM   11  N   UNL     1     -10.004  15.468  66.723  1.00  0.00    -0.243 NA 
ENDROOT
BRANCH  11  12
HETATM   12  C   UNL     1      -9.396  14.407  67.495  1.00  0.00    -0.198 C  
HETATM   13  C   UNL     1      -7.881  14.293  67.351  1.00  0.00    -0.207 C  
HETATM   14  C   UNL     1      -7.397  13.329  68.436  1.00  0.00    -0.112 C  
HETATM   15  N   UNL     1      -8.026  11.997  68.364  1.00  0.00    -0.150 NA 
HETATM   16  C   UNL     1      -9.495  12.077  68.351  1.00  0.00    -0.181 C  
HETATM   17  C   UNL     1     -10.043  13.032  67.293  1.00  0.00    -0.235 C  
BRANCH  15  18
HETATM   18  C   UNL     1      -7.513  11.161  67.270  1.00  0.00    -0.118 C  
BRANCH  18  19
HETATM   19  C   UNL     1      -6.708   9.957  67.769  1.00  0.00    -0.072 C  
BRANCH  19  20
HETATM   20  C   UNL     1      -7.044   9.604  69.219  1.00  0.00    -0.063 C  
BRANCH  20  21
HETATM   21  C   UNL     1      -7.925   8.378  69.303  1.00  0.00    -0.113 C  
HETATM   22  O   UNL     1      -7.734   7.368  68.630  1.00  0.00    -0.114 OA 
BRANCH  21  23
HETATM   23  C   UNL     1      -9.097   8.427  70.219  1.00  0.00    -0.149 A  
HETATM   24  C   UNL     1      -8.959   7.853  71.490  1.00  0.00    -0.167 A  
HETATM   25  C   UNL     1     -10.037   7.847  72.374  1.00  0.00    -0.310 A  
HETATM   26  C   UNL     1     -11.241   8.425  71.991  1.00  0.00    -0.334 A  
HETATM   27  C   UNL     1     -11.387   9.011  70.739  1.00  0.00    -0.329 A  
HETATM   28  F   UNL     1     -12.276   8.418  72.839  1.00  0.00    -0.446 F  
HETATM   29  C   UNL     1     -10.313   9.014  69.845  1.00  0.00    -0.219 A  
ENDBRANCH  21  23
ENDBRANCH  20  21
ENDBRANCH  19  20
ENDBRANCH  18  19
ENDBRANCH  15  18
ENDBRANCH  11  12
TORSDOF 6
ENDMDL
MODEL      129
REMARK 921   NORMALIZED FREE ENERGY PREDICTED BY IDOCK:   -5.06 KCAL/MOL
REMARK 922        TOTAL FREE ENERGY PREDICTED BY IDOCK:   -8.15 KCAL/MOL
REMARK 923 INTER-LIGAND FREE ENERGY PREDICTED BY IDOCK:   -7.15 KCAL/MOL
REMARK 924 INTRA-LIGAND FREE ENERGY PREDICTED BY IDOCK:   -1.00 KCAL/MOL
REMARK 927      BINDING AFFINITY PREDICTED BY RF-SCORE:    0.00 PKD
ROOT
HETATM    1  O   UNL     1      -8.713   9.950  62.705  1.00  0.00    -0.168 OA 
HETATM    2  C   UNL     1      -9.499  10.667  63.476  1.00  0.00    -0.308 A  
HETATM    3  H   UNL     1      -8.151   9.268  63.053  1.00  0.00     0.000 HD 
HETATM    4  N   UNL     1     -10.270  11.604  62.999  1.00  0.00    -0.321 NA 
HETATM    5  C   UNL     1     -10.877  12.137  64.108  1.00  0.00    -0.360 A  
HETATM    6  C   UNL     1     -11.764  13.218  64.192  1.00  0.00    -0.470 A  
HETATM    7  C   UNL     1     -12.251  13.593  65.449  1.00  0.00    -0.474 A  
HETATM    8  C   UNL     1     -11.887  12.888  66.595  1.00  0.00    -0.461 A  
HETATM    9  C   UNL     1     -11.008  11.802  66.533  1.00  0.00    -0.342 A  
HETATM   10  C   UNL     1     -10.492  11.471  65.275  1.00  0.00    -0.283 A  
HETATM   11  N   UNL     1      -9.549  10.572  64.841  1.00  0.00    -0.250 NA 
ENDROOT
BRANCH  11  12
HETATM   12  C   UNL     1      -8.599   9.809  65.620  1.00  0.00    -0.141 C  
HETATM   13  C   UNL     1      -9.218   8.901  66.678  1.00  0.00    -0.215 C  
HETATM   14  C   UNL     1      -8.106   7.982  67.189  1.00  0.00    -0.117 C  
HETATM   15  N   UNL     1      -6.949   8.710  67.743  1.00  0.00    -0.074 NA 
HETATM   16  C   UNL     1      -6.415   9.704  66.798  1.00  0.00    -0.067 C  
HETATM   17  C   UNL     1      -7.479  10.648  66.244  1.00  0.00    -0.137 C  
BRANCH  15  18
HETATM   18  C   UNL     1      -7.197   9.291  69.070  1.00  0.00    -0.071 C  
BRANCH  18  19
HETATM   19  C   UNL     1      -6.929   8.305  70.210  1.00  0.00    -0.036 C  
BRANCH  19  20
HETATM   20  C   UNL     1      -7.794   8.597  71.436  1.00  0.00    -0.162 C  
BRANCH  20  21
HETATM   21  C   UNL     1      -8.595   7.384  71.855  1.00  0.00    -0.111 C  
HETATM   22  O   UNL     1      -8.081   6.372  72.324  1.00  0.00    -0.107 OA 
BRANCH  21  23
HETATM   23  C   UNL     1     -10.068   7.419  71.647  1.00  0.00    -0.200 A  
HETATM   24  C   UNL     1     -10.833   8.212  72.513  1.00  0.00    -0.431 A  
HETATM   25  C   UNL     1     -12.220   8.255  72.379  1.00  0.00    -0.412 A  
HETATM   26  C   UNL     1     -12.835   7.519  71.374  1.00  0.00    -0.342 A  
HETATM   27  C   UNL     1     -12.086   6.740  70.498  1.00  0.00    -0.332 A  
HETATM   28  F   UNL     1     -14.166   7.559  71.246  1.00  0.00    -0.468 F  
HETATM   29  C   UNL     1     -10.697   6.686  70.632  1.00  0.00    -0.286 A  
ENDBRANCH  21  23
ENDBRANCH  20  21
ENDBRANCH  19  20
ENDBRANCH  18  19
ENDBRANCH  15  18
ENDBRANCH  11  12
TORSDOF 6
ENDMDL
MODEL      130
REMARK 921   NORMALIZED FREE ENERGY PREDICTED BY IDOCK:   -5.06 KCAL/MOL
REMARK 922        TOTAL FREE ENERGY PREDICTED BY IDOCK:   -8.14 KCAL/MOL
REMARK 923 INTER-LIGAND FREE ENERGY PREDICTED BY IDOCK:   -8.11 KCAL/MOL
REMARK 924 INTRA-LIGAND FREE ENERGY PREDICTED BY IDOCK:   -0.02 KCAL/MOL
REMARK 927      BINDING AFFINITY PREDICTED BY RF-SCORE:    0.00 PKD
ROOT
HETATM    1  O   UNL     1      -8.842  11.728  62.682  1.00  0.00    -0.610 OA 
HETATM    2  C   UNL     1      -8.660  10.595  63.322  1.00  0.00    -0.151 A  
HETATM    3  H   UNL     1      -9.447  12.391  62.993  1.00  0.00     0.000 HD 
HETATM    4  N   UNL     1      -7.830   9.685  62.897  1.00  0.00    -0.120 NA 
HETATM    5  C   UNL     1      -7.967   8.658  63.796  1.00  0.00    -0.160 A  
HETATM    6  C   UNL     1      -7.356   7.397  63.791  1.00  0.00    -0.089 A  
HETATM    7  C   UNL     1      -7.661   6.498  64.820  1.00  0.00    -0.106 A  
HETATM    8  C   UNL     1      -8.533   6.856  65.846  1.00  0.00    -0.147 A  
HETATM    9  C   UNL     1      -9.149   8.112  65.873  1.00  0.00    -0.183 A  
HETATM   10  C   UNL     1      -8.871   8.981  64.812  1.00  0.00    -0.122 A  
HETATM   11  N   UNL     1      -9.352  10.212  64.439  1.00  0.00    -0.271 NA 
ENDROOT
BRANCH  11  12
HETATM   12  C   UNL     1     -10.510  10.920  64.939  1.00  0.00    -0.282 C  
HETATM   13  C   UNL     1     -11.164  11.869  63.939  1.00  0.00    -0.497 C  
HETATM   14  C   UNL     1     -12.506  12.297  64.536  1.00  0.00    -0.377 C  
HETATM   15  N   UNL     1     -12.384  12.941  65.857  1.00  0.00    -0.540 NA 
HETATM   16  C   UNL     1     -11.627  12.113  66.809  1.00  0.00    -0.345 C  
HETATM   17  C   UNL     1     -10.278  11.645  66.269  1.00  0.00    -0.262 C  
BRANCH  15  18
HETATM   18  C   UNL     1     -11.873  14.317  65.799  1.00  0.00    -0.374 C  
BRANCH  18  19
HETATM   19  C   UNL     1     -11.035  14.693  67.025  1.00  0.00    -0.317 C  
BRANCH  19  20
HETATM   20  C   UNL     1     -11.774  15.662  67.949  1.00  0.00    -0.097 C  
BRANCH  20  21
HETATM   21  C   UNL     1     -10.813  16.553  68.705  1.00  0.00    -0.345 C  
HETATM   22  O   UNL     1     -10.712  16.541  69.929  1.00  0.00    -0.329 OA 
BRANCH  21  23
HETATM   23  C   UNL     1      -9.987  17.508  67.919  1.00  0.00    -0.312 A  
HETATM   24  C   UNL     1     -10.647  18.551  67.253  1.00  0.00    -0.453 A  
HETATM   25  C   UNL     1      -9.921  19.455  66.479  1.00  0.00    -0.485 A  
HETATM   26  C   UNL     1      -8.542  19.324  66.385  1.00  0.00    -0.343 A  
HETATM   27  C   UNL     1      -7.873  18.304  67.052  1.00  0.00    -0.237 A  
HETATM   28  F   UNL     1      -7.846  20.192  65.641  1.00  0.00    -0.330 F  
HETATM   29  C   UNL     1      -8.594  17.389  67.823  1.00  0.00    -0.227 A  
ENDBRANCH  21  23
ENDBRANCH  20  21
ENDBRANCH  19  20
ENDBRANCH  18  19
ENDBRANCH  15  18
ENDBRANCH  11  12
TORSDOF 6
ENDMDL
MODEL      131
REMARK 921   NORMALIZED FREE ENERGY PREDICTED BY IDOCK:   -5.05 KCAL/MOL
REMARK 922        TOTAL FREE ENERGY PREDICTED BY IDOCK:   -8.13 KCAL/MOL
REMARK 923 INTER-LIGAND FREE ENERGY PREDICTED BY IDOCK:   -7.82 KCAL/MOL
REMARK 924 INTRA-LIGAND FREE ENERGY PREDICTED BY IDOCK:   -0.31 KCAL/MOL
REMARK 927      BINDING AFFINITY PREDICTED BY RF-SCORE:    0.00 PKD
ROOT
HETATM    1  O   UNL     1     -10.768  17.330  65.051  1.00  0.00    -0.708 OA 
HETATM    2  C   UNL     1      -9.894  17.671  65.970  1.00  0.00    -0.170 A  
HETATM    3  H   UNL     1     -11.121  16.450  64.993  1.00  0.00     0.000 HD 
HETATM    4  N   UNL     1      -9.409  18.878  66.051  1.00  0.00    -0.466 NA 
HETATM    5  C   UNL     1      -8.512  18.813  67.087  1.00  0.00    -0.272 A  
HETATM    6  C   UNL     1      -7.655  19.808  67.574  1.00  0.00    -0.310 A  
HETATM    7  C   UNL     1      -6.811  19.503  68.648  1.00  0.00    -0.343 A  
HETATM    8  C   UNL     1      -6.839  18.244  69.243  1.00  0.00    -0.204 A  
HETATM    9  C   UNL     1      -7.691  17.237  68.776  1.00  0.00    -0.261 A  
HETATM   10  C   UNL     1      -8.494  17.543  67.672  1.00  0.00    -0.215 A  
HETATM   11  N   UNL     1      -9.347  16.810  66.884  1.00  0.00    -0.229 NA 
ENDROOT
BRANCH  11  12
HETATM   12  C   UNL     1      -9.514  15.375  66.822  1.00  0.00    -0.241 C  
HETATM   13  C   UNL     1     -10.901  14.872  67.212  1.00  0.00    -0.306 C  
HETATM   14  C   UNL     1     -10.973  13.396  66.817  1.00  0.00    -0.288 C  
HETATM   15  N   UNL     1      -9.926  12.567  67.443  1.00  0.00    -0.205 NA 
HETATM   16  C   UNL     1      -8.578  13.108  67.210  1.00  0.00    -0.210 C  
HETATM   17  C   UNL     1      -8.442  14.583  67.578  1.00  0.00    -0.201 C  
BRANCH  15  18
HETATM   18  C   UNL     1     -10.167  12.287  68.866  1.00  0.00    -0.020 C  
BRANCH  18  19
HETATM   19  C   UNL     1     -10.376  10.797  69.151  1.00  0.00    -0.238 C  
BRANCH  19  20
HETATM   20  C   UNL     1     -11.835  10.474  69.475  1.00  0.00    -0.287 C  
BRANCH  20  21
HETATM   21  C   UNL     1     -12.001  10.021  70.908  1.00  0.00    -0.361 C  
HETATM   22  O   UNL     1     -12.538  10.712  71.771  1.00  0.00    -0.390 OA 
BRANCH  21  23
HETATM   23  C   UNL     1     -11.448   8.692  71.285  1.00  0.00    -0.341 A  
HETATM   24  C   UNL     1     -10.337   8.664  72.140  1.00  0.00    -0.403 A  
HETATM   25  C   UNL     1      -9.763   7.444  72.498  1.00  0.00    -0.202 A  
HETATM   26  C   UNL     1     -10.308   6.262  72.014  1.00  0.00    -0.202 A  
HETATM   27  C   UNL     1     -11.419   6.275  71.178  1.00  0.00    -0.362 A  
HETATM   28  F   UNL     1      -9.756   5.092  72.357  1.00  0.00    -0.161 F  
HETATM   29  C   UNL     1     -11.994   7.493  70.808  1.00  0.00    -0.224 A  
ENDBRANCH  21  23
ENDBRANCH  20  21
ENDBRANCH  19  20
ENDBRANCH  18  19
ENDBRANCH  15  18
ENDBRANCH  11  12
TORSDOF 6
ENDMDL
MODEL      132
REMARK 921   NORMALIZED FREE ENERGY PREDICTED BY IDOCK:   -5.05 KCAL/MOL
REMARK 922        TOTAL FREE ENERGY PREDICTED BY IDOCK:   -8.13 KCAL/MOL
REMARK 923 INTER-LIGAND FREE ENERGY PREDICTED BY IDOCK:   -7.38 KCAL/MOL
REMARK 924 INTRA-LIGAND FREE ENERGY PREDICTED BY IDOCK:   -0.74 KCAL/MOL
REMARK 927      BINDING AFFINITY PREDICTED BY RF-SCORE:    0.00 PKD
ROOT
HETATM    1  O   UNL     1      -9.662  11.746  67.911  1.00  0.00    -0.175 OA 
HETATM    2  C   UNL     1      -9.324  11.006  66.879  1.00  0.00    -0.173 A  
HETATM    3  H   UNL     1      -9.537  11.452  68.805  1.00  0.00     0.000 HD 
HETATM    4  N   UNL     1      -9.495  11.409  65.652  1.00  0.00    -0.227 NA 
HETATM    5  C   UNL     1      -9.071  10.352  64.888  1.00  0.00    -0.208 A  
HETATM    6  C   UNL     1      -9.088  10.210  63.494  1.00  0.00    -0.302 A  
HETATM    7  C   UNL     1      -8.607   9.021  62.933  1.00  0.00    -0.180 A  
HETATM    8  C   UNL     1      -8.094   8.007  63.739  1.00  0.00    -0.096 A  
HETATM    9  C   UNL     1      -8.062   8.130  65.132  1.00  0.00    -0.139 A  
HETATM   10  C   UNL     1      -8.591   9.305  65.680  1.00  0.00    -0.153 A  
HETATM   11  N   UNL     1      -8.832   9.732  66.963  1.00  0.00    -0.134 NA 
ENDROOT
BRANCH  11  12
HETATM   12  C   UNL     1      -8.811   8.967  68.191  1.00  0.00    -0.134 C  
HETATM   13  C   UNL     1     -10.163   8.406  68.622  1.00  0.00    -0.220 C  
HETATM   14  C   UNL     1      -9.897   7.411  69.753  1.00  0.00    -0.171 C  
HETATM   15  N   UNL     1      -9.191   8.002  70.904  1.00  0.00    -0.147 NA 
HETATM   16  C   UNL     1      -7.950   8.683  70.503  1.00  0.00    -0.106 C  
HETATM   17  C   UNL     1      -8.146   9.686  69.369  1.00  0.00    -0.118 C  
BRANCH  15  18
HETATM   18  C   UNL     1     -10.042   8.860  71.742  1.00  0.00    -0.337 C  
BRANCH  18  19
HETATM   19  C   UNL     1     -11.345   8.174  72.162  1.00  0.00    -0.399 C  
BRANCH  19  20
HETATM   20  C   UNL     1     -12.530   8.621  71.306  1.00  0.00    -0.284 C  
BRANCH  20  21
HETATM   21  C   UNL     1     -13.336   9.703  71.991  1.00  0.00    -0.457 C  
HETATM   22  O   UNL     1     -14.203   9.463  72.828  1.00  0.00    -0.428 OA 
BRANCH  21  23
HETATM   23  C   UNL     1     -13.083  11.114  71.594  1.00  0.00    -0.529 A  
HETATM   24  C   UNL     1     -12.276  11.344  70.471  1.00  0.00    -0.478 A  
HETATM   25  C   UNL     1     -11.985  12.649  70.076  1.00  0.00    -0.377 A  
HETATM   26  C   UNL     1     -12.511  13.716  70.793  1.00  0.00    -0.359 A  
HETATM   27  C   UNL     1     -13.326  13.502  71.900  1.00  0.00    -0.529 A  
HETATM   28  F   UNL     1     -12.230  14.968  70.414  1.00  0.00    -0.293 F  
HETATM   29  C   UNL     1     -13.615  12.197  72.307  1.00  0.00    -0.226 A  
ENDBRANCH  21  23
ENDBRANCH  20  21
ENDBRANCH  19  20
ENDBRANCH  18  19
ENDBRANCH  15  18
ENDBRANCH  11  12
TORSDOF 6
ENDMDL
MODEL      133
REMARK 921   NORMALIZED FREE ENERGY PREDICTED BY IDOCK:   -5.04 KCAL/MOL
REMARK 922        TOTAL FREE ENERGY PREDICTED BY IDOCK:   -8.11 KCAL/MOL
REMARK 923 INTER-LIGAND FREE ENERGY PREDICTED BY IDOCK:   -7.02 KCAL/MOL
REMARK 924 INTRA-LIGAND FREE ENERGY PREDICTED BY IDOCK:   -1.09 KCAL/MOL
REMARK 927      BINDING AFFINITY PREDICTED BY RF-SCORE:    0.00 PKD
ROOT
HETATM    1  O   UNL     1     -11.007  12.046  69.367  1.00  0.00    -0.402 OA 
HETATM    2  C   UNL     1     -11.023  12.067  68.054  1.00  0.00    -0.223 A  
HETATM    3  H   UNL     1     -10.281  11.679  69.857  1.00  0.00     0.000 HD 
HETATM    4  N   UNL     1     -12.019  12.570  67.381  1.00  0.00    -0.488 NA 
HETATM    5  C   UNL     1     -11.681  12.358  66.068  1.00  0.00    -0.410 A  
HETATM    6  C   UNL     1     -12.418  12.644  64.912  1.00  0.00    -0.564 A  
HETATM    7  C   UNL     1     -11.866  12.325  63.666  1.00  0.00    -0.610 A  
HETATM    8  C   UNL     1     -10.597  11.759  63.572  1.00  0.00    -0.499 A  
HETATM    9  C   UNL     1      -9.841  11.471  64.713  1.00  0.00    -0.286 A  
HETATM   10  C   UNL     1     -10.427  11.752  65.953  1.00  0.00    -0.255 A  
HETATM   11  N   UNL     1     -10.059  11.515  67.254  1.00  0.00    -0.197 NA 
ENDROOT
BRANCH  11  12
HETATM   12  C   UNL     1      -9.002  10.664  67.756  1.00  0.00    -0.140 C  
HETATM   13  C   UNL     1      -9.451   9.274  68.198  1.00  0.00    -0.150 C  
HETATM   14  C   UNL     1      -8.186   8.442  68.418  1.00  0.00    -0.124 C  
HETATM   15  N   UNL     1      -7.262   9.027  69.407  1.00  0.00    -0.056 NA 
HETATM   16  C   UNL     1      -6.922  10.423  69.091  1.00  0.00    -0.071 C  
HETATM   17  C   UNL     1      -8.144  11.306  68.851  1.00  0.00    -0.090 C  
BRANCH  15  18
HETATM   18  C   UNL     1      -7.710   8.873  70.798  1.00  0.00    -0.115 C  
BRANCH  18  19
HETATM   19  C   UNL     1      -7.923   7.409  71.195  1.00  0.00    -0.100 C  
BRANCH  19  20
HETATM   20  C   UNL     1      -9.279   7.188  71.867  1.00  0.00    -0.149 C  
BRANCH  20  21
HETATM   21  C   UNL     1      -9.942   5.919  71.380  1.00  0.00    -0.185 C  
HETATM   22  O   UNL     1     -10.342   5.039  72.139  1.00  0.00    -0.204 OA 
BRANCH  21  23
HETATM   23  C   UNL     1     -10.073   5.724  69.911  1.00  0.00    -0.273 A  
HETATM   24  C   UNL     1     -11.035   6.485  69.232  1.00  0.00    -0.389 A  
HETATM   25  C   UNL     1     -11.217   6.317  67.860  1.00  0.00    -0.216 A  
HETATM   26  C   UNL     1     -10.431   5.403  67.171  1.00  0.00    -0.235 A  
HETATM   27  C   UNL     1      -9.463   4.652  67.829  1.00  0.00    -0.190 A  
HETATM   28  F   UNL     1     -10.607   5.241  65.854  1.00  0.00    -0.231 F  
HETATM   29  C   UNL     1      -9.280   4.809  69.205  1.00  0.00    -0.172 A  
ENDBRANCH  21  23
ENDBRANCH  20  21
ENDBRANCH  19  20
ENDBRANCH  18  19
ENDBRANCH  15  18
ENDBRANCH  11  12
TORSDOF 6
ENDMDL
MODEL      134
REMARK 921   NORMALIZED FREE ENERGY PREDICTED BY IDOCK:   -5.02 KCAL/MOL
REMARK 922        TOTAL FREE ENERGY PREDICTED BY IDOCK:   -8.08 KCAL/MOL
REMARK 923 INTER-LIGAND FREE ENERGY PREDICTED BY IDOCK:   -6.92 KCAL/MOL
REMARK 924 INTRA-LIGAND FREE ENERGY PREDICTED BY IDOCK:   -1.16 KCAL/MOL
REMARK 927      BINDING AFFINITY PREDICTED BY RF-SCORE:    0.00 PKD
ROOT
HETATM    1  O   UNL     1      -9.192  11.517  68.412  1.00  0.00    -0.182 OA 
HETATM    2  C   UNL     1      -8.785  10.693  67.474  1.00  0.00    -0.125 A  
HETATM    3  H   UNL     1      -9.882  12.153  68.261  1.00  0.00     0.000 HD 
HETATM    4  N   UNL     1      -7.839   9.820  67.681  1.00  0.00    -0.095 NA 
HETATM    5  C   UNL     1      -7.679   9.202  66.467  1.00  0.00    -0.096 A  
HETATM    6  C   UNL     1      -6.752   8.220  66.094  1.00  0.00    -0.054 A  
HETATM    7  C   UNL     1      -6.772   7.741  64.779  1.00  0.00    -0.050 A  
HETATM    8  C   UNL     1      -7.711   8.208  63.863  1.00  0.00    -0.138 A  
HETATM    9  C   UNL     1      -8.649   9.184  64.215  1.00  0.00    -0.197 A  
HETATM   10  C   UNL     1      -8.586   9.688  65.520  1.00  0.00    -0.147 A  
HETATM   11  N   UNL     1      -9.239  10.697  66.183  1.00  0.00    -0.167 NA 
ENDROOT
BRANCH  11  12
HETATM   12  C   UNL     1     -10.080  11.741  65.639  1.00  0.00    -0.243 C  
HETATM   13  C   UNL     1      -9.440  13.126  65.599  1.00  0.00     0.090 C  
HETATM   14  C   UNL     1     -10.348  14.017  64.749  1.00  0.00    -0.380 C  
HETATM   15  N   UNL     1     -11.731  14.099  65.253  1.00  0.00    -0.340 NA 
HETATM   16  C   UNL     1     -12.332  12.770  65.446  1.00  0.00    -0.470 C  
HETATM   17  C   UNL     1     -11.469  11.828  66.281  1.00  0.00    -0.296 C  
BRANCH  15  18
HETATM   18  C   UNL     1     -11.875  14.945  66.447  1.00  0.00    -0.131 C  
BRANCH  18  19
HETATM   19  C   UNL     1     -10.769  15.998  66.566  1.00  0.00    -0.238 C  
BRANCH  19  20
HETATM   20  C   UNL     1     -10.503  16.387  68.021  1.00  0.00    -0.303 C  
BRANCH  20  21
HETATM   21  C   UNL     1     -10.231  15.174  68.882  1.00  0.00    -0.236 C  
HETATM   22  O   UNL     1      -9.291  14.408  68.681  1.00  0.00    -0.201 OA 
BRANCH  21  23
HETATM   23  C   UNL     1     -11.175  14.887  69.995  1.00  0.00    -0.293 A  
HETATM   24  C   UNL     1     -11.306  15.847  71.008  1.00  0.00    -0.434 A  
HETATM   25  C   UNL     1     -12.156  15.612  72.088  1.00  0.00    -0.539 A  
HETATM   26  C   UNL     1     -12.880  14.428  72.145  1.00  0.00    -0.342 A  
HETATM   27  C   UNL     1     -12.771  13.473  71.140  1.00  0.00    -0.425 A  
HETATM   28  F   UNL     1     -13.694  14.202  73.182  1.00  0.00    -0.480 F  
HETATM   29  C   UNL     1     -11.915  13.699  70.058  1.00  0.00    -0.413 A  
ENDBRANCH  21  23
ENDBRANCH  20  21
ENDBRANCH  19  20
ENDBRANCH  18  19
ENDBRANCH  15  18
ENDBRANCH  11  12
TORSDOF 6
ENDMDL
MODEL      135
REMARK 921   NORMALIZED FREE ENERGY PREDICTED BY IDOCK:   -4.99 KCAL/MOL
REMARK 922        TOTAL FREE ENERGY PREDICTED BY IDOCK:   -8.05 KCAL/MOL
REMARK 923 INTER-LIGAND FREE ENERGY PREDICTED BY IDOCK:   -6.77 KCAL/MOL
REMARK 924 INTRA-LIGAND FREE ENERGY PREDICTED BY IDOCK:   -1.28 KCAL/MOL
REMARK 927      BINDING AFFINITY PREDICTED BY RF-SCORE:    0.00 PKD
ROOT
HETATM    1  O   UNL     1      -9.206   8.787  66.152  1.00  0.00    -0.184 OA 
HETATM    2  C   UNL     1      -9.847   9.254  67.199  1.00  0.00    -0.195 A  
HETATM    3  H   UNL     1      -9.080   9.305  65.365  1.00  0.00     0.000 HD 
HETATM    4  N   UNL     1     -10.020   8.545  68.279  1.00  0.00    -0.177 NA 
HETATM    5  C   UNL     1     -10.763   9.355  69.099  1.00  0.00    -0.197 A  
HETATM    6  C   UNL     1     -11.291   9.078  70.367  1.00  0.00    -0.242 A  
HETATM    7  C   UNL     1     -12.036  10.069  71.017  1.00  0.00    -0.469 A  
HETATM    8  C   UNL     1     -12.227  11.318  70.431  1.00  0.00    -0.453 A  
HETATM    9  C   UNL     1     -11.704  11.618  69.168  1.00  0.00    -0.390 A  
HETATM   10  C   UNL     1     -11.003  10.600  68.511  1.00  0.00    -0.248 A  
HETATM   11  N   UNL     1     -10.457  10.478  67.257  1.00  0.00    -0.235 NA 
ENDROOT
BRANCH  11  12
HETATM   12  C   UNL     1     -10.641  11.330  66.102  1.00  0.00    -0.258 C  
HETATM   13  C   UNL     1      -9.612  12.446  65.956  1.00  0.00    -0.214 C  
HETATM   14  C   UNL     1      -9.792  13.045  64.560  1.00  0.00     0.009 C  
HETATM   15  N   UNL     1     -11.152  13.558  64.311  1.00  0.00    -0.376 NA 
HETATM   16  C   UNL     1     -12.185  12.548  64.585  1.00  0.00    -0.453 C  
HETATM   17  C   UNL     1     -12.055  11.905  65.964  1.00  0.00     0.232 C  
BRANCH  15  18
HETATM   18  C   UNL     1     -11.435  14.832  64.988  1.00  0.00    -0.389 C  
BRANCH  18  19
HETATM   19  C   UNL     1     -10.165  15.593  65.378  1.00  0.00    -0.401 C  
BRANCH  19  20
HETATM   20  C   UNL     1     -10.425  17.089  65.555  1.00  0.00    -0.181 C  
BRANCH  20  21
HETATM   21  C   UNL     1     -10.009  17.569  66.928  1.00  0.00    -0.313 C  
HETATM   22  O   UNL     1      -9.414  18.628  67.116  1.00  0.00    -0.286 OA 
BRANCH  21  23
HETATM   23  C   UNL     1     -10.305  16.689  68.090  1.00  0.00    -0.303 A  
HETATM   24  C   UNL     1     -11.644  16.543  68.477  1.00  0.00    -0.010 A  
HETATM   25  C   UNL     1     -11.971  15.752  69.579  1.00  0.00    -0.326 A  
HETATM   26  C   UNL     1     -10.963  15.101  70.278  1.00  0.00    -0.251 A  
HETATM   27  C   UNL     1      -9.632  15.225  69.896  1.00  0.00    -0.061 A  
HETATM   28  F   UNL     1     -11.277  14.344  71.336  1.00  0.00    -0.174 F  
HETATM   29  C   UNL     1      -9.296  16.022  68.798  1.00  0.00    -0.222 A  
ENDBRANCH  21  23
ENDBRANCH  20  21
ENDBRANCH  19  20
ENDBRANCH  18  19
ENDBRANCH  15  18
ENDBRANCH  11  12
TORSDOF 6
ENDMDL
MODEL      136
REMARK 921   NORMALIZED FREE ENERGY PREDICTED BY IDOCK:   -4.97 KCAL/MOL
REMARK 922        TOTAL FREE ENERGY PREDICTED BY IDOCK:   -8.01 KCAL/MOL
REMARK 923 INTER-LIGAND FREE ENERGY PREDICTED BY IDOCK:   -7.12 KCAL/MOL
REMARK 924 INTRA-LIGAND FREE ENERGY PREDICTED BY IDOCK:   -0.89 KCAL/MOL
REMARK 927      BINDING AFFINITY PREDICTED BY RF-SCORE:    0.00 PKD
ROOT
HETATM    1  O   UNL     1     -11.956  14.103  68.830  1.00  0.00    -0.334 OA 
HETATM    2  C   UNL     1     -11.750  13.568  67.648  1.00  0.00    -0.363 A  
HETATM    3  H   UNL     1     -11.530  13.775  69.613  1.00  0.00     0.000 HD 
HETATM    4  N   UNL     1     -12.334  14.018  66.573  1.00  0.00    -0.449 NA 
HETATM    5  C   UNL     1     -11.904  13.176  65.579  1.00  0.00    -0.380 A  
HETATM    6  C   UNL     1     -12.265  13.155  64.225  1.00  0.00    -0.463 A  
HETATM    7  C   UNL     1     -11.698  12.184  63.392  1.00  0.00    -0.533 A  
HETATM    8  C   UNL     1     -10.771  11.271  63.889  1.00  0.00    -0.451 A  
HETATM    9  C   UNL     1     -10.392  11.277  65.235  1.00  0.00    -0.337 A  
HETATM   10  C   UNL     1     -11.004  12.223  66.065  1.00  0.00    -0.292 A  
HETATM   11  N   UNL     1     -10.979  12.461  67.417  1.00  0.00    -0.244 NA 
ENDROOT
BRANCH  11  12
HETATM   12  C   UNL     1     -10.454  11.624  68.474  1.00  0.00    -0.217 C  
HETATM   13  C   UNL     1      -8.997  11.207  68.300  1.00  0.00    -0.166 C  
HETATM   14  C   UNL     1      -8.545  10.585  69.622  1.00  0.00     0.043 C  
HETATM   15  N   UNL     1      -9.366   9.434  70.042  1.00  0.00    -0.209 NA 
HETATM   16  C   UNL     1     -10.800   9.761  70.079  1.00  0.00    -0.278 C  
HETATM   17  C   UNL     1     -11.313  10.394  68.788  1.00  0.00    -0.275 C  
BRANCH  15  18
HETATM   18  C   UNL     1      -9.101   8.209  69.275  1.00  0.00    -0.151 C  
BRANCH  18  19
HETATM   19  C   UNL     1      -9.747   6.967  69.897  1.00  0.00    -0.163 C  
BRANCH  19  20
HETATM   20  C   UNL     1     -10.829   6.371  68.996  1.00  0.00    -0.385 C  
BRANCH  20  21
HETATM   21  C   UNL     1     -10.551   6.647  67.535  1.00  0.00    -0.281 C  
HETATM   22  O   UNL     1     -11.016   7.613  66.936  1.00  0.00    -0.253 OA 
BRANCH  21  23
HETATM   23  C   UNL     1      -9.705   5.673  66.793  1.00  0.00    -0.169 A  
HETATM   24  C   UNL     1      -8.349   5.983  66.617  1.00  0.00    -0.111 A  
HETATM   25  C   UNL     1      -7.522   5.117  65.904  1.00  0.00    -0.082 A  
HETATM   26  C   UNL     1      -8.047   3.942  65.381  1.00  0.00    -0.097 A  
HETATM   27  C   UNL     1      -9.386   3.615  65.561  1.00  0.00    -0.160 A  
HETATM   28  F   UNL     1      -7.252   3.112  64.695  1.00  0.00    -0.055 F  
HETATM   29  C   UNL     1     -10.223   4.481  66.268  1.00  0.00    -0.270 A  
ENDBRANCH  21  23
ENDBRANCH  20  21
ENDBRANCH  19  20
ENDBRANCH  18  19
ENDBRANCH  15  18
ENDBRANCH  11  12
TORSDOF 6
ENDMDL
MODEL      137
REMARK 921   NORMALIZED FREE ENERGY PREDICTED BY IDOCK:   -4.96 KCAL/MOL
REMARK 922        TOTAL FREE ENERGY PREDICTED BY IDOCK:   -8.01 KCAL/MOL
REMARK 923 INTER-LIGAND FREE ENERGY PREDICTED BY IDOCK:   -6.29 KCAL/MOL
REMARK 924 INTRA-LIGAND FREE ENERGY PREDICTED BY IDOCK:   -1.72 KCAL/MOL
REMARK 927      BINDING AFFINITY PREDICTED BY RF-SCORE:    0.00 PKD
ROOT
HETATM    1  O   UNL     1      -6.180  12.485  68.919  1.00  0.00    -0.069 OA 
HETATM    2  C   UNL     1      -7.169  11.620  68.922  1.00  0.00    -0.113 A  
HETATM    3  H   UNL     1      -6.325  13.415  68.792  1.00  0.00     0.000 HD 
HETATM    4  N   UNL     1      -6.971  10.343  69.096  1.00  0.00    -0.063 NA 
HETATM    5  C   UNL     1      -8.222   9.790  68.984  1.00  0.00    -0.121 A  
HETATM    6  C   UNL     1      -8.595   8.441  69.024  1.00  0.00    -0.131 A  
HETATM    7  C   UNL     1      -9.947   8.111  68.875  1.00  0.00    -0.198 A  
HETATM    8  C   UNL     1     -10.910   9.105  68.717  1.00  0.00    -0.096 A  
HETATM    9  C   UNL     1     -10.561  10.459  68.680  1.00  0.00    -0.234 A  
HETATM   10  C   UNL     1      -9.200  10.769  68.782  1.00  0.00    -0.189 A  
HETATM   11  N   UNL     1      -8.479  11.933  68.679  1.00  0.00    -0.097 NA 
ENDROOT
BRANCH  11  12
HETATM   12  C   UNL     1      -8.910  13.224  68.191  1.00  0.00    -0.187 C  
HETATM   13  C   UNL     1     -10.132  13.803  68.898  1.00  0.00    -0.075 C  
HETATM   14  C   UNL     1     -10.259  15.262  68.455  1.00  0.00    -0.223 C  
HETATM   15  N   UNL     1     -10.381  15.425  66.994  1.00  0.00    -0.274 NA 
HETATM   16  C   UNL     1      -9.293  14.750  66.269  1.00  0.00    -0.278 C  
HETATM   17  C   UNL     1      -9.109  13.290  66.673  1.00  0.00    -0.181 C  
BRANCH  15  18
HETATM   18  C   UNL     1     -11.703  15.059  66.467  1.00  0.00    -0.122 C  
BRANCH  18  19
HETATM   19  C   UNL     1     -11.622  14.263  65.162  1.00  0.00    -0.355 C  
BRANCH  19  20
HETATM   20  C   UNL     1     -12.311  12.902  65.277  1.00  0.00    -0.544 C  
BRANCH  20  21
HETATM   21  C   UNL     1     -12.057  12.045  64.057  1.00  0.00    -0.406 C  
HETATM   22  O   UNL     1     -12.862  11.938  63.134  1.00  0.00    -0.636 OA 
BRANCH  21  23
HETATM   23  C   UNL     1     -10.789  11.269  64.004  1.00  0.00    -0.414 A  
HETATM   24  C   UNL     1     -10.498  10.415  65.077  1.00  0.00    -0.139 A  
HETATM   25  C   UNL     1      -9.308   9.689  65.089  1.00  0.00    -0.322 A  
HETATM   26  C   UNL     1      -8.422   9.808  64.026  1.00  0.00    -0.182 A  
HETATM   27  C   UNL     1      -8.704  10.640  62.949  1.00  0.00    -0.229 A  
HETATM   28  F   UNL     1      -7.279   9.112  64.039  1.00  0.00    -0.093 F  
HETATM   29  C   UNL     1      -9.891  11.376  62.933  1.00  0.00    -0.314 A  
ENDBRANCH  21  23
ENDBRANCH  20  21
ENDBRANCH  19  20
ENDBRANCH  18  19
ENDBRANCH  15  18
ENDBRANCH  11  12
TORSDOF 6
ENDMDL
MODEL      138
REMARK 921   NORMALIZED FREE ENERGY PREDICTED BY IDOCK:   -4.94 KCAL/MOL
REMARK 922        TOTAL FREE ENERGY PREDICTED BY IDOCK:   -7.98 KCAL/MOL
REMARK 923 INTER-LIGAND FREE ENERGY PREDICTED BY IDOCK:   -7.21 KCAL/MOL
REMARK 924 INTRA-LIGAND FREE ENERGY PREDICTED BY IDOCK:   -0.77 KCAL/MOL
REMARK 927      BINDING AFFINITY PREDICTED BY RF-SCORE:    0.00 PKD
ROOT
HETATM    1  O   UNL     1      -9.852   2.720  70.030  1.00  0.00    -0.006 OA 
HETATM    2  C   UNL     1      -9.900   3.738  70.860  1.00  0.00    -0.122 A  
HETATM    3  H   UNL     1      -9.677   2.832  69.103  1.00  0.00     0.000 HD 
HETATM    4  N   UNL     1     -10.140   3.584  72.131  1.00  0.00    -0.160 NA 
HETATM    5  C   UNL     1     -10.156   4.863  72.628  1.00  0.00    -0.174 A  
HETATM    6  C   UNL     1     -10.429   5.298  73.931  1.00  0.00    -0.317 A  
HETATM    7  C   UNL     1     -10.397   6.670  74.203  1.00  0.00    -0.347 A  
HETATM    8  C   UNL     1     -10.071   7.588  73.207  1.00  0.00    -0.386 A  
HETATM    9  C   UNL     1      -9.789   7.175  71.901  1.00  0.00    -0.172 A  
HETATM   10  C   UNL     1      -9.873   5.804  71.634  1.00  0.00    -0.167 A  
HETATM   11  N   UNL     1      -9.781   5.050  70.490  1.00  0.00    -0.187 NA 
ENDROOT
BRANCH  11  12
HETATM   12  C   UNL     1      -9.785   5.491  69.112  1.00  0.00    -0.155 C  
HETATM   13  C   UNL     1      -8.456   6.050  68.612  1.00  0.00    -0.113 C  
HETATM   14  C   UNL     1      -8.570   6.191  67.093  1.00  0.00    -0.103 C  
HETATM   15  N   UNL     1      -9.688   7.051  66.664  1.00  0.00    -0.181 NA 
HETATM   16  C   UNL     1     -10.970   6.628  67.249  1.00  0.00    -0.385 C  
HETATM   17  C   UNL     1     -10.920   6.461  68.765  1.00  0.00    -0.404 C  
BRANCH  15  18
HETATM   18  C   UNL     1      -9.439   8.486  66.865  1.00  0.00    -0.183 C  
BRANCH  18  19
HETATM   19  C   UNL     1     -10.614   9.361  66.420  1.00  0.00    -0.065 C  
BRANCH  19  20
HETATM   20  C   UNL     1     -10.192  10.812  66.185  1.00  0.00    -0.308 C  
BRANCH  20  21
HETATM   21  C   UNL     1     -11.175  11.784  66.799  1.00  0.00    -0.328 C  
HETATM   22  O   UNL     1     -12.037  11.445  67.606  1.00  0.00    -0.630 OA 
BRANCH  21  23
HETATM   23  C   UNL     1     -11.108  13.206  66.366  1.00  0.00    -0.311 A  
HETATM   24  C   UNL     1     -11.570  13.522  65.081  1.00  0.00    -0.333 A  
HETATM   25  C   UNL     1     -11.502  14.835  64.618  1.00  0.00    -0.381 A  
HETATM   26  C   UNL     1     -10.986  15.827  65.442  1.00  0.00    -0.309 A  
HETATM   27  C   UNL     1     -10.537  15.530  66.724  1.00  0.00    -0.307 A  
HETATM   28  F   UNL     1     -10.918  17.087  64.996  1.00  0.00    -0.400 F  
HETATM   29  C   UNL     1     -10.596  14.215  67.193  1.00  0.00    -0.278 A  
ENDBRANCH  21  23
ENDBRANCH  20  21
ENDBRANCH  19  20
ENDBRANCH  18  19
ENDBRANCH  15  18
ENDBRANCH  11  12
TORSDOF 6
ENDMDL
MODEL      139
REMARK 921   NORMALIZED FREE ENERGY PREDICTED BY IDOCK:   -4.93 KCAL/MOL
REMARK 922        TOTAL FREE ENERGY PREDICTED BY IDOCK:   -7.97 KCAL/MOL
REMARK 923 INTER-LIGAND FREE ENERGY PREDICTED BY IDOCK:   -7.59 KCAL/MOL
REMARK 924 INTRA-LIGAND FREE ENERGY PREDICTED BY IDOCK:   -0.38 KCAL/MOL
REMARK 927      BINDING AFFINITY PREDICTED BY RF-SCORE:    0.00 PKD
ROOT
HETATM    1  O   UNL     1     -11.441  15.050  64.428  1.00  0.00    -0.603 OA 
HETATM    2  C   UNL     1     -11.153  16.085  65.184  1.00  0.00    -0.283 A  
HETATM    3  H   UNL     1     -11.524  14.173  64.784  1.00  0.00     0.000 HD 
HETATM    4  N   UNL     1     -11.040  17.288  64.697  1.00  0.00    -0.959 NA 
HETATM    5  C   UNL     1     -10.691  18.058  65.777  1.00  0.00    -0.084 A  
HETATM    6  C   UNL     1     -10.381  19.424  65.822  1.00  0.00    -0.431 A  
HETATM    7  C   UNL     1     -10.039  19.996  67.053  1.00  0.00    -0.594 A  
HETATM    8  C   UNL     1     -10.034  19.233  68.218  1.00  0.00    -0.497 A  
HETATM    9  C   UNL     1     -10.346  17.869  68.197  1.00  0.00    -0.395 A  
HETATM   10  C   UNL     1     -10.639  17.302  66.951  1.00  0.00    -0.213 A  
HETATM   11  N   UNL     1     -10.875  16.019  66.523  1.00  0.00    -0.230 NA 
ENDROOT
BRANCH  11  12
HETATM   12  C   UNL     1     -10.668  14.775  67.231  1.00  0.00    -0.294 C  
HETATM   13  C   UNL     1      -9.287  14.153  67.045  1.00  0.00    -0.253 C  
HETATM   14  C   UNL     1      -9.159  13.026  68.073  1.00  0.00    -0.210 C  
HETATM   15  N   UNL     1     -10.210  11.999  67.954  1.00  0.00    -0.191 NA 
HETATM   16  C   UNL     1     -11.561  12.582  67.980  1.00  0.00    -0.342 C  
HETATM   17  C   UNL     1     -11.751  13.720  66.981  1.00  0.00    -0.420 C  
BRANCH  15  18
HETATM   18  C   UNL     1     -10.025  11.094  66.811  1.00  0.00    -0.208 C  
BRANCH  18  19
HETATM   19  C   UNL     1      -9.706   9.658  67.235  1.00  0.00    -0.213 C  
BRANCH  19  20
HETATM   20  C   UNL     1      -9.927   8.661  66.097  1.00  0.00    -0.204 C  
BRANCH  20  21
HETATM   21  C   UNL     1      -8.616   8.168  65.525  1.00  0.00    -0.149 C  
HETATM   22  O   UNL     1      -7.784   8.916  65.019  1.00  0.00    -0.097 OA 
BRANCH  21  23
HETATM   23  C   UNL     1      -8.356   6.704  65.548  1.00  0.00    -0.144 A  
HETATM   24  C   UNL     1      -7.981   6.086  64.347  1.00  0.00    -0.123 A  
HETATM   25  C   UNL     1      -7.754   4.711  64.309  1.00  0.00    -0.078 A  
HETATM   26  C   UNL     1      -7.889   3.962  65.472  1.00  0.00    -0.093 A  
HETATM   27  C   UNL     1      -8.245   4.565  66.673  1.00  0.00    -0.102 A  
HETATM   28  F   UNL     1      -7.673   2.642  65.435  1.00  0.00    -0.072 F  
HETATM   29  C   UNL     1      -8.481   5.941  66.717  1.00  0.00    -0.109 A  
ENDBRANCH  21  23
ENDBRANCH  20  21
ENDBRANCH  19  20
ENDBRANCH  18  19
ENDBRANCH  15  18
ENDBRANCH  11  12
TORSDOF 6
ENDMDL
MODEL      140
REMARK 921   NORMALIZED FREE ENERGY PREDICTED BY IDOCK:   -4.93 KCAL/MOL
REMARK 922        TOTAL FREE ENERGY PREDICTED BY IDOCK:   -7.96 KCAL/MOL
REMARK 923 INTER-LIGAND FREE ENERGY PREDICTED BY IDOCK:   -7.15 KCAL/MOL
REMARK 924 INTRA-LIGAND FREE ENERGY PREDICTED BY IDOCK:   -0.81 KCAL/MOL
REMARK 927      BINDING AFFINITY PREDICTED BY RF-SCORE:    0.00 PKD
ROOT
HETATM    1  O   UNL     1      -6.401   9.375  70.520  1.00  0.00    -0.055 OA 
HETATM    2  C   UNL     1      -7.499   8.655  70.473  1.00  0.00    -0.071 A  
HETATM    3  H   UNL     1      -6.311  10.189  70.038  1.00  0.00     0.000 HD 
HETATM    4  N   UNL     1      -7.623   7.538  71.134  1.00  0.00    -0.080 NA 
HETATM    5  C   UNL     1      -8.868   7.078  70.787  1.00  0.00    -0.149 A  
HETATM    6  C   UNL     1      -9.500   5.883  71.156  1.00  0.00    -0.183 A  
HETATM    7  C   UNL     1     -10.783   5.621  70.664  1.00  0.00    -0.333 A  
HETATM    8  C   UNL     1     -11.435   6.539  69.845  1.00  0.00    -0.467 A  
HETATM    9  C   UNL     1     -10.826   7.741  69.468  1.00  0.00    -0.157 A  
HETATM   10  C   UNL     1      -9.524   7.967  69.930  1.00  0.00    -0.160 A  
HETATM   11  N   UNL     1      -8.586   8.941  69.692  1.00  0.00    -0.127 NA 
ENDROOT
BRANCH  11  12
HETATM   12  C   UNL     1      -8.583   9.965  68.671  1.00  0.00    -0.119 C  
HETATM   13  C   UNL     1      -9.922  10.665  68.459  1.00  0.00    -0.176 C  
HETATM   14  C   UNL     1      -9.658  11.881  67.569  1.00  0.00    -0.175 C  
HETATM   15  N   UNL     1      -9.042  11.540  66.273  1.00  0.00    -0.205 NA 
HETATM   16  C   UNL     1      -7.822  10.734  66.435  1.00  0.00    -0.148 C  
HETATM   17  C   UNL     1      -8.017   9.507  67.322  1.00  0.00    -0.106 C  
BRANCH  15  18
HETATM   18  C   UNL     1      -9.978  10.933  65.316  1.00  0.00    -0.273 C  
BRANCH  18  19
HETATM   19  C   UNL     1     -11.124  11.872  64.929  1.00  0.00    -0.363 C  
BRANCH  19  20
HETATM   20  C   UNL     1     -10.613  13.216  64.407  1.00  0.00    -0.441 C  
BRANCH  20  21
HETATM   21  C   UNL     1     -11.596  14.332  64.685  1.00  0.00    -0.408 C  
HETATM   22  O   UNL     1     -12.632  14.486  64.043  1.00  0.00    -0.797 OA 
BRANCH  21  23
HETATM   23  C   UNL     1     -11.260  15.301  65.763  1.00  0.00    -0.247 A  
HETATM   24  C   UNL     1     -11.499  14.914  67.089  1.00  0.00    -0.344 A  
HETATM   25  C   UNL     1     -11.228  15.798  68.133  1.00  0.00    -0.344 A  
HETATM   26  C   UNL     1     -10.709  17.055  67.850  1.00  0.00    -0.348 A  
HETATM   27  C   UNL     1     -10.454  17.446  66.540  1.00  0.00    -0.264 A  
HETATM   28  F   UNL     1     -10.452  17.903  68.852  1.00  0.00    -0.348 F  
HETATM   29  C   UNL     1     -10.730  16.569  65.488  1.00  0.00    -0.267 A  
ENDBRANCH  21  23
ENDBRANCH  20  21
ENDBRANCH  19  20
ENDBRANCH  18  19
ENDBRANCH  15  18
ENDBRANCH  11  12
TORSDOF 6
ENDMDL
MODEL      141
REMARK 921   NORMALIZED FREE ENERGY PREDICTED BY IDOCK:   -4.92 KCAL/MOL
REMARK 922        TOTAL FREE ENERGY PREDICTED BY IDOCK:   -7.96 KCAL/MOL
REMARK 923 INTER-LIGAND FREE ENERGY PREDICTED BY IDOCK:   -7.06 KCAL/MOL
REMARK 924 INTRA-LIGAND FREE ENERGY PREDICTED BY IDOCK:   -0.90 KCAL/MOL
REMARK 927      BINDING AFFINITY PREDICTED BY RF-SCORE:    0.00 PKD
ROOT
HETATM    1  O   UNL     1     -12.417  14.207  63.445  1.00  0.00    -1.122 OA 
HETATM    2  C   UNL     1     -11.909  15.033  64.332  1.00  0.00    -0.339 A  
HETATM    3  H   UNL     1     -12.533  13.282  63.625  1.00  0.00     0.000 HD 
HETATM    4  N   UNL     1     -11.750  16.302  64.085  1.00  0.00    -0.904 NA 
HETATM    5  C   UNL     1     -11.158  16.795  65.220  1.00  0.00     0.007 A  
HETATM    6  C   UNL     1     -10.705  18.094  65.485  1.00  0.00     0.051 A  
HETATM    7  C   UNL     1     -10.117  18.362  66.726  1.00  0.00    -0.391 A  
HETATM    8  C   UNL     1     -10.007  17.366  67.694  1.00  0.00    -0.300 A  
HETATM    9  C   UNL     1     -10.458  16.064  67.453  1.00  0.00    -0.308 A  
HETATM   10  C   UNL     1     -11.000  15.800  66.190  1.00  0.00    -0.169 A  
HETATM   11  N   UNL     1     -11.432  14.660  65.559  1.00  0.00    -0.340 NA 
ENDROOT
BRANCH  11  12
HETATM   12  C   UNL     1     -11.245  13.281  65.954  1.00  0.00    -0.290 C  
HETATM   13  C   UNL     1     -11.772  12.933  67.343  1.00  0.00    -0.428 C  
HETATM   14  C   UNL     1     -11.748  11.408  67.465  1.00  0.00    -0.140 C  
HETATM   15  N   UNL     1     -10.411  10.822  67.256  1.00  0.00    -0.223 NA 
HETATM   16  C   UNL     1      -9.807  11.256  65.987  1.00  0.00    -0.229 C  
HETATM   17  C   UNL     1      -9.808  12.771  65.801  1.00  0.00    -0.222 C  
BRANCH  15  18
HETATM   18  C   UNL     1      -9.499  11.014  68.393  1.00  0.00    -0.182 C  
BRANCH  18  19
HETATM   19  C   UNL     1      -8.349  10.003  68.409  1.00  0.00    -0.111 C  
BRANCH  19  20
HETATM   20  C   UNL     1      -8.831   8.581  68.121  1.00  0.00    -0.142 C  
BRANCH  20  21
HETATM   21  C   UNL     1      -8.139   7.992  66.912  1.00  0.00    -0.108 C  
HETATM   22  O   UNL     1      -7.288   8.599  66.266  1.00  0.00    -0.084 OA 
BRANCH  21  23
HETATM   23  C   UNL     1      -8.545   6.630  66.474  1.00  0.00    -0.124 A  
HETATM   24  C   UNL     1      -9.780   6.139  66.921  1.00  0.00    -0.178 A  
HETATM   25  C   UNL     1     -10.193   4.857  66.562  1.00  0.00    -0.305 A  
HETATM   26  C   UNL     1      -9.381   4.077  65.750  1.00  0.00    -0.160 A  
HETATM   27  C   UNL     1      -8.160   4.556  65.287  1.00  0.00    -0.103 A  
HETATM   28  F   UNL     1      -9.777   2.845  65.407  1.00  0.00    -0.123 F  
HETATM   29  C   UNL     1      -7.736   5.837  65.648  1.00  0.00    -0.093 A  
ENDBRANCH  21  23
ENDBRANCH  20  21
ENDBRANCH  19  20
ENDBRANCH  18  19
ENDBRANCH  15  18
ENDBRANCH  11  12
TORSDOF 6
ENDMDL
MODEL      142
REMARK 921   NORMALIZED FREE ENERGY PREDICTED BY IDOCK:   -4.91 KCAL/MOL
REMARK 922        TOTAL FREE ENERGY PREDICTED BY IDOCK:   -7.94 KCAL/MOL
REMARK 923 INTER-LIGAND FREE ENERGY PREDICTED BY IDOCK:   -6.27 KCAL/MOL
REMARK 924 INTRA-LIGAND FREE ENERGY PREDICTED BY IDOCK:   -1.67 KCAL/MOL
REMARK 927      BINDING AFFINITY PREDICTED BY RF-SCORE:    0.00 PKD
ROOT
HETATM    1  O   UNL     1     -12.413  15.840  68.768  1.00  0.00    -0.475 OA 
HETATM    2  C   UNL     1     -11.113  15.883  68.585  1.00  0.00    -0.337 A  
HETATM    3  H   UNL     1     -12.958  15.178  68.360  1.00  0.00     0.000 HD 
HETATM    4  N   UNL     1     -10.364  16.792  69.144  1.00  0.00    -0.313 NA 
HETATM    5  C   UNL     1      -9.104  16.526  68.673  1.00  0.00    -0.239 A  
HETATM    6  C   UNL     1      -7.913  17.230  68.899  1.00  0.00    -0.196 A  
HETATM    7  C   UNL     1      -6.736  16.771  68.296  1.00  0.00    -0.154 A  
HETATM    8  C   UNL     1      -6.738  15.622  67.509  1.00  0.00    -0.221 A  
HETATM    9  C   UNL     1      -7.914  14.902  67.274  1.00  0.00    -0.237 A  
HETATM   10  C   UNL     1      -9.091  15.400  67.845  1.00  0.00    -0.178 A  
HETATM   11  N   UNL     1     -10.415  15.049  67.753  1.00  0.00    -0.246 NA 
ENDROOT
BRANCH  11  12
HETATM   12  C   UNL     1     -11.050  14.145  66.820  1.00  0.00    -0.310 C  
HETATM   13  C   UNL     1     -10.507  12.719  66.836  1.00  0.00    -0.250 C  
HETATM   14  C   UNL     1     -11.470  11.861  66.013  1.00  0.00    -0.281 C  
HETATM   15  N   UNL     1     -11.641  12.334  64.627  1.00  0.00    -0.336 NA 
HETATM   16  C   UNL     1     -12.023  13.754  64.568  1.00  0.00    -0.427 C  
HETATM   17  C   UNL     1     -11.104  14.664  65.379  1.00  0.00    -0.349 C  
BRANCH  15  18
HETATM   18  C   UNL     1     -10.495  12.037  63.756  1.00  0.00    -0.429 C  
BRANCH  18  19
HETATM   19  C   UNL     1     -10.153  10.545  63.712  1.00  0.00    -0.253 C  
BRANCH  19  20
HETATM   20  C   UNL     1      -8.656  10.295  63.892  1.00  0.00    -0.191 C  
BRANCH  20  21
HETATM   21  C   UNL     1      -8.392   9.172  64.871  1.00  0.00    -0.162 C  
HETATM   22  O   UNL     1      -8.583   7.989  64.600  1.00  0.00    -0.046 OA 
BRANCH  21  23
HETATM   23  C   UNL     1      -7.918   9.536  66.233  1.00  0.00    -0.107 A  
HETATM   24  C   UNL     1      -7.238  10.752  66.387  1.00  0.00    -0.138 A  
HETATM   25  C   UNL     1      -6.748  11.125  67.638  1.00  0.00    -0.071 A  
HETATM   26  C   UNL     1      -6.951  10.291  68.730  1.00  0.00    -0.067 A  
HETATM   27  C   UNL     1      -7.637   9.089  68.594  1.00  0.00    -0.092 A  
HETATM   28  F   UNL     1      -6.479  10.648  69.930  1.00  0.00    -0.063 F  
HETATM   29  C   UNL     1      -8.124   8.705  67.343  1.00  0.00    -0.102 A  
ENDBRANCH  21  23
ENDBRANCH  20  21
ENDBRANCH  19  20
ENDBRANCH  18  19
ENDBRANCH  15  18
ENDBRANCH  11  12
TORSDOF 6
ENDMDL
MODEL      143
REMARK 921   NORMALIZED FREE ENERGY PREDICTED BY IDOCK:   -4.90 KCAL/MOL
REMARK 922        TOTAL FREE ENERGY PREDICTED BY IDOCK:   -7.93 KCAL/MOL
REMARK 923 INTER-LIGAND FREE ENERGY PREDICTED BY IDOCK:   -7.46 KCAL/MOL
REMARK 924 INTRA-LIGAND FREE ENERGY PREDICTED BY IDOCK:   -0.47 KCAL/MOL
REMARK 927      BINDING AFFINITY PREDICTED BY RF-SCORE:    0.00 PKD
ROOT
HETATM    1  O   UNL     1     -11.860   8.061  73.021  1.00  0.00    -0.587 OA 
HETATM    2  C   UNL     1     -11.325   7.070  72.344  1.00  0.00    -0.269 A  
HETATM    3  H   UNL     1     -11.884   8.948  72.682  1.00  0.00     0.000 HD 
HETATM    4  N   UNL     1     -11.292   5.852  72.808  1.00  0.00    -0.280 NA 
HETATM    5  C   UNL     1     -10.622   5.143  71.844  1.00  0.00    -0.188 A  
HETATM    6  C   UNL     1     -10.245   3.793  71.846  1.00  0.00    -0.128 A  
HETATM    7  C   UNL     1      -9.550   3.287  70.742  1.00  0.00    -0.228 A  
HETATM    8  C   UNL     1      -9.262   4.098  69.646  1.00  0.00    -0.210 A  
HETATM    9  C   UNL     1      -9.635   5.446  69.620  1.00  0.00    -0.217 A  
HETATM   10  C   UNL     1     -10.286   5.949  70.753  1.00  0.00    -0.211 A  
HETATM   11  N   UNL     1     -10.693   7.203  71.137  1.00  0.00    -0.231 NA 
ENDROOT
BRANCH  11  12
HETATM   12  C   UNL     1     -10.360   8.482  70.551  1.00  0.00    -0.200 C  
HETATM   13  C   UNL     1     -11.405   9.041  69.590  1.00  0.00     0.106 C  
HETATM   14  C   UNL     1     -11.022  10.494  69.303  1.00  0.00    -0.244 C  
HETATM   15  N   UNL     1      -9.668  10.646  68.741  1.00  0.00    -0.181 NA 
HETATM   16  C   UNL     1      -8.646   9.989  69.570  1.00  0.00    -0.186 C  
HETATM   17  C   UNL     1      -8.974   8.535  69.899  1.00  0.00    -0.145 C  
BRANCH  15  18
HETATM   18  C   UNL     1      -9.567  10.251  67.329  1.00  0.00    -0.159 C  
BRANCH  18  19
HETATM   19  C   UNL     1      -9.959  11.376  66.367  1.00  0.00    -0.247 C  
BRANCH  19  20
HETATM   20  C   UNL     1     -11.411  11.254  65.903  1.00  0.00     0.008 C  
BRANCH  20  21
HETATM   21  C   UNL     1     -11.979  12.594  65.492  1.00  0.00    -0.456 C  
HETATM   22  O   UNL     1     -12.941  12.710  64.736  1.00  0.00    -0.816 OA 
BRANCH  21  23
HETATM   23  C   UNL     1     -11.309  13.819  66.004  1.00  0.00    -0.319 A  
HETATM   24  C   UNL     1     -11.708  14.310  67.255  1.00  0.00    -0.422 A  
HETATM   25  C   UNL     1     -11.130  15.472  67.766  1.00  0.00    -0.315 A  
HETATM   26  C   UNL     1     -10.149  16.129  67.033  1.00  0.00    -0.270 A  
HETATM   27  C   UNL     1      -9.733  15.644  65.798  1.00  0.00    -0.380 A  
HETATM   28  F   UNL     1      -9.597  17.245  67.523  1.00  0.00    -0.246 F  
HETATM   29  C   UNL     1     -10.313  14.485  65.277  1.00  0.00    -0.435 A  
ENDBRANCH  21  23
ENDBRANCH  20  21
ENDBRANCH  19  20
ENDBRANCH  18  19
ENDBRANCH  15  18
ENDBRANCH  11  12
TORSDOF 6
ENDMDL
MODEL      144
REMARK 921   NORMALIZED FREE ENERGY PREDICTED BY IDOCK:   -4.90 KCAL/MOL
REMARK 922        TOTAL FREE ENERGY PREDICTED BY IDOCK:   -7.92 KCAL/MOL
REMARK 923 INTER-LIGAND FREE ENERGY PREDICTED BY IDOCK:   -6.03 KCAL/MOL
REMARK 924 INTRA-LIGAND FREE ENERGY PREDICTED BY IDOCK:   -1.90 KCAL/MOL
REMARK 927      BINDING AFFINITY PREDICTED BY RF-SCORE:    0.00 PKD
ROOT
HETATM    1  O   UNL     1     -11.777  11.874  70.700  1.00  0.00    -0.478 OA 
HETATM    2  C   UNL     1     -11.641  10.568  70.670  1.00  0.00    -0.352 A  
HETATM    3  H   UNL     1     -11.531  12.424  69.966  1.00  0.00     0.000 HD 
HETATM    4  N   UNL     1     -11.978   9.813  71.678  1.00  0.00    -0.396 NA 
HETATM    5  C   UNL     1     -11.641   8.545  71.276  1.00  0.00    -0.283 A  
HETATM    6  C   UNL     1     -11.727   7.343  71.991  1.00  0.00    -0.325 A  
HETATM    7  C   UNL     1     -11.309   6.160  71.371  1.00  0.00    -0.336 A  
HETATM    8  C   UNL     1     -10.842   6.169  70.058  1.00  0.00    -0.408 A  
HETATM    9  C   UNL     1     -10.753   7.356  69.324  1.00  0.00    -0.197 A  
HETATM   10  C   UNL     1     -11.130   8.537  69.975  1.00  0.00    -0.151 A  
HETATM   11  N   UNL     1     -11.079   9.867  69.637  1.00  0.00    -0.247 NA 
ENDROOT
BRANCH  11  12
HETATM   12  C   UNL     1     -10.383  10.495  68.536  1.00  0.00    -0.179 C  
HETATM   13  C   UNL     1     -11.249  10.792  67.315  1.00  0.00    -0.272 C  
HETATM   14  C   UNL     1     -10.429  11.695  66.391  1.00  0.00    -0.244 C  
HETATM   15  N   UNL     1      -9.142  11.105  65.982  1.00  0.00    -0.198 NA 
HETATM   16  C   UNL     1      -8.340  10.669  67.135  1.00  0.00    -0.125 C  
HETATM   17  C   UNL     1      -9.105   9.770  68.102  1.00  0.00    -0.125 C  
BRANCH  15  18
HETATM   18  C   UNL     1      -9.273  10.045  64.972  1.00  0.00    -0.225 C  
BRANCH  18  19
HETATM   19  C   UNL     1      -7.944   9.348  64.666  1.00  0.00    -0.124 C  
BRANCH  19  20
HETATM   20  C   UNL     1      -8.082   7.825  64.664  1.00  0.00    -0.123 C  
BRANCH  20  21
HETATM   21  C   UNL     1      -7.478   7.210  65.906  1.00  0.00    -0.080 C  
HETATM   22  O   UNL     1      -6.439   7.619  66.419  1.00  0.00    -0.047 OA 
BRANCH  21  23
HETATM   23  C   UNL     1      -8.162   6.030  66.500  1.00  0.00    -0.107 A  
HETATM   24  C   UNL     1      -7.632   5.490  67.680  1.00  0.00    -0.088 A  
HETATM   25  C   UNL     1      -8.220   4.366  68.260  1.00  0.00    -0.089 A  
HETATM   26  C   UNL     1      -9.340   3.796  67.668  1.00  0.00    -0.195 A  
HETATM   27  C   UNL     1      -9.885   4.331  66.506  1.00  0.00    -0.238 A  
HETATM   28  F   UNL     1      -9.903   2.717  68.224  1.00  0.00    -0.237 F  
HETATM   29  C   UNL     1      -9.297   5.452  65.915  1.00  0.00    -0.155 A  
ENDBRANCH  21  23
ENDBRANCH  20  21
ENDBRANCH  19  20
ENDBRANCH  18  19
ENDBRANCH  15  18
ENDBRANCH  11  12
TORSDOF 6
ENDMDL
MODEL      145
REMARK 921   NORMALIZED FREE ENERGY PREDICTED BY IDOCK:   -4.90 KCAL/MOL
REMARK 922        TOTAL FREE ENERGY PREDICTED BY IDOCK:   -7.92 KCAL/MOL
REMARK 923 INTER-LIGAND FREE ENERGY PREDICTED BY IDOCK:   -7.15 KCAL/MOL
REMARK 924 INTRA-LIGAND FREE ENERGY PREDICTED BY IDOCK:   -0.77 KCAL/MOL
REMARK 927      BINDING AFFINITY PREDICTED BY RF-SCORE:    0.00 PKD
ROOT
HETATM    1  O   UNL     1     -11.301   6.494  67.538  1.00  0.00    -0.669 OA 
HETATM    2  C   UNL     1     -10.255   6.394  66.749  1.00  0.00    -0.195 A  
HETATM    3  H   UNL     1     -11.566   7.322  67.922  1.00  0.00     0.000 HD 
HETATM    4  N   UNL     1      -9.892   5.259  66.221  1.00  0.00    -0.172 NA 
HETATM    5  C   UNL     1      -8.752   5.563  65.521  1.00  0.00    -0.154 A  
HETATM    6  C   UNL     1      -7.904   4.707  64.807  1.00  0.00    -0.087 A  
HETATM    7  C   UNL     1      -6.779   5.249  64.173  1.00  0.00    -0.046 A  
HETATM    8  C   UNL     1      -6.521   6.617  64.225  1.00  0.00    -0.038 A  
HETATM    9  C   UNL     1      -7.359   7.491  64.927  1.00  0.00    -0.079 A  
HETATM   10  C   UNL     1      -8.452   6.926  65.595  1.00  0.00    -0.136 A  
HETATM   11  N   UNL     1      -9.403   7.423  66.452  1.00  0.00    -0.174 NA 
ENDROOT
BRANCH  11  12
HETATM   12  C   UNL     1      -9.433   8.701  67.128  1.00  0.00    -0.160 C  
HETATM   13  C   UNL     1      -9.546   8.621  68.648  1.00  0.00    -0.159 C  
HETATM   14  C   UNL     1      -9.277  10.026  69.193  1.00  0.00    -0.190 C  
HETATM   15  N   UNL     1     -10.194  11.050  68.659  1.00  0.00    -0.191 NA 
HETATM   16  C   UNL     1     -10.222  11.055  67.188  1.00  0.00    -0.206 C  
HETATM   17  C   UNL     1     -10.478   9.679  66.580  1.00  0.00    -0.213 C  
BRANCH  15  18
HETATM   18  C   UNL     1     -11.545  10.991  69.234  1.00  0.00    -0.314 C  
BRANCH  18  19
HETATM   19  C   UNL     1     -11.565  10.394  70.644  1.00  0.00    -0.440 C  
BRANCH  19  20
HETATM   20  C   UNL     1     -12.970  10.395  71.247  1.00  0.00    -0.517 C  
BRANCH  20  21
HETATM   21  C   UNL     1     -13.239   9.133  72.036  1.00  0.00    -0.441 C  
HETATM   22  O   UNL     1     -14.265   8.958  72.690  1.00  0.00    -0.563 OA 
BRANCH  21  23
HETATM   23  C   UNL     1     -12.188   8.081  72.043  1.00  0.00    -0.374 A  
HETATM   24  C   UNL     1     -12.207   7.129  71.014  1.00  0.00    -0.384 A  
HETATM   25  C   UNL     1     -11.260   6.105  70.993  1.00  0.00    -0.361 A  
HETATM   26  C   UNL     1     -10.293   6.045  71.987  1.00  0.00    -0.202 A  
HETATM   27  C   UNL     1     -10.253   6.992  73.005  1.00  0.00    -0.264 A  
HETATM   28  F   UNL     1      -9.386   5.061  71.967  1.00  0.00    -0.143 F  
HETATM   29  C   UNL     1     -11.203   8.015  73.038  1.00  0.00    -0.279 A  
ENDBRANCH  21  23
ENDBRANCH  20  21
ENDBRANCH  19  20
ENDBRANCH  18  19
ENDBRANCH  15  18
ENDBRANCH  11  12
TORSDOF 6
ENDMDL
MODEL      146
REMARK 921   NORMALIZED FREE ENERGY PREDICTED BY IDOCK:   -4.89 KCAL/MOL
REMARK 922        TOTAL FREE ENERGY PREDICTED BY IDOCK:   -7.91 KCAL/MOL
REMARK 923 INTER-LIGAND FREE ENERGY PREDICTED BY IDOCK:   -7.13 KCAL/MOL
REMARK 924 INTRA-LIGAND FREE ENERGY PREDICTED BY IDOCK:   -0.79 KCAL/MOL
REMARK 927      BINDING AFFINITY PREDICTED BY RF-SCORE:    0.00 PKD
ROOT
HETATM    1  O   UNL     1      -6.783   8.913  63.916  1.00  0.00    -0.087 OA 
HETATM    2  C   UNL     1      -7.680   8.308  64.661  1.00  0.00    -0.117 A  
HETATM    3  H   UNL     1      -6.734   9.860  63.855  1.00  0.00     0.000 HD 
HETATM    4  N   UNL     1      -7.748   7.009  64.745  1.00  0.00    -0.108 NA 
HETATM    5  C   UNL     1      -8.825   6.780  65.564  1.00  0.00     0.035 A  
HETATM    6  C   UNL     1      -9.395   5.559  65.948  1.00  0.00    -0.140 A  
HETATM    7  C   UNL     1     -10.510   5.574  66.793  1.00  0.00    -0.355 A  
HETATM    8  C   UNL     1     -11.029   6.776  67.269  1.00  0.00    -0.433 A  
HETATM    9  C   UNL     1     -10.472   8.006  66.903  1.00  0.00    -0.387 A  
HETATM   10  C   UNL     1      -9.387   7.976  66.019  1.00  0.00    -0.091 A  
HETATM   11  N   UNL     1      -8.668   8.944  65.363  1.00  0.00    -0.182 NA 
ENDROOT
BRANCH  11  12
HETATM   12  C   UNL     1      -8.970  10.350  65.212  1.00  0.00    -0.187 C  
HETATM   13  C   UNL     1      -8.805  11.183  66.480  1.00  0.00    -0.174 C  
HETATM   14  C   UNL     1      -8.885  12.654  66.067  1.00  0.00     0.320 C  
HETATM   15  N   UNL     1     -10.141  13.004  65.377  1.00  0.00    -0.279 NA 
HETATM   16  C   UNL     1     -10.408  12.122  64.231  1.00  0.00    -0.334 C  
HETATM   17  C   UNL     1     -10.335  10.636  64.576  1.00  0.00    -0.352 C  
BRANCH  15  18
HETATM   18  C   UNL     1     -11.300  13.103  66.275  1.00  0.00    -0.315 C  
BRANCH  18  19
HETATM   19  C   UNL     1     -11.113  14.155  67.372  1.00  0.00    -0.318 C  
BRANCH  19  20
HETATM   20  C   UNL     1     -10.670  13.531  68.696  1.00  0.00    -0.271 C  
BRANCH  20  21
HETATM   21  C   UNL     1     -11.854  13.087  69.527  1.00  0.00    -0.323 C  
HETATM   22  O   UNL     1     -12.471  12.047  69.310  1.00  0.00    -0.018 OA 
BRANCH  21  23
HETATM   23  C   UNL     1     -12.303  13.981  70.628  1.00  0.00    -0.446 A  
HETATM   24  C   UNL     1     -11.388  14.918  71.126  1.00  0.00    -0.256 A  
HETATM   25  C   UNL     1     -11.751  15.759  72.177  1.00  0.00    -0.573 A  
HETATM   26  C   UNL     1     -13.028  15.669  72.717  1.00  0.00    -0.480 A  
HETATM   27  C   UNL     1     -13.951  14.754  72.222  1.00  0.00    -0.598 A  
HETATM   28  F   UNL     1     -13.376  16.475  73.727  1.00  0.00    -0.518 F  
HETATM   29  C   UNL     1     -13.592  13.903  71.174  1.00  0.00    -0.140 A  
ENDBRANCH  21  23
ENDBRANCH  20  21
ENDBRANCH  19  20
ENDBRANCH  18  19
ENDBRANCH  15  18
ENDBRANCH  11  12
TORSDOF 6
ENDMDL
MODEL      147
REMARK 921   NORMALIZED FREE ENERGY PREDICTED BY IDOCK:   -4.89 KCAL/MOL
REMARK 922        TOTAL FREE ENERGY PREDICTED BY IDOCK:   -7.91 KCAL/MOL
REMARK 923 INTER-LIGAND FREE ENERGY PREDICTED BY IDOCK:   -7.11 KCAL/MOL
REMARK 924 INTRA-LIGAND FREE ENERGY PREDICTED BY IDOCK:   -0.80 KCAL/MOL
REMARK 927      BINDING AFFINITY PREDICTED BY RF-SCORE:    0.00 PKD
ROOT
HETATM    1  O   UNL     1      -7.595   4.821  67.023  1.00  0.00    -0.085 OA 
HETATM    2  C   UNL     1      -8.182   4.910  68.195  1.00  0.00    -0.089 A  
HETATM    3  H   UNL     1      -7.439   5.583  66.477  1.00  0.00     0.000 HD 
HETATM    4  N   UNL     1      -8.396   3.865  68.944  1.00  0.00    -0.072 NA 
HETATM    5  C   UNL     1      -9.059   4.364  70.036  1.00  0.00    -0.106 A  
HETATM    6  C   UNL     1      -9.590   3.674  71.134  1.00  0.00    -0.247 A  
HETATM    7  C   UNL     1     -10.243   4.403  72.135  1.00  0.00    -0.247 A  
HETATM    8  C   UNL     1     -10.341   5.790  72.058  1.00  0.00    -0.254 A  
HETATM    9  C   UNL     1      -9.814   6.499  70.974  1.00  0.00    -0.196 A  
HETATM   10  C   UNL     1      -9.207   5.752  69.958  1.00  0.00    -0.146 A  
HETATM   11  N   UNL     1      -8.690   6.065  68.726  1.00  0.00    -0.111 NA 
ENDROOT
BRANCH  11  12
HETATM   12  C   UNL     1      -8.822   7.294  67.975  1.00  0.00    -0.129 C  
HETATM   13  C   UNL     1      -7.977   8.456  68.490  1.00  0.00    -0.121 C  
HETATM   14  C   UNL     1      -8.025   9.554  67.426  1.00  0.00    -0.106 C  
HETATM   15  N   UNL     1      -9.392  10.008  67.109  1.00  0.00    -0.148 NA 
HETATM   16  C   UNL     1     -10.278   8.890  66.749  1.00  0.00    -0.278 C  
HETATM   17  C   UNL     1     -10.269   7.755  67.769  1.00  0.00    -0.271 C  
BRANCH  15  18
HETATM   18  C   UNL     1      -9.983  10.866  68.146  1.00  0.00    -0.174 C  
BRANCH  18  19
HETATM   19  C   UNL     1     -11.126  11.737  67.615  1.00  0.00    -0.312 C  
BRANCH  19  20
HETATM   20  C   UNL     1     -12.035  12.237  68.738  1.00  0.00    -0.281 C  
BRANCH  20  21
HETATM   21  C   UNL     1     -11.744  13.680  69.089  1.00  0.00    -0.329 C  
HETATM   22  O   UNL     1     -11.157  14.448  68.331  1.00  0.00    -0.239 OA 
BRANCH  21  23
HETATM   23  C   UNL     1     -12.160  14.165  70.432  1.00  0.00    -0.417 A  
HETATM   24  C   UNL     1     -11.333  15.094  71.079  1.00  0.00    -0.358 A  
HETATM   25  C   UNL     1     -11.663  15.557  72.352  1.00  0.00    -0.570 A  
HETATM   26  C   UNL     1     -12.823  15.103  72.966  1.00  0.00    -0.468 A  
HETATM   27  C   UNL     1     -13.661  14.193  72.330  1.00  0.00    -0.645 A  
HETATM   28  F   UNL     1     -13.139  15.546  74.189  1.00  0.00    -0.555 F  
HETATM   29  C   UNL     1     -13.332  13.719  71.058  1.00  0.00    -0.154 A  
ENDBRANCH  21  23
ENDBRANCH  20  21
ENDBRANCH  19  20
ENDBRANCH  18  19
ENDBRANCH  15  18
ENDBRANCH  11  12
TORSDOF 6
ENDMDL
MODEL      148
REMARK 921   NORMALIZED FREE ENERGY PREDICTED BY IDOCK:   -4.88 KCAL/MOL
REMARK 922        TOTAL FREE ENERGY PREDICTED BY IDOCK:   -7.90 KCAL/MOL
REMARK 923 INTER-LIGAND FREE ENERGY PREDICTED BY IDOCK:   -7.26 KCAL/MOL
REMARK 924 INTRA-LIGAND FREE ENERGY PREDICTED BY IDOCK:   -0.64 KCAL/MOL
REMARK 927      BINDING AFFINITY PREDICTED BY RF-SCORE:    0.00 PKD
ROOT
HETATM    1  O   UNL     1     -11.757   9.387  71.639  1.00  0.00    -0.358 OA 
HETATM    2  C   UNL     1     -11.431   8.118  71.740  1.00  0.00    -0.284 A  
HETATM    3  H   UNL     1     -11.416   9.942  70.947  1.00  0.00     0.000 HD 
HETATM    4  N   UNL     1     -11.898   7.356  72.689  1.00  0.00    -0.191 NA 
HETATM    5  C   UNL     1     -11.292   6.144  72.477  1.00  0.00    -0.286 A  
HETATM    6  C   UNL     1     -11.381   4.971  73.237  1.00  0.00    -0.393 A  
HETATM    7  C   UNL     1     -10.655   3.847  72.827  1.00  0.00    -0.206 A  
HETATM    8  C   UNL     1      -9.880   3.881  71.670  1.00  0.00    -0.247 A  
HETATM    9  C   UNL     1      -9.781   5.040  70.893  1.00  0.00    -0.256 A  
HETATM   10  C   UNL     1     -10.475   6.169  71.343  1.00  0.00    -0.225 A  
HETATM   11  N   UNL     1     -10.533   7.477  70.930  1.00  0.00    -0.212 NA 
ENDROOT
BRANCH  11  12
HETATM   12  C   UNL     1      -9.681   8.167  69.986  1.00  0.00    -0.172 C  
HETATM   13  C   UNL     1      -8.886   9.332  70.570  1.00  0.00    -0.285 C  
HETATM   14  C   UNL     1      -7.853   9.743  69.520  1.00  0.00    -0.128 C  
HETATM   15  N   UNL     1      -8.447  10.119  68.224  1.00  0.00    -0.114 NA 
HETATM   16  C   UNL     1      -9.340   9.075  67.699  1.00  0.00    -0.136 C  
HETATM   17  C   UNL     1     -10.393   8.614  68.705  1.00  0.00    -0.219 C  
BRANCH  15  18
HETATM   18  C   UNL     1      -9.092  11.440  68.232  1.00  0.00    -0.179 C  
BRANCH  18  19
HETATM   19  C   UNL     1      -9.816  11.756  66.920  1.00  0.00    -0.221 C  
BRANCH  19  20
HETATM   20  C   UNL     1     -11.317  11.963  67.129  1.00  0.00    -0.393 C  
BRANCH  20  21
HETATM   21  C   UNL     1     -11.604  12.701  68.417  1.00  0.00    -0.328 C  
HETATM   22  O   UNL     1     -12.063  12.151  69.416  1.00  0.00    -0.268 OA 
BRANCH  21  23
HETATM   23  C   UNL     1     -11.351  14.167  68.449  1.00  0.00    -0.315 A  
HETATM   24  C   UNL     1     -11.236  14.839  67.224  1.00  0.00    -0.351 A  
HETATM   25  C   UNL     1     -10.970  16.207  67.200  1.00  0.00    -0.144 A  
HETATM   26  C   UNL     1     -10.833  16.900  68.397  1.00  0.00    -0.347 A  
HETATM   27  C   UNL     1     -10.959  16.248  69.619  1.00  0.00    -0.346 A  
HETATM   28  F   UNL     1     -10.576  18.213  68.373  1.00  0.00    -0.358 F  
HETATM   29  C   UNL     1     -11.218  14.876  69.650  1.00  0.00    -0.300 A  
ENDBRANCH  21  23
ENDBRANCH  20  21
ENDBRANCH  19  20
ENDBRANCH  18  19
ENDBRANCH  15  18
ENDBRANCH  11  12
TORSDOF 6
ENDMDL
MODEL      149
REMARK 921   NORMALIZED FREE ENERGY PREDICTED BY IDOCK:   -4.86 KCAL/MOL
REMARK 922        TOTAL FREE ENERGY PREDICTED BY IDOCK:   -7.88 KCAL/MOL
REMARK 923 INTER-LIGAND FREE ENERGY PREDICTED BY IDOCK:   -6.91 KCAL/MOL
REMARK 924 INTRA-LIGAND FREE ENERGY PREDICTED BY IDOCK:   -0.97 KCAL/MOL
REMARK 927      BINDING AFFINITY PREDICTED BY RF-SCORE:    0.00 PKD
ROOT
HETATM    1  O   UNL     1     -10.939  14.884  71.124  1.00  0.00    -0.548 OA 
HETATM    2  C   UNL     1     -10.720  15.454  69.960  1.00  0.00    -0.307 A  
HETATM    3  H   UNL     1     -10.842  13.949  71.254  1.00  0.00     0.000 HD 
HETATM    4  N   UNL     1     -10.852  16.738  69.781  1.00  0.00    -0.265 NA 
HETATM    5  C   UNL     1     -10.588  16.921  68.447  1.00  0.00    -0.365 A  
HETATM    6  C   UNL     1     -10.645  18.100  67.693  1.00  0.00    -0.424 A  
HETATM    7  C   UNL     1     -10.340  18.040  66.328  1.00  0.00    -0.384 A  
HETATM    8  C   UNL     1      -9.958  16.840  65.734  1.00  0.00    -0.242 A  
HETATM    9  C   UNL     1      -9.889  15.652  66.470  1.00  0.00    -0.278 A  
HETATM   10  C   UNL     1     -10.244  15.719  67.822  1.00  0.00    -0.251 A  
HETATM   11  N   UNL     1     -10.405  14.780  68.811  1.00  0.00    -0.242 NA 
ENDROOT
BRANCH  11  12
HETATM   12  C   UNL     1     -10.470  13.340  68.690  1.00  0.00    -0.228 C  
HETATM   13  C   UNL     1      -9.172  12.673  68.245  1.00  0.00    -0.184 C  
HETATM   14  C   UNL     1      -9.347  11.167  68.449  1.00  0.00    -0.185 C  
HETATM   15  N   UNL     1     -10.497  10.603  67.718  1.00  0.00    -0.206 NA 
HETATM   16  C   UNL     1     -11.747  11.320  68.012  1.00  0.00    -0.233 C  
HETATM   17  C   UNL     1     -11.636  12.833  67.834  1.00  0.00    -0.400 C  
BRANCH  15  18
HETATM   18  C   UNL     1     -10.268  10.468  66.273  1.00  0.00    -0.235 C  
BRANCH  18  19
HETATM   19  C   UNL     1      -9.666   9.112  65.891  1.00  0.00    -0.336 C  
BRANCH  19  20
HETATM   20  C   UNL     1     -10.364   7.953  66.602  1.00  0.00    -0.270 C  
BRANCH  20  21
HETATM   21  C   UNL     1      -9.374   7.057  67.312  1.00  0.00    -0.133 C  
HETATM   22  O   UNL     1      -8.655   7.448  68.228  1.00  0.00    -0.124 OA 
BRANCH  21  23
HETATM   23  C   UNL     1      -9.249   5.651  66.843  1.00  0.00    -0.120 A  
HETATM   24  C   UNL     1      -8.919   5.437  65.497  1.00  0.00    -0.149 A  
HETATM   25  C   UNL     1      -8.818   4.138  65.001  1.00  0.00    -0.131 A  
HETATM   26  C   UNL     1      -9.034   3.061  65.851  1.00  0.00    -0.145 A  
HETATM   27  C   UNL     1      -9.347   3.259  67.191  1.00  0.00    -0.212 A  
HETATM   28  F   UNL     1      -8.939   1.814  65.374  1.00  0.00    -0.111 F  
HETATM   29  C   UNL     1      -9.457   4.558  67.694  1.00  0.00    -0.196 A  
ENDBRANCH  21  23
ENDBRANCH  20  21
ENDBRANCH  19  20
ENDBRANCH  18  19
ENDBRANCH  15  18
ENDBRANCH  11  12
TORSDOF 6
ENDMDL
MODEL      150
REMARK 921   NORMALIZED FREE ENERGY PREDICTED BY IDOCK:   -4.85 KCAL/MOL
REMARK 922        TOTAL FREE ENERGY PREDICTED BY IDOCK:   -7.86 KCAL/MOL
REMARK 923 INTER-LIGAND FREE ENERGY PREDICTED BY IDOCK:   -7.35 KCAL/MOL
REMARK 924 INTRA-LIGAND FREE ENERGY PREDICTED BY IDOCK:   -0.51 KCAL/MOL
REMARK 927      BINDING AFFINITY PREDICTED BY RF-SCORE:    0.00 PKD
ROOT
HETATM    1  O   UNL     1     -11.907  10.515  67.923  1.00  0.00    -0.731 OA 
HETATM    2  C   UNL     1     -12.017  11.709  68.459  1.00  0.00    -0.217 A  
HETATM    3  H   UNL     1     -12.003   9.721  68.436  1.00  0.00     0.000 HD 
HETATM    4  N   UNL     1     -11.885  12.799  67.756  1.00  0.00    -0.351 NA 
HETATM    5  C   UNL     1     -12.019  13.810  68.673  1.00  0.00    -0.366 A  
HETATM    6  C   UNL     1     -11.903  15.193  68.482  1.00  0.00    -0.307 A  
HETATM    7  C   UNL     1     -12.071  16.041  69.583  1.00  0.00    -0.114 A  
HETATM    8  C   UNL     1     -12.375  15.525  70.841  1.00  0.00    -0.474 A  
HETATM    9  C   UNL     1     -12.501  14.148  71.053  1.00  0.00    -0.438 A  
HETATM   10  C   UNL     1     -12.282  13.312  69.953  1.00  0.00    -0.246 A  
HETATM   11  N   UNL     1     -12.207  11.950  69.793  1.00  0.00    -0.219 NA 
ENDROOT
BRANCH  11  12
HETATM   12  C   UNL     1     -12.110  10.924  70.808  1.00  0.00    -0.368 C  
HETATM   13  C   UNL     1     -10.932   9.967  70.644  1.00  0.00    -0.392 C  
HETATM   14  C   UNL     1     -10.830   9.154  71.936  1.00  0.00    -0.283 C  
HETATM   15  N   UNL     1     -12.060   8.409  72.261  1.00  0.00    -0.374 NA 
HETATM   16  C   UNL     1     -13.246   9.280  72.283  1.00  0.00    -0.460 C  
HETATM   17  C   UNL     1     -13.401  10.126  71.022  1.00  0.00    -0.333 C  
BRANCH  15  18
HETATM   18  C   UNL     1     -12.268   7.218  71.426  1.00  0.00    -0.349 C  
BRANCH  18  19
HETATM   19  C   UNL     1     -11.279   6.092  71.739  1.00  0.00    -0.338 C  
BRANCH  19  20
HETATM   20  C   UNL     1     -10.157   6.010  70.704  1.00  0.00    -0.246 C  
BRANCH  20  21
HETATM   21  C   UNL     1      -8.798   6.218  71.336  1.00  0.00    -0.139 C  
HETATM   22  O   UNL     1      -8.371   5.517  72.250  1.00  0.00    -0.117 OA 
BRANCH  21  23
HETATM   23  C   UNL     1      -7.971   7.353  70.845  1.00  0.00    -0.097 A  
HETATM   24  C   UNL     1      -7.316   7.201  69.615  1.00  0.00    -0.085 A  
HETATM   25  C   UNL     1      -6.505   8.224  69.125  1.00  0.00    -0.040 A  
HETATM   26  C   UNL     1      -6.362   9.396  69.857  1.00  0.00    -0.044 A  
HETATM   27  C   UNL     1      -7.018   9.565  71.071  1.00  0.00    -0.029 A  
HETATM   28  F   UNL     1      -5.582  10.377  69.387  1.00  0.00    -0.038 F  
HETATM   29  C   UNL     1      -7.826   8.542  71.572  1.00  0.00    -0.158 A  
ENDBRANCH  21  23
ENDBRANCH  20  21
ENDBRANCH  19  20
ENDBRANCH  18  19
ENDBRANCH  15  18
ENDBRANCH  11  12
TORSDOF 6
ENDMDL
MODEL      151
REMARK 921   NORMALIZED FREE ENERGY PREDICTED BY IDOCK:   -4.85 KCAL/MOL
REMARK 922        TOTAL FREE ENERGY PREDICTED BY IDOCK:   -7.86 KCAL/MOL
REMARK 923 INTER-LIGAND FREE ENERGY PREDICTED BY IDOCK:   -5.91 KCAL/MOL
REMARK 924 INTRA-LIGAND FREE ENERGY PREDICTED BY IDOCK:   -1.95 KCAL/MOL
REMARK 927      BINDING AFFINITY PREDICTED BY RF-SCORE:    0.00 PKD
ROOT
HETATM    1  O   UNL     1      -5.178  10.862  66.589  1.00  0.00    -0.054 OA 
HETATM    2  C   UNL     1      -6.460  10.804  66.874  1.00  0.00    -0.090 A  
HETATM    3  H   UNL     1      -4.615  11.545  66.935  1.00  0.00     0.000 HD 
HETATM    4  N   UNL     1      -7.233   9.868  66.400  1.00  0.00    -0.097 NA 
HETATM    5  C   UNL     1      -8.478  10.183  66.881  1.00  0.00    -0.126 A  
HETATM    6  C   UNL     1      -9.703   9.550  66.634  1.00  0.00    -0.270 A  
HETATM    7  C   UNL     1     -10.859  10.064  67.234  1.00  0.00    -0.284 A  
HETATM    8  C   UNL     1     -10.792  11.167  68.083  1.00  0.00    -0.266 A  
HETATM    9  C   UNL     1      -9.579  11.811  68.347  1.00  0.00    -0.191 A  
HETATM   10  C   UNL     1      -8.440  11.314  67.702  1.00  0.00    -0.124 A  
HETATM   11  N   UNL     1      -7.134  11.731  67.622  1.00  0.00    -0.098 NA 
ENDROOT
BRANCH  11  12
HETATM   12  C   UNL     1      -6.562  12.996  68.025  1.00  0.00    -0.116 C  
HETATM   13  C   UNL     1      -6.669  13.304  69.516  1.00  0.00     0.015 C  
HETATM   14  C   UNL     1      -5.776  14.515  69.791  1.00  0.00    -0.104 C  
HETATM   15  N   UNL     1      -6.129  15.702  68.990  1.00  0.00    -0.105 NA 
HETATM   16  C   UNL     1      -6.180  15.404  67.550  1.00  0.00    -0.091 C  
HETATM   17  C   UNL     1      -7.051  14.197  67.209  1.00  0.00     0.057 C  
BRANCH  15  18
HETATM   18  C   UNL     1      -7.346  16.385  69.452  1.00  0.00    -0.150 C  
BRANCH  18  19
HETATM   19  C   UNL     1      -8.104  17.080  68.318  1.00  0.00    -0.228 C  
BRANCH  19  20
HETATM   20  C   UNL     1      -9.547  16.587  68.207  1.00  0.00    -0.223 C  
BRANCH  20  21
HETATM   21  C   UNL     1     -10.040  16.622  66.777  1.00  0.00    -0.291 C  
HETATM   22  O   UNL     1      -9.986  17.630  66.075  1.00  0.00    -0.469 OA 
BRANCH  21  23
HETATM   23  C   UNL     1     -10.651  15.385  66.222  1.00  0.00    -0.311 A  
HETATM   24  C   UNL     1     -11.738  14.827  66.908  1.00  0.00    -0.316 A  
HETATM   25  C   UNL     1     -12.328  13.651  66.445  1.00  0.00    -0.441 A  
HETATM   26  C   UNL     1     -11.839  13.046  65.294  1.00  0.00    -0.376 A  
HETATM   27  C   UNL     1     -10.770  13.598  64.595  1.00  0.00    -0.433 A  
HETATM   28  F   UNL     1     -12.403  11.917  64.851  1.00  0.00    -0.353 F  
HETATM   29  C   UNL     1     -10.170  14.771  65.058  1.00  0.00    -0.379 A  
ENDBRANCH  21  23
ENDBRANCH  20  21
ENDBRANCH  19  20
ENDBRANCH  18  19
ENDBRANCH  15  18
ENDBRANCH  11  12
TORSDOF 6
ENDMDL
MODEL      152
REMARK 921   NORMALIZED FREE ENERGY PREDICTED BY IDOCK:   -4.85 KCAL/MOL
REMARK 922        TOTAL FREE ENERGY PREDICTED BY IDOCK:   -7.85 KCAL/MOL
REMARK 923 INTER-LIGAND FREE ENERGY PREDICTED BY IDOCK:   -6.36 KCAL/MOL
REMARK 924 INTRA-LIGAND FREE ENERGY PREDICTED BY IDOCK:   -1.49 KCAL/MOL
REMARK 927      BINDING AFFINITY PREDICTED BY RF-SCORE:    0.00 PKD
ROOT
HETATM    1  O   UNL     1     -13.295  10.658  69.908  1.00  0.00    -0.338 OA 
HETATM    2  C   UNL     1     -12.068  10.793  69.458  1.00  0.00    -0.272 A  
HETATM    3  H   UNL     1     -13.495  10.145  70.682  1.00  0.00     0.000 HD 
HETATM    4  N   UNL     1     -11.794  11.496  68.395  1.00  0.00    -0.515 NA 
HETATM    5  C   UNL     1     -10.439  11.348  68.234  1.00  0.00    -0.198 A  
HETATM    6  C   UNL     1      -9.616  11.839  67.213  1.00  0.00    -0.182 A  
HETATM    7  C   UNL     1      -8.247  11.548  67.254  1.00  0.00    -0.155 A  
HETATM    8  C   UNL     1      -7.706  10.808  68.303  1.00  0.00    -0.109 A  
HETATM    9  C   UNL     1      -8.509  10.313  69.335  1.00  0.00    -0.170 A  
HETATM   10  C   UNL     1      -9.882  10.572  69.255  1.00  0.00    -0.205 A  
HETATM   11  N   UNL     1     -10.971  10.172  69.990  1.00  0.00    -0.286 NA 
ENDROOT
BRANCH  11  12
HETATM   12  C   UNL     1     -11.054   9.133  70.992  1.00  0.00    -0.305 C  
HETATM   13  C   UNL     1      -9.754   8.859  71.743  1.00  0.00    -0.365 C  
HETATM   14  C   UNL     1     -10.100   7.957  72.929  1.00  0.00    -0.310 C  
HETATM   15  N   UNL     1     -10.749   6.692  72.537  1.00  0.00    -0.220 NA 
HETATM   16  C   UNL     1     -11.927   6.913  71.685  1.00  0.00    -0.339 C  
HETATM   17  C   UNL     1     -11.649   7.815  70.485  1.00  0.00    -0.173 C  
BRANCH  15  18
HETATM   18  C   UNL     1      -9.824   5.711  71.951  1.00  0.00    -0.166 C  
BRANCH  18  19
HETATM   19  C   UNL     1     -10.334   5.128  70.630  1.00  0.00    -0.305 C  
BRANCH  19  20
HETATM   20  C   UNL     1      -9.189   4.712  69.706  1.00  0.00    -0.185 C  
BRANCH  20  21
HETATM   21  C   UNL     1      -8.292   5.883  69.369  1.00  0.00    -0.114 C  
HETATM   22  O   UNL     1      -7.297   6.174  70.028  1.00  0.00    -0.074 OA 
BRANCH  21  23
HETATM   23  C   UNL     1      -8.667   6.734  68.208  1.00  0.00    -0.123 A  
HETATM   24  C   UNL     1      -7.641   7.176  67.361  1.00  0.00    -0.109 A  
HETATM   25  C   UNL     1      -7.938   8.000  66.276  1.00  0.00    -0.105 A  
HETATM   26  C   UNL     1      -9.255   8.366  66.034  1.00  0.00    -0.187 A  
HETATM   27  C   UNL     1     -10.284   7.923  66.857  1.00  0.00    -0.380 A  
HETATM   28  F   UNL     1      -9.539   9.159  64.993  1.00  0.00    -0.287 F  
HETATM   29  C   UNL     1      -9.994   7.103  67.950  1.00  0.00    -0.186 A  
ENDBRANCH  21  23
ENDBRANCH  20  21
ENDBRANCH  19  20
ENDBRANCH  18  19
ENDBRANCH  15  18
ENDBRANCH  11  12
TORSDOF 6
ENDMDL
MODEL      153
REMARK 921   NORMALIZED FREE ENERGY PREDICTED BY IDOCK:   -4.82 KCAL/MOL
REMARK 922        TOTAL FREE ENERGY PREDICTED BY IDOCK:   -7.82 KCAL/MOL
REMARK 923 INTER-LIGAND FREE ENERGY PREDICTED BY IDOCK:   -7.03 KCAL/MOL
REMARK 924 INTRA-LIGAND FREE ENERGY PREDICTED BY IDOCK:   -0.79 KCAL/MOL
REMARK 927      BINDING AFFINITY PREDICTED BY RF-SCORE:    0.00 PKD
ROOT
HETATM    1  O   UNL     1     -10.843  14.052  69.355  1.00  0.00    -0.374 OA 
HETATM    2  C   UNL     1     -11.009  13.716  68.096  1.00  0.00    -0.253 A  
HETATM    3  H   UNL     1     -10.411  13.479  69.977  1.00  0.00     0.000 HD 
HETATM    4  N   UNL     1     -11.602  14.502  67.242  1.00  0.00    -0.371 NA 
HETATM    5  C   UNL     1     -11.617  13.781  66.075  1.00  0.00    -0.346 A  
HETATM    6  C   UNL     1     -12.189  14.116  64.841  1.00  0.00    -0.451 A  
HETATM    7  C   UNL     1     -12.087  13.206  63.783  1.00  0.00    -0.563 A  
HETATM    8  C   UNL     1     -11.406  12.001  63.941  1.00  0.00    -0.503 A  
HETATM    9  C   UNL     1     -10.823  11.649  65.163  1.00  0.00    -0.346 A  
HETATM   10  C   UNL     1     -10.975  12.549  66.224  1.00  0.00    -0.277 A  
HETATM   11  N   UNL     1     -10.654  12.509  67.558  1.00  0.00    -0.218 NA 
ENDROOT
BRANCH  11  12
HETATM   12  C   UNL     1     -10.235  11.377  68.355  1.00  0.00    -0.198 C  
HETATM   13  C   UNL     1      -8.852  10.828  68.015  1.00  0.00    -0.132 C  
HETATM   14  C   UNL     1      -8.472   9.846  69.125  1.00  0.00    -0.148 C  
HETATM   15  N   UNL     1      -9.438   8.746  69.294  1.00  0.00    -0.160 NA 
HETATM   16  C   UNL     1     -10.813   9.238  69.478  1.00  0.00    -0.195 C  
HETATM   17  C   UNL     1     -11.251  10.230  68.404  1.00  0.00    -0.284 C  
BRANCH  15  18
HETATM   18  C   UNL     1      -9.358   7.722  68.243  1.00  0.00    -0.143 C  
BRANCH  18  19
HETATM   19  C   UNL     1      -8.703   6.424  68.725  1.00  0.00    -0.122 C  
BRANCH  19  20
HETATM   20  C   UNL     1      -9.610   5.646  69.680  1.00  0.00    -0.197 C  
BRANCH  20  21
HETATM   21  C   UNL     1      -8.808   4.810  70.653  1.00  0.00    -0.112 C  
HETATM   22  O   UNL     1      -7.579   4.774  70.650  1.00  0.00    -0.056 OA 
BRANCH  21  23
HETATM   23  C   UNL     1      -9.555   3.968  71.625  1.00  0.00    -0.230 A  
HETATM   24  C   UNL     1     -10.136   4.603  72.731  1.00  0.00    -0.220 A  
HETATM   25  C   UNL     1     -10.822   3.854  73.686  1.00  0.00    -0.331 A  
HETATM   26  C   UNL     1     -10.936   2.479  73.526  1.00  0.00    -0.203 A  
HETATM   27  C   UNL     1     -10.377   1.838  72.426  1.00  0.00    -0.231 A  
HETATM   28  F   UNL     1     -11.593   1.760  74.444  1.00  0.00    -0.139 F  
HETATM   29  C   UNL     1      -9.682   2.581  71.469  1.00  0.00    -0.222 A  
ENDBRANCH  21  23
ENDBRANCH  20  21
ENDBRANCH  19  20
ENDBRANCH  18  19
ENDBRANCH  15  18
ENDBRANCH  11  12
TORSDOF 6
ENDMDL
MODEL      154
REMARK 921   NORMALIZED FREE ENERGY PREDICTED BY IDOCK:   -4.82 KCAL/MOL
REMARK 922        TOTAL FREE ENERGY PREDICTED BY IDOCK:   -7.81 KCAL/MOL
REMARK 923 INTER-LIGAND FREE ENERGY PREDICTED BY IDOCK:   -7.14 KCAL/MOL
REMARK 924 INTRA-LIGAND FREE ENERGY PREDICTED BY IDOCK:   -0.67 KCAL/MOL
REMARK 927      BINDING AFFINITY PREDICTED BY RF-SCORE:    0.00 PKD
ROOT
HETATM    1  O   UNL     1     -10.157  12.077  64.926  1.00  0.00    -0.260 OA 
HETATM    2  C   UNL     1     -10.298  13.192  65.607  1.00  0.00    -0.284 A  
HETATM    3  H   UNL     1     -10.163  11.225  65.346  1.00  0.00     0.000 HD 
HETATM    4  N   UNL     1     -10.289  14.361  65.032  1.00  0.00    -0.424 NA 
HETATM    5  C   UNL     1     -10.412  15.249  66.070  1.00  0.00    -0.317 A  
HETATM    6  C   UNL     1     -10.397  16.649  66.038  1.00  0.00    -0.352 A  
HETATM    7  C   UNL     1     -10.529  17.352  67.241  1.00  0.00    -0.321 A  
HETATM    8  C   UNL     1     -10.701  16.676  68.447  1.00  0.00    -0.353 A  
HETATM    9  C   UNL     1     -10.724  15.278  68.502  1.00  0.00    -0.247 A  
HETATM   10  C   UNL     1     -10.542  14.590  67.296  1.00  0.00    -0.280 A  
HETATM   11  N   UNL     1     -10.396  13.264  66.971  1.00  0.00    -0.245 NA 
ENDROOT
BRANCH  11  12
HETATM   12  C   UNL     1     -10.156  12.138  67.846  1.00  0.00    -0.197 C  
HETATM   13  C   UNL     1      -8.764  11.523  67.735  1.00  0.00    -0.142 C  
HETATM   14  C   UNL     1      -8.603  10.558  68.911  1.00  0.00    -0.153 C  
HETATM   15  N   UNL     1      -9.633   9.503  68.951  1.00  0.00    -0.153 NA 
HETATM   16  C   UNL     1     -10.996  10.057  68.910  1.00  0.00    -0.207 C  
HETATM   17  C   UNL     1     -11.219  11.037  67.761  1.00  0.00    -0.374 C  
BRANCH  15  18
HETATM   18  C   UNL     1      -9.438   8.449  67.946  1.00  0.00    -0.146 C  
BRANCH  18  19
HETATM   19  C   UNL     1     -10.721   7.667  67.648  1.00  0.00    -0.246 C  
BRANCH  19  20
HETATM   20  C   UNL     1     -10.679   6.253  68.228  1.00  0.00    -0.356 C  
BRANCH  20  21
HETATM   21  C   UNL     1     -11.134   6.228  69.671  1.00  0.00    -0.412 C  
HETATM   22  O   UNL     1     -12.024   6.956  70.104  1.00  0.00    -0.271 OA 
BRANCH  21  23
HETATM   23  C   UNL     1     -10.437   5.303  70.604  1.00  0.00    -0.306 A  
HETATM   24  C   UNL     1      -9.574   4.345  70.053  1.00  0.00    -0.273 A  
HETATM   25  C   UNL     1      -8.919   3.436  70.883  1.00  0.00    -0.164 A  
HETATM   26  C   UNL     1      -9.117   3.496  72.257  1.00  0.00    -0.102 A  
HETATM   27  C   UNL     1      -9.959   4.451  72.817  1.00  0.00    -0.209 A  
HETATM   28  F   UNL     1      -8.490   2.622  73.053  1.00  0.00    -0.066 F  
HETATM   29  C   UNL     1     -10.624   5.360  71.991  1.00  0.00    -0.284 A  
ENDBRANCH  21  23
ENDBRANCH  20  21
ENDBRANCH  19  20
ENDBRANCH  18  19
ENDBRANCH  15  18
ENDBRANCH  11  12
TORSDOF 6
ENDMDL
MODEL      155
REMARK 921   NORMALIZED FREE ENERGY PREDICTED BY IDOCK:   -4.79 KCAL/MOL
REMARK 922        TOTAL FREE ENERGY PREDICTED BY IDOCK:   -7.78 KCAL/MOL
REMARK 923 INTER-LIGAND FREE ENERGY PREDICTED BY IDOCK:   -7.02 KCAL/MOL
REMARK 924 INTRA-LIGAND FREE ENERGY PREDICTED BY IDOCK:   -0.76 KCAL/MOL
REMARK 927      BINDING AFFINITY PREDICTED BY RF-SCORE:    0.00 PKD
ROOT
HETATM    1  O   UNL     1      -9.200  10.936  67.481  1.00  0.00    -0.147 OA 
HETATM    2  C   UNL     1      -8.729  10.290  66.439  1.00  0.00    -0.135 A  
HETATM    3  H   UNL     1      -9.912  11.561  67.408  1.00  0.00     0.000 HD 
HETATM    4  N   UNL     1      -7.753   9.433  66.539  1.00  0.00    -0.093 NA 
HETATM    5  C   UNL     1      -7.529   9.025  65.248  1.00  0.00    -0.093 A  
HETATM    6  C   UNL     1      -6.549   8.152  64.758  1.00  0.00    -0.059 A  
HETATM    7  C   UNL     1      -6.508   7.890  63.384  1.00  0.00    -0.067 A  
HETATM    8  C   UNL     1      -7.439   8.462  62.520  1.00  0.00    -0.101 A  
HETATM    9  C   UNL     1      -8.429   9.332  62.989  1.00  0.00    -0.212 A  
HETATM   10  C   UNL     1      -8.427   9.621  64.358  1.00  0.00    -0.181 A  
HETATM   11  N   UNL     1      -9.144  10.484  65.149  1.00  0.00    -0.186 NA 
ENDROOT
BRANCH  11  12
HETATM   12  C   UNL     1     -10.013  11.569  64.749  1.00  0.00    -0.260 C  
HETATM   13  C   UNL     1      -9.733  12.903  65.434  1.00  0.00    -0.043 C  
HETATM   14  C   UNL     1     -10.540  13.969  64.690  1.00  0.00    -0.395 C  
HETATM   15  N   UNL     1     -11.989  13.696  64.660  1.00  0.00    -0.389 NA 
HETATM   16  C   UNL     1     -12.290  12.354  64.140  1.00  0.00    -0.467 C  
HETATM   17  C   UNL     1     -11.508  11.243  64.837  1.00  0.00     0.072 C  
BRANCH  15  18
HETATM   18  C   UNL     1     -12.665  13.954  65.940  1.00  0.00    -0.421 C  
BRANCH  18  19
HETATM   19  C   UNL     1     -11.806  14.766  66.913  1.00  0.00    -0.279 C  
BRANCH  19  20
HETATM   20  C   UNL     1     -12.196  14.514  68.370  1.00  0.00    -0.154 C  
BRANCH  20  21
HETATM   21  C   UNL     1     -11.265  13.523  69.033  1.00  0.00    -0.269 C  
HETATM   22  O   UNL     1     -10.056  13.494  68.818  1.00  0.00    -0.202 OA 
BRANCH  21  23
HETATM   23  C   UNL     1     -11.862  12.519  69.954  1.00  0.00    -0.373 A  
HETATM   24  C   UNL     1     -12.718  12.983  70.962  1.00  0.00    -0.347 A  
HETATM   25  C   UNL     1     -13.280  12.085  71.869  1.00  0.00    -0.469 A  
HETATM   26  C   UNL     1     -12.996  10.730  71.757  1.00  0.00    -0.463 A  
HETATM   27  C   UNL     1     -12.160  10.255  70.752  1.00  0.00    -0.451 A  
HETATM   28  F   UNL     1     -13.533   9.868  72.629  1.00  0.00    -0.417 F  
HETATM   29  C   UNL     1     -11.588  11.149  69.845  1.00  0.00    -0.416 A  
ENDBRANCH  21  23
ENDBRANCH  20  21
ENDBRANCH  19  20
ENDBRANCH  18  19
ENDBRANCH  15  18
ENDBRANCH  11  12
TORSDOF 6
ENDMDL
MODEL      156
REMARK 921   NORMALIZED FREE ENERGY PREDICTED BY IDOCK:   -4.78 KCAL/MOL
REMARK 922        TOTAL FREE ENERGY PREDICTED BY IDOCK:   -7.76 KCAL/MOL
REMARK 923 INTER-LIGAND FREE ENERGY PREDICTED BY IDOCK:   -6.76 KCAL/MOL
REMARK 924 INTRA-LIGAND FREE ENERGY PREDICTED BY IDOCK:   -1.00 KCAL/MOL
REMARK 927      BINDING AFFINITY PREDICTED BY RF-SCORE:    0.00 PKD
ROOT
HETATM    1  O   UNL     1     -11.234  11.379  69.159  1.00  0.00    -0.231 OA 
HETATM    2  C   UNL     1     -11.163  11.583  67.863  1.00  0.00    -0.279 A  
HETATM    3  H   UNL     1     -10.531  10.963  69.643  1.00  0.00     0.000 HD 
HETATM    4  N   UNL     1     -12.128  12.153  67.197  1.00  0.00    -0.532 NA 
HETATM    5  C   UNL     1     -11.696  12.135  65.895  1.00  0.00    -0.328 A  
HETATM    6  C   UNL     1     -12.364  12.563  64.740  1.00  0.00    -0.544 A  
HETATM    7  C   UNL     1     -11.720  12.434  63.504  1.00  0.00    -0.592 A  
HETATM    8  C   UNL     1     -10.429  11.916  63.422  1.00  0.00    -0.487 A  
HETATM    9  C   UNL     1      -9.742  11.487  64.563  1.00  0.00    -0.236 A  
HETATM   10  C   UNL     1     -10.418  11.579  65.786  1.00  0.00    -0.259 A  
HETATM   11  N   UNL     1     -10.131  11.170  67.064  1.00  0.00    -0.195 NA 
ENDROOT
BRANCH  11  12
HETATM   12  C   UNL     1      -9.082  10.282  67.517  1.00  0.00    -0.137 C  
HETATM   13  C   UNL     1      -9.415   8.796  67.424  1.00  0.00    -0.183 C  
HETATM   14  C   UNL     1      -8.114   8.027  67.666  1.00  0.00    -0.124 C  
HETATM   15  N   UNL     1      -7.481   8.337  68.961  1.00  0.00    -0.089 NA 
HETATM   16  C   UNL     1      -7.278   9.782  69.149  1.00  0.00    -0.073 C  
HETATM   17  C   UNL     1      -8.540  10.607  68.913  1.00  0.00    -0.158 C  
BRANCH  15  18
HETATM   18  C   UNL     1      -8.159   7.723  70.112  1.00  0.00    -0.117 C  
BRANCH  18  19
HETATM   19  C   UNL     1      -8.102   6.193  70.089  1.00  0.00    -0.116 C  
BRANCH  19  20
HETATM   20  C   UNL     1      -9.469   5.564  70.363  1.00  0.00    -0.209 C  
BRANCH  20  21
HETATM   21  C   UNL     1     -10.343   5.569  69.129  1.00  0.00    -0.248 C  
HETATM   22  O   UNL     1     -11.349   6.266  69.023  1.00  0.00    -0.390 OA 
BRANCH  21  23
HETATM   23  C   UNL     1      -9.977   4.652  68.016  1.00  0.00    -0.129 A  
HETATM   24  C   UNL     1     -10.212   5.087  66.704  1.00  0.00    -0.299 A  
HETATM   25  C   UNL     1      -9.914   4.253  65.627  1.00  0.00    -0.233 A  
HETATM   26  C   UNL     1      -9.371   2.997  65.864  1.00  0.00    -0.077 A  
HETATM   27  C   UNL     1      -9.118   2.558  67.159  1.00  0.00    -0.172 A  
HETATM   28  F   UNL     1      -9.086   2.196  64.830  1.00  0.00    -0.108 F  
HETATM   29  C   UNL     1      -9.422   3.385  68.243  1.00  0.00    -0.210 A  
ENDBRANCH  21  23
ENDBRANCH  20  21
ENDBRANCH  19  20
ENDBRANCH  18  19
ENDBRANCH  15  18
ENDBRANCH  11  12
TORSDOF 6
ENDMDL
MODEL      157
REMARK 921   NORMALIZED FREE ENERGY PREDICTED BY IDOCK:   -4.78 KCAL/MOL
REMARK 922        TOTAL FREE ENERGY PREDICTED BY IDOCK:   -7.76 KCAL/MOL
REMARK 923 INTER-LIGAND FREE ENERGY PREDICTED BY IDOCK:   -7.09 KCAL/MOL
REMARK 924 INTRA-LIGAND FREE ENERGY PREDICTED BY IDOCK:   -0.67 KCAL/MOL
REMARK 927      BINDING AFFINITY PREDICTED BY RF-SCORE:    0.00 PKD
ROOT
HETATM    1  O   UNL     1     -11.479   7.947  72.459  1.00  0.00    -0.348 OA 
HETATM    2  C   UNL     1     -11.078   6.721  72.211  1.00  0.00    -0.251 A  
HETATM    3  H   UNL     1     -11.286   8.669  71.873  1.00  0.00     0.000 HD 
HETATM    4  N   UNL     1     -11.342   5.730  73.015  1.00  0.00    -0.247 NA 
HETATM    5  C   UNL     1     -10.721   4.652  72.437  1.00  0.00    -0.116 A  
HETATM    6  C   UNL     1     -10.624   3.336  72.907  1.00  0.00    -0.209 A  
HETATM    7  C   UNL     1      -9.921   2.398  72.141  1.00  0.00    -0.230 A  
HETATM    8  C   UNL     1      -9.352   2.756  70.921  1.00  0.00    -0.219 A  
HETATM    9  C   UNL     1      -9.441   4.063  70.431  1.00  0.00    -0.252 A  
HETATM   10  C   UNL     1     -10.106   4.999  71.231  1.00  0.00    -0.206 A  
HETATM   11  N   UNL     1     -10.296   6.357  71.148  1.00  0.00    -0.201 NA 
ENDROOT
BRANCH  11  12
HETATM   12  C   UNL     1      -9.648   7.310  70.275  1.00  0.00    -0.165 C  
HETATM   13  C   UNL     1      -8.780   8.345  70.984  1.00  0.00    -0.185 C  
HETATM   14  C   UNL     1      -7.968   9.066  69.907  1.00  0.00    -0.103 C  
HETATM   15  N   UNL     1      -8.801   9.710  68.875  1.00  0.00    -0.131 NA 
HETATM   16  C   UNL     1      -9.758   8.771  68.269  1.00  0.00    -0.158 C  
HETATM   17  C   UNL     1     -10.595   8.011  69.294  1.00  0.00    -0.193 C  
BRANCH  15  18
HETATM   18  C   UNL     1      -9.457  10.944  69.330  1.00  0.00    -0.026 C  
BRANCH  18  19
HETATM   19  C   UNL     1      -9.648  11.966  68.205  1.00  0.00    -0.195 C  
BRANCH  19  20
HETATM   20  C   UNL     1     -11.125  12.191  67.880  1.00  0.00    -0.295 C  
BRANCH  20  21
HETATM   21  C   UNL     1     -12.007  11.919  69.078  1.00  0.00    -0.262 C  
HETATM   22  O   UNL     1     -12.570  10.843  69.265  1.00  0.00    -0.356 OA 
BRANCH  21  23
HETATM   23  C   UNL     1     -12.225  13.028  70.046  1.00  0.00    -0.306 A  
HETATM   24  C   UNL     1     -12.878  12.728  71.250  1.00  0.00    -0.355 A  
HETATM   25  C   UNL     1     -13.132  13.738  72.177  1.00  0.00    -0.497 A  
HETATM   26  C   UNL     1     -12.722  15.037  71.905  1.00  0.00    -0.337 A  
HETATM   27  C   UNL     1     -12.060  15.345  70.722  1.00  0.00    -0.413 A  
HETATM   28  F   UNL     1     -12.968  16.006  72.795  1.00  0.00    -0.453 F  
HETATM   29  C   UNL     1     -11.809  14.340  69.785  1.00  0.00    -0.380 A  
ENDBRANCH  21  23
ENDBRANCH  20  21
ENDBRANCH  19  20
ENDBRANCH  18  19
ENDBRANCH  15  18
ENDBRANCH  11  12
TORSDOF 6
ENDMDL
MODEL      158
REMARK 921   NORMALIZED FREE ENERGY PREDICTED BY IDOCK:   -4.77 KCAL/MOL
REMARK 922        TOTAL FREE ENERGY PREDICTED BY IDOCK:   -7.76 KCAL/MOL
REMARK 923 INTER-LIGAND FREE ENERGY PREDICTED BY IDOCK:   -6.50 KCAL/MOL
REMARK 924 INTRA-LIGAND FREE ENERGY PREDICTED BY IDOCK:   -1.25 KCAL/MOL
REMARK 927      BINDING AFFINITY PREDICTED BY RF-SCORE:    0.00 PKD
ROOT
HETATM    1  O   UNL     1     -10.720  15.072  71.011  1.00  0.00    -0.551 OA 
HETATM    2  C   UNL     1     -10.591  15.586  69.809  1.00  0.00    -0.295 A  
HETATM    3  H   UNL     1     -10.649  14.138  71.171  1.00  0.00     0.000 HD 
HETATM    4  N   UNL     1     -10.688  16.867  69.590  1.00  0.00    -0.261 NA 
HETATM    5  C   UNL     1     -10.546  16.988  68.231  1.00  0.00    -0.372 A  
HETATM    6  C   UNL     1     -10.628  18.139  67.436  1.00  0.00    -0.406 A  
HETATM    7  C   UNL     1     -10.458  18.014  66.052  1.00  0.00    -0.317 A  
HETATM    8  C   UNL     1     -10.185  16.776  65.475  1.00  0.00    -0.188 A  
HETATM    9  C   UNL     1     -10.093  15.615  66.251  1.00  0.00    -0.316 A  
HETATM   10  C   UNL     1     -10.313  15.749  67.626  1.00  0.00    -0.281 A  
HETATM   11  N   UNL     1     -10.416  14.856  68.664  1.00  0.00    -0.235 NA 
ENDROOT
BRANCH  11  12
HETATM   12  C   UNL     1     -10.552  13.417  68.611  1.00  0.00    -0.241 C  
HETATM   13  C   UNL     1      -9.250  12.658  68.372  1.00  0.00    -0.135 C  
HETATM   14  C   UNL     1      -9.539  11.178  68.630  1.00  0.00    -0.196 C  
HETATM   15  N   UNL     1     -10.618  10.633  67.786  1.00  0.00    -0.217 NA 
HETATM   16  C   UNL     1     -11.850  11.431  67.879  1.00  0.00    -0.165 C  
HETATM   17  C   UNL     1     -11.628  12.922  67.639  1.00  0.00    -0.406 C  
BRANCH  15  18
HETATM   18  C   UNL     1     -10.217  10.401  66.391  1.00  0.00    -0.230 C  
BRANCH  18  19
HETATM   19  C   UNL     1      -9.903   8.931  66.100  1.00  0.00    -0.326 C  
BRANCH  19  20
HETATM   20  C   UNL     1     -10.519   7.995  67.141  1.00  0.00    -0.408 C  
BRANCH  20  21
HETATM   21  C   UNL     1      -9.465   7.162  67.835  1.00  0.00    -0.130 C  
HETATM   22  O   UNL     1      -9.202   6.007  67.507  1.00  0.00    -0.114 OA 
BRANCH  21  23
HETATM   23  C   UNL     1      -8.750   7.768  68.990  1.00  0.00    -0.135 A  
HETATM   24  C   UNL     1      -7.440   8.223  68.785  1.00  0.00    -0.096 A  
HETATM   25  C   UNL     1      -6.717   8.772  69.843  1.00  0.00    -0.045 A  
HETATM   26  C   UNL     1      -7.308   8.876  71.096  1.00  0.00    -0.105 A  
HETATM   27  C   UNL     1      -8.612   8.442  71.310  1.00  0.00    -0.198 A  
HETATM   28  F   UNL     1      -6.613   9.401  72.112  1.00  0.00     0.023 F  
HETATM   29  C   UNL     1      -9.339   7.884  70.256  1.00  0.00    -0.159 A  
ENDBRANCH  21  23
ENDBRANCH  20  21
ENDBRANCH  19  20
ENDBRANCH  18  19
ENDBRANCH  15  18
ENDBRANCH  11  12
TORSDOF 6
ENDMDL
MODEL      159
REMARK 921   NORMALIZED FREE ENERGY PREDICTED BY IDOCK:   -4.77 KCAL/MOL
REMARK 922        TOTAL FREE ENERGY PREDICTED BY IDOCK:   -7.75 KCAL/MOL
REMARK 923 INTER-LIGAND FREE ENERGY PREDICTED BY IDOCK:   -6.67 KCAL/MOL
REMARK 924 INTRA-LIGAND FREE ENERGY PREDICTED BY IDOCK:   -1.08 KCAL/MOL
REMARK 927      BINDING AFFINITY PREDICTED BY RF-SCORE:    0.00 PKD
ROOT
HETATM    1  O   UNL     1      -9.346   9.555  64.140  1.00  0.00    -0.420 OA 
HETATM    2  C   UNL     1     -10.059  10.531  64.656  1.00  0.00    -0.338 A  
HETATM    3  H   UNL     1      -8.641   9.136  64.621  1.00  0.00     0.000 HD 
HETATM    4  N   UNL     1     -11.026  11.105  63.998  1.00  0.00    -0.307 NA 
HETATM    5  C   UNL     1     -11.476  12.084  64.847  1.00  0.00    -0.294 A  
HETATM    6  C   UNL     1     -12.467  13.050  64.629  1.00  0.00    -0.460 A  
HETATM    7  C   UNL     1     -12.751  13.964  65.650  1.00  0.00    -0.534 A  
HETATM    8  C   UNL     1     -12.084  13.901  66.871  1.00  0.00    -0.467 A  
HETATM    9  C   UNL     1     -11.095  12.941  67.112  1.00  0.00    -0.309 A  
HETATM   10  C   UNL     1     -10.789  12.065  66.064  1.00  0.00    -0.289 A  
HETATM   11  N   UNL     1      -9.834  11.095  65.883  1.00  0.00    -0.221 NA 
ENDROOT
BRANCH  11  12
HETATM   12  C   UNL     1      -8.659  10.822  66.680  1.00  0.00    -0.143 C  
HETATM   13  C   UNL     1      -8.943  10.322  68.094  1.00  0.00    -0.130 C  
HETATM   14  C   UNL     1      -7.617   9.823  68.670  1.00  0.00    -0.079 C  
HETATM   15  N   UNL     1      -6.559  10.851  68.687  1.00  0.00    -0.055 NA 
HETATM   16  C   UNL     1      -6.359  11.462  67.364  1.00  0.00    -0.082 C  
HETATM   17  C   UNL     1      -7.649  11.974  66.730  1.00  0.00     0.008 C  
BRANCH  15  18
HETATM   18  C   UNL     1      -6.736  11.862  69.739  1.00  0.00     0.047 C  
BRANCH  18  19
HETATM   19  C   UNL     1      -5.962  13.154  69.457  1.00  0.00    -0.108 C  
BRANCH  19  20
HETATM   20  C   UNL     1      -6.527  14.342  70.236  1.00  0.00    -0.130 C  
BRANCH  20  21
HETATM   21  C   UNL     1      -7.565  15.093  69.432  1.00  0.00    -0.210 C  
HETATM   22  O   UNL     1      -8.549  14.549  68.935  1.00  0.00    -0.163 OA 
BRANCH  21  23
HETATM   23  C   UNL     1      -7.351  16.547  69.207  1.00  0.00    -0.201 A  
HETATM   24  C   UNL     1      -6.120  17.096  69.593  1.00  0.00    -0.241 A  
HETATM   25  C   UNL     1      -5.881  18.460  69.430  1.00  0.00    -0.236 A  
HETATM   26  C   UNL     1      -6.865  19.266  68.872  1.00  0.00    -0.331 A  
HETATM   27  C   UNL     1      -8.085  18.733  68.471  1.00  0.00    -0.379 A  
HETATM   28  F   UNL     1      -6.636  20.575  68.718  1.00  0.00    -0.334 F  
HETATM   29  C   UNL     1      -8.334  17.368  68.638  1.00  0.00    -0.264 A  
ENDBRANCH  21  23
ENDBRANCH  20  21
ENDBRANCH  19  20
ENDBRANCH  18  19
ENDBRANCH  15  18
ENDBRANCH  11  12
TORSDOF 6
ENDMDL
MODEL      160
REMARK 921   NORMALIZED FREE ENERGY PREDICTED BY IDOCK:   -4.77 KCAL/MOL
REMARK 922        TOTAL FREE ENERGY PREDICTED BY IDOCK:   -7.75 KCAL/MOL
REMARK 923 INTER-LIGAND FREE ENERGY PREDICTED BY IDOCK:   -8.19 KCAL/MOL
REMARK 924 INTRA-LIGAND FREE ENERGY PREDICTED BY IDOCK:    0.44 KCAL/MOL
REMARK 927      BINDING AFFINITY PREDICTED BY RF-SCORE:    0.00 PKD
ROOT
HETATM    1  O   UNL     1     -10.985   8.818  68.073  1.00  0.00    -0.478 OA 
HETATM    2  C   UNL     1     -10.534   7.611  67.819  1.00  0.00    -0.216 A  
HETATM    3  H   UNL     1     -11.035   9.162  68.957  1.00  0.00     0.000 HD 
HETATM    4  N   UNL     1     -10.465   7.138  66.606  1.00  0.00    -0.199 NA 
HETATM    5  C   UNL     1      -9.999   5.858  66.769  1.00  0.00    -0.175 A  
HETATM    6  C   UNL     1      -9.792   4.866  65.802  1.00  0.00    -0.186 A  
HETATM    7  C   UNL     1      -9.314   3.616  66.211  1.00  0.00    -0.187 A  
HETATM    8  C   UNL     1      -9.022   3.367  67.550  1.00  0.00    -0.173 A  
HETATM    9  C   UNL     1      -9.216   4.344  68.532  1.00  0.00    -0.186 A  
HETATM   10  C   UNL     1      -9.740   5.573  68.113  1.00  0.00    -0.132 A  
HETATM   11  N   UNL     1     -10.160   6.702  68.772  1.00  0.00    -0.151 NA 
ENDROOT
BRANCH  11  12
HETATM   12  C   UNL     1     -10.404   6.888  70.185  1.00  0.00    -0.199 C  
HETATM   13  C   UNL     1     -11.714   6.294  70.695  1.00  0.00    -0.285 C  
HETATM   14  C   UNL     1     -11.661   6.333  72.224  1.00  0.00    -0.298 C  
HETATM   15  N   UNL     1     -11.459   7.687  72.771  1.00  0.00    -0.354 NA 
HETATM   16  C   UNL     1     -10.282   8.351  72.189  1.00  0.00    -0.320 C  
HETATM   17  C   UNL     1     -10.270   8.338  70.662  1.00  0.00    -0.214 C  
BRANCH  15  18
HETATM   18  C   UNL     1     -12.657   8.536  72.704  1.00  0.00    -0.195 C  
BRANCH  18  19
HETATM   19  C   UNL     1     -12.822   9.225  71.346  1.00  0.00    -0.398 C  
BRANCH  19  20
HETATM   20  C   UNL     1     -13.395  10.636  71.485  1.00  0.00    -0.359 C  
BRANCH  20  21
HETATM   21  C   UNL     1     -12.635  11.633  70.639  1.00  0.00    -0.230 C  
HETATM   22  O   UNL     1     -12.107  11.337  69.569  1.00  0.00    -0.321 OA 
BRANCH  21  23
HETATM   23  C   UNL     1     -12.495  13.020  71.157  1.00  0.00    -0.364 A  
HETATM   24  C   UNL     1     -11.602  13.878  70.500  1.00  0.00    -0.132 A  
HETATM   25  C   UNL     1     -11.413  15.179  70.964  1.00  0.00    -0.372 A  
HETATM   26  C   UNL     1     -12.125  15.621  72.072  1.00  0.00    -0.443 A  
HETATM   27  C   UNL     1     -13.025  14.786  72.724  1.00  0.00    -0.553 A  
HETATM   28  F   UNL     1     -11.942  16.869  72.518  1.00  0.00    -0.499 F  
HETATM   29  C   UNL     1     -13.214  13.479  72.269  1.00  0.00    -0.571 A  
ENDBRANCH  21  23
ENDBRANCH  20  21
ENDBRANCH  19  20
ENDBRANCH  18  19
ENDBRANCH  15  18
ENDBRANCH  11  12
TORSDOF 6
ENDMDL
MODEL      161
REMARK 921   NORMALIZED FREE ENERGY PREDICTED BY IDOCK:   -4.76 KCAL/MOL
REMARK 922        TOTAL FREE ENERGY PREDICTED BY IDOCK:   -7.74 KCAL/MOL
REMARK 923 INTER-LIGAND FREE ENERGY PREDICTED BY IDOCK:   -6.71 KCAL/MOL
REMARK 924 INTRA-LIGAND FREE ENERGY PREDICTED BY IDOCK:   -1.03 KCAL/MOL
REMARK 927      BINDING AFFINITY PREDICTED BY RF-SCORE:    0.00 PKD
ROOT
HETATM    1  O   UNL     1     -11.963  11.897  67.623  1.00  0.00    -0.575 OA 
HETATM    2  C   UNL     1     -11.228  11.594  66.577  1.00  0.00    -0.294 A  
HETATM    3  H   UNL     1     -11.745  11.596  68.497  1.00  0.00     0.000 HD 
HETATM    4  N   UNL     1     -11.527  12.007  65.378  1.00  0.00    -0.331 NA 
HETATM    5  C   UNL     1     -10.563  11.447  64.578  1.00  0.00    -0.328 A  
HETATM    6  C   UNL     1     -10.431  11.506  63.185  1.00  0.00    -0.350 A  
HETATM    7  C   UNL     1      -9.359  10.839  62.582  1.00  0.00    -0.340 A  
HETATM    8  C   UNL     1      -8.422  10.152  63.350  1.00  0.00    -0.185 A  
HETATM    9  C   UNL     1      -8.531  10.085  64.744  1.00  0.00    -0.180 A  
HETATM   10  C   UNL     1      -9.636  10.716  65.327  1.00  0.00    -0.241 A  
HETATM   11  N   UNL     1     -10.132  10.774  66.606  1.00  0.00    -0.210 NA 
ENDROOT
BRANCH  11  12
HETATM   12  C   UNL     1      -9.765   9.979  67.757  1.00  0.00    -0.150 C  
HETATM   13  C   UNL     1     -10.854   9.038  68.262  1.00  0.00    -0.072 C  
HETATM   14  C   UNL     1     -10.200   8.096  69.275  1.00  0.00    -0.214 C  
HETATM   15  N   UNL     1      -9.558   8.797  70.402  1.00  0.00    -0.173 NA 
HETATM   16  C   UNL     1      -8.605   9.821  69.948  1.00  0.00    -0.218 C  
HETATM   17  C   UNL     1      -9.195  10.790  68.926  1.00  0.00    -0.180 C  
BRANCH  15  18
HETATM   18  C   UNL     1     -10.512   9.332  71.384  1.00  0.00    -0.338 C  
BRANCH  18  19
HETATM   19  C   UNL     1     -11.396   8.247  72.006  1.00  0.00    -0.390 C  
BRANCH  19  20
HETATM   20  C   UNL     1     -10.663   7.466  73.098  1.00  0.00    -0.436 C  
BRANCH  20  21
HETATM   21  C   UNL     1     -10.679   5.979  72.825  1.00  0.00    -0.237 C  
HETATM   22  O   UNL     1     -11.384   5.191  73.451  1.00  0.00    -0.313 OA 
BRANCH  21  23
HETATM   23  C   UNL     1      -9.764   5.455  71.774  1.00  0.00    -0.206 A  
HETATM   24  C   UNL     1     -10.283   4.534  70.854  1.00  0.00    -0.170 A  
HETATM   25  C   UNL     1      -9.459   3.992  69.868  1.00  0.00    -0.265 A  
HETATM   26  C   UNL     1      -8.128   4.382  69.797  1.00  0.00    -0.060 A  
HETATM   27  C   UNL     1      -7.604   5.306  70.695  1.00  0.00    -0.076 A  
HETATM   28  F   UNL     1      -7.337   3.860  68.853  1.00  0.00    -0.052 F  
HETATM   29  C   UNL     1      -8.422   5.848  71.689  1.00  0.00    -0.128 A  
ENDBRANCH  21  23
ENDBRANCH  20  21
ENDBRANCH  19  20
ENDBRANCH  18  19
ENDBRANCH  15  18
ENDBRANCH  11  12
TORSDOF 6
ENDMDL
MODEL      162
REMARK 921   NORMALIZED FREE ENERGY PREDICTED BY IDOCK:   -4.75 KCAL/MOL
REMARK 922        TOTAL FREE ENERGY PREDICTED BY IDOCK:   -7.73 KCAL/MOL
REMARK 923 INTER-LIGAND FREE ENERGY PREDICTED BY IDOCK:   -7.13 KCAL/MOL
REMARK 924 INTRA-LIGAND FREE ENERGY PREDICTED BY IDOCK:   -0.60 KCAL/MOL
REMARK 927      BINDING AFFINITY PREDICTED BY RF-SCORE:    0.00 PKD
ROOT
HETATM    1  O   UNL     1     -11.872   6.976  72.708  1.00  0.00    -0.512 OA 
HETATM    2  C   UNL     1     -11.296   5.813  72.508  1.00  0.00    -0.307 A  
HETATM    3  H   UNL     1     -11.860   7.665  72.054  1.00  0.00     0.000 HD 
HETATM    4  N   UNL     1     -11.312   4.868  73.405  1.00  0.00    -0.338 NA 
HETATM    5  C   UNL     1     -10.575   3.856  72.843  1.00  0.00    -0.149 A  
HETATM    6  C   UNL     1     -10.214   2.620  73.394  1.00  0.00    -0.203 A  
HETATM    7  C   UNL     1      -9.439   1.743  72.627  1.00  0.00    -0.123 A  
HETATM    8  C   UNL     1      -9.055   2.077  71.330  1.00  0.00    -0.156 A  
HETATM    9  C   UNL     1      -9.410   3.303  70.759  1.00  0.00    -0.223 A  
HETATM   10  C   UNL     1     -10.144   4.189  71.556  1.00  0.00    -0.114 A  
HETATM   11  N   UNL     1     -10.567   5.485  71.396  1.00  0.00    -0.250 NA 
ENDROOT
BRANCH  11  12
HETATM   12  C   UNL     1     -10.174   6.449  70.391  1.00  0.00    -0.192 C  
HETATM   13  C   UNL     1      -9.586   7.745  70.939  1.00  0.00    -0.173 C  
HETATM   14  C   UNL     1      -8.977   8.499  69.755  1.00  0.00    -0.145 C  
HETATM   15  N   UNL     1      -9.944   8.784  68.679  1.00  0.00    -0.177 NA 
HETATM   16  C   UNL     1     -10.642   7.571  68.225  1.00  0.00    -0.136 C  
HETATM   17  C   UNL     1     -11.266   6.767  69.363  1.00  0.00    -0.288 C  
BRANCH  15  18
HETATM   18  C   UNL     1     -10.882   9.869  69.000  1.00  0.00    -0.215 C  
BRANCH  18  19
HETATM   19  C   UNL     1     -11.370  10.620  67.758  1.00  0.00    -0.320 C  
BRANCH  19  20
HETATM   20  C   UNL     1     -10.254  10.814  66.730  1.00  0.00    -0.279 C  
BRANCH  20  21
HETATM   21  C   UNL     1      -9.450  12.065  67.010  1.00  0.00    -0.198 C  
HETATM   22  O   UNL     1      -8.478  12.082  67.760  1.00  0.00    -0.141 OA 
BRANCH  21  23
HETATM   23  C   UNL     1      -9.894  13.333  66.370  1.00  0.00    -0.281 A  
HETATM   24  C   UNL     1      -9.224  14.513  66.721  1.00  0.00    -0.286 A  
HETATM   25  C   UNL     1      -9.622  15.731  66.172  1.00  0.00    -0.364 A  
HETATM   26  C   UNL     1     -10.674  15.764  65.266  1.00  0.00    -0.428 A  
HETATM   27  C   UNL     1     -11.337  14.599  64.897  1.00  0.00    -0.403 A  
HETATM   28  F   UNL     1     -11.056  16.934  64.740  1.00  0.00    -0.434 F  
HETATM   29  C   UNL     1     -10.950  13.375  65.450  1.00  0.00    -0.297 A  
ENDBRANCH  21  23
ENDBRANCH  20  21
ENDBRANCH  19  20
ENDBRANCH  18  19
ENDBRANCH  15  18
ENDBRANCH  11  12
TORSDOF 6
ENDMDL
MODEL      163
REMARK 921   NORMALIZED FREE ENERGY PREDICTED BY IDOCK:   -4.75 KCAL/MOL
REMARK 922        TOTAL FREE ENERGY PREDICTED BY IDOCK:   -7.72 KCAL/MOL
REMARK 923 INTER-LIGAND FREE ENERGY PREDICTED BY IDOCK:   -5.97 KCAL/MOL
REMARK 924 INTRA-LIGAND FREE ENERGY PREDICTED BY IDOCK:   -1.75 KCAL/MOL
REMARK 927      BINDING AFFINITY PREDICTED BY RF-SCORE:    0.00 PKD
ROOT
HETATM    1  O   UNL     1     -12.400  10.862  68.349  1.00  0.00    -0.803 OA 
HETATM    2  C   UNL     1     -11.153  10.481  68.193  1.00  0.00    -0.287 A  
HETATM    3  H   UNL     1     -12.919  10.596  69.100  1.00  0.00     0.000 HD 
HETATM    4  N   UNL     1     -10.441  10.846  67.163  1.00  0.00    -0.224 NA 
HETATM    5  C   UNL     1      -9.238  10.212  67.344  1.00  0.00    -0.141 A  
HETATM    6  C   UNL     1      -8.116  10.199  66.505  1.00  0.00    -0.121 A  
HETATM    7  C   UNL     1      -6.991   9.463  66.898  1.00  0.00    -0.081 A  
HETATM    8  C   UNL     1      -6.974   8.780  68.112  1.00  0.00    -0.074 A  
HETATM    9  C   UNL     1      -8.081   8.785  68.967  1.00  0.00    -0.116 A  
HETATM   10  C   UNL     1      -9.214   9.485  68.537  1.00  0.00    -0.131 A  
HETATM   11  N   UNL     1     -10.489   9.624  69.028  1.00  0.00    -0.207 NA 
ENDROOT
BRANCH  11  12
HETATM   12  C   UNL     1     -11.142   8.872  70.077  1.00  0.00    -0.170 C  
HETATM   13  C   UNL     1     -10.660   9.189  71.490  1.00  0.00    -0.428 C  
HETATM   14  C   UNL     1     -11.641   8.527  72.460  1.00  0.00    -0.306 C  
HETATM   15  N   UNL     1     -11.765   7.070  72.269  1.00  0.00    -0.273 NA 
HETATM   16  C   UNL     1     -12.086   6.719  70.877  1.00  0.00    -0.367 C  
HETATM   17  C   UNL     1     -11.146   7.356  69.857  1.00  0.00    -0.208 C  
BRANCH  15  18
HETATM   18  C   UNL     1     -10.615   6.308  72.777  1.00  0.00    -0.228 C  
BRANCH  18  19
HETATM   19  C   UNL     1     -10.641   4.838  72.349  1.00  0.00    -0.246 C  
BRANCH  19  20
HETATM   20  C   UNL     1      -9.284   4.372  71.819  1.00  0.00    -0.182 C  
BRANCH  20  21
HETATM   21  C   UNL     1      -9.435   3.260  70.803  1.00  0.00    -0.166 C  
HETATM   22  O   UNL     1      -9.718   2.106  71.113  1.00  0.00    -0.146 OA 
BRANCH  21  23
HETATM   23  C   UNL     1      -9.187   3.588  69.374  1.00  0.00    -0.227 A  
HETATM   24  C   UNL     1      -8.712   4.871  69.068  1.00  0.00    -0.105 A  
HETATM   25  C   UNL     1      -8.492   5.237  67.741  1.00  0.00    -0.105 A  
HETATM   26  C   UNL     1      -8.732   4.317  66.728  1.00  0.00    -0.113 A  
HETATM   27  C   UNL     1      -9.188   3.036  67.018  1.00  0.00    -0.190 A  
HETATM   28  F   UNL     1      -8.522   4.669  65.454  1.00  0.00    -0.114 F  
HETATM   29  C   UNL     1      -9.419   2.665  68.345  1.00  0.00    -0.212 A  
ENDBRANCH  21  23
ENDBRANCH  20  21
ENDBRANCH  19  20
ENDBRANCH  18  19
ENDBRANCH  15  18
ENDBRANCH  11  12
TORSDOF 6
ENDMDL
MODEL      164
REMARK 921   NORMALIZED FREE ENERGY PREDICTED BY IDOCK:   -4.74 KCAL/MOL
REMARK 922        TOTAL FREE ENERGY PREDICTED BY IDOCK:   -7.71 KCAL/MOL
REMARK 923 INTER-LIGAND FREE ENERGY PREDICTED BY IDOCK:   -7.40 KCAL/MOL
REMARK 924 INTRA-LIGAND FREE ENERGY PREDICTED BY IDOCK:   -0.31 KCAL/MOL
REMARK 927      BINDING AFFINITY PREDICTED BY RF-SCORE:    0.00 PKD
ROOT
HETATM    1  O   UNL     1     -12.660  13.530  71.800  1.00  0.00    -0.272 OA 
HETATM    2  C   UNL     1     -12.322  13.182  70.579  1.00  0.00    -0.304 A  
HETATM    3  H   UNL     1     -12.602  12.926  72.531  1.00  0.00     0.000 HD 
HETATM    4  N   UNL     1     -12.401  14.010  69.576  1.00  0.00    -0.299 NA 
HETATM    5  C   UNL     1     -12.014  13.264  68.491  1.00  0.00    -0.304 A  
HETATM    6  C   UNL     1     -11.970  13.632  67.140  1.00  0.00    -0.434 A  
HETATM    7  C   UNL     1     -11.546  12.686  66.199  1.00  0.00    -0.445 A  
HETATM    8  C   UNL     1     -11.148  11.412  66.597  1.00  0.00    -0.333 A  
HETATM    9  C   UNL     1     -11.178  11.026  67.941  1.00  0.00    -0.375 A  
HETATM   10  C   UNL     1     -11.650  11.967  68.864  1.00  0.00    -0.311 A  
HETATM   11  N   UNL     1     -11.926  11.925  70.208  1.00  0.00    -0.352 NA 
ENDROOT
BRANCH  11  12
HETATM   12  C   UNL     1     -12.022  10.773  71.078  1.00  0.00    -0.304 C  
HETATM   13  C   UNL     1     -10.914   9.739  70.899  1.00  0.00    -0.411 C  
HETATM   14  C   UNL     1     -11.017   8.762  72.071  1.00  0.00    -0.368 C  
HETATM   15  N   UNL     1     -12.331   8.100  72.172  1.00  0.00    -0.333 NA 
HETATM   16  C   UNL     1     -13.438   9.068  72.198  1.00  0.00    -0.459 C  
HETATM   17  C   UNL     1     -13.388  10.080  71.056  1.00  0.00    -0.334 C  
BRANCH  15  18
HETATM   18  C   UNL     1     -12.543   7.050  71.166  1.00  0.00    -0.339 C  
BRANCH  18  19
HETATM   19  C   UNL     1     -11.255   6.661  70.433  1.00  0.00    -0.398 C  
BRANCH  19  20
HETATM   20  C   UNL     1     -11.273   7.102  68.969  1.00  0.00     0.021 C  
BRANCH  20  21
HETATM   21  C   UNL     1     -10.045   6.623  68.228  1.00  0.00    -0.159 C  
HETATM   22  O   UNL     1      -9.666   7.119  67.169  1.00  0.00    -0.146 OA 
BRANCH  21  23
HETATM   23  C   UNL     1      -9.295   5.472  68.798  1.00  0.00    -0.152 A  
HETATM   24  C   UNL     1      -8.188   5.750  69.612  1.00  0.00    -0.108 A  
HETATM   25  C   UNL     1      -7.434   4.706  70.147  1.00  0.00    -0.054 A  
HETATM   26  C   UNL     1      -7.796   3.392  69.878  1.00  0.00    -0.046 A  
HETATM   27  C   UNL     1      -8.900   3.102  69.085  1.00  0.00    -0.154 A  
HETATM   28  F   UNL     1      -7.071   2.390  70.390  1.00  0.00    -0.032 F  
HETATM   29  C   UNL     1      -9.655   4.143  68.539  1.00  0.00    -0.192 A  
ENDBRANCH  21  23
ENDBRANCH  20  21
ENDBRANCH  19  20
ENDBRANCH  18  19
ENDBRANCH  15  18
ENDBRANCH  11  12
TORSDOF 6
ENDMDL
MODEL      165
REMARK 921   NORMALIZED FREE ENERGY PREDICTED BY IDOCK:   -4.73 KCAL/MOL
REMARK 922        TOTAL FREE ENERGY PREDICTED BY IDOCK:   -7.69 KCAL/MOL
REMARK 923 INTER-LIGAND FREE ENERGY PREDICTED BY IDOCK:   -6.98 KCAL/MOL
REMARK 924 INTRA-LIGAND FREE ENERGY PREDICTED BY IDOCK:   -0.71 KCAL/MOL
REMARK 927      BINDING AFFINITY PREDICTED BY RF-SCORE:    0.00 PKD
ROOT
HETATM    1  O   UNL     1     -10.750  11.685  69.446  1.00  0.00    -0.407 OA 
HETATM    2  C   UNL     1     -10.920  11.898  68.160  1.00  0.00    -0.227 A  
HETATM    3  H   UNL     1     -10.159  11.017  69.773  1.00  0.00     0.000 HD 
HETATM    4  N   UNL     1     -11.730  12.814  67.711  1.00  0.00    -0.351 NA 
HETATM    5  C   UNL     1     -11.662  12.685  66.347  1.00  0.00    -0.405 A  
HETATM    6  C   UNL     1     -12.376  13.378  65.360  1.00  0.00    -0.522 A  
HETATM    7  C   UNL     1     -12.144  13.063  64.016  1.00  0.00    -0.519 A  
HETATM    8  C   UNL     1     -11.201  12.101  63.661  1.00  0.00    -0.540 A  
HETATM    9  C   UNL     1     -10.473  11.402  64.629  1.00  0.00    -0.373 A  
HETATM   10  C   UNL     1     -10.752  11.694  65.970  1.00  0.00    -0.280 A  
HETATM   11  N   UNL     1     -10.341  11.158  67.165  1.00  0.00    -0.204 NA 
ENDROOT
BRANCH  11  12
HETATM   12  C   UNL     1      -9.626   9.923  67.406  1.00  0.00    -0.155 C  
HETATM   13  C   UNL     1     -10.508   8.729  67.759  1.00  0.00    -0.292 C  
HETATM   14  C   UNL     1      -9.623   7.482  67.694  1.00  0.00    -0.143 C  
HETATM   15  N   UNL     1      -8.452   7.544  68.588  1.00  0.00    -0.129 NA 
HETATM   16  C   UNL     1      -7.656   8.763  68.376  1.00  0.00    -0.095 C  
HETATM   17  C   UNL     1      -8.484  10.045  68.420  1.00  0.00    -0.112 C  
BRANCH  15  18
HETATM   18  C   UNL     1      -8.781   7.343  70.007  1.00  0.00    -0.140 C  
BRANCH  18  19
HETATM   19  C   UNL     1      -7.658   7.791  70.946  1.00  0.00    -0.079 C  
BRANCH  19  20
HETATM   20  C   UNL     1      -8.194   8.548  72.162  1.00  0.00    -0.175 C  
BRANCH  20  21
HETATM   21  C   UNL     1      -8.186   7.685  73.404  1.00  0.00    -0.151 C  
HETATM   22  O   UNL     1      -7.447   7.898  74.362  1.00  0.00    -0.144 OA 
BRANCH  21  23
HETATM   23  C   UNL     1      -9.092   6.505  73.436  1.00  0.00    -0.140 A  
HETATM   24  C   UNL     1      -8.529   5.256  73.733  1.00  0.00    -0.111 A  
HETATM   25  C   UNL     1      -9.330   4.114  73.746  1.00  0.00    -0.105 A  
HETATM   26  C   UNL     1     -10.688   4.227  73.476  1.00  0.00    -0.242 A  
HETATM   27  C   UNL     1     -11.262   5.462  73.195  1.00  0.00    -0.355 A  
HETATM   28  F   UNL     1     -11.456   3.131  73.487  1.00  0.00    -0.309 F  
HETATM   29  C   UNL     1     -10.464   6.609  73.173  1.00  0.00    -0.277 A  
ENDBRANCH  21  23
ENDBRANCH  20  21
ENDBRANCH  19  20
ENDBRANCH  18  19
ENDBRANCH  15  18
ENDBRANCH  11  12
TORSDOF 6
ENDMDL
MODEL      166
REMARK 921   NORMALIZED FREE ENERGY PREDICTED BY IDOCK:   -4.72 KCAL/MOL
REMARK 922        TOTAL FREE ENERGY PREDICTED BY IDOCK:   -7.69 KCAL/MOL
REMARK 923 INTER-LIGAND FREE ENERGY PREDICTED BY IDOCK:   -6.87 KCAL/MOL
REMARK 924 INTRA-LIGAND FREE ENERGY PREDICTED BY IDOCK:   -0.82 KCAL/MOL
REMARK 927      BINDING AFFINITY PREDICTED BY RF-SCORE:    0.00 PKD
ROOT
HETATM    1  O   UNL     1     -12.192  14.237  68.563  1.00  0.00    -0.542 OA 
HETATM    2  C   UNL     1     -11.923  13.713  67.389  1.00  0.00    -0.376 A  
HETATM    3  H   UNL     1     -11.795  13.913  69.363  1.00  0.00     0.000 HD 
HETATM    4  N   UNL     1     -12.468  14.157  66.291  1.00  0.00    -0.439 NA 
HETATM    5  C   UNL     1     -11.977  13.329  65.313  1.00  0.00    -0.388 A  
HETATM    6  C   UNL     1     -12.278  13.309  63.945  1.00  0.00    -0.491 A  
HETATM    7  C   UNL     1     -11.654  12.354  63.133  1.00  0.00    -0.291 A  
HETATM    8  C   UNL     1     -10.731  11.457  63.666  1.00  0.00    -0.470 A  
HETATM    9  C   UNL     1     -10.412  11.464  65.028  1.00  0.00    -0.361 A  
HETATM   10  C   UNL     1     -11.080  12.393  65.835  1.00  0.00    -0.313 A  
HETATM   11  N   UNL     1     -11.120  12.623  67.188  1.00  0.00    -0.268 NA 
ENDROOT
BRANCH  11  12
HETATM   12  C   UNL     1     -10.625  11.791  68.262  1.00  0.00    -0.211 C  
HETATM   13  C   UNL     1      -9.263  11.153  68.007  1.00  0.00    -0.159 C  
HETATM   14  C   UNL     1      -8.786  10.562  69.335  1.00  0.00    -0.078 C  
HETATM   15  N   UNL     1      -9.720   9.576  69.909  1.00  0.00    -0.209 NA 
HETATM   16  C   UNL     1     -11.084  10.111  70.033  1.00  0.00    -0.308 C  
HETATM   17  C   UNL     1     -11.617  10.725  68.741  1.00  0.00    -0.350 C  
BRANCH  15  18
HETATM   18  C   UNL     1      -9.700   8.276  69.224  1.00  0.00    -0.177 C  
BRANCH  18  19
HETATM   19  C   UNL     1     -10.297   8.337  67.815  1.00  0.00    -0.296 C  
BRANCH  19  20
HETATM   20  C   UNL     1      -9.853   7.156  66.952  1.00  0.00    -0.271 C  
BRANCH  20  21
HETATM   21  C   UNL     1      -8.381   7.235  66.614  1.00  0.00    -0.121 C  
HETATM   22  O   UNL     1      -7.524   6.576  67.199  1.00  0.00    -0.084 OA 
BRANCH  21  23
HETATM   23  C   UNL     1      -7.962   8.187  65.551  1.00  0.00    -0.112 A  
HETATM   24  C   UNL     1      -8.464   7.987  64.257  1.00  0.00     0.083 A  
HETATM   25  C   UNL     1      -8.078   8.834  63.220  1.00  0.00    -0.170 A  
HETATM   26  C   UNL     1      -7.206   9.884  63.480  1.00  0.00    -0.126 A  
HETATM   27  C   UNL     1      -6.712  10.103  64.761  1.00  0.00    -0.121 A  
HETATM   28  F   UNL     1      -6.835  10.695  62.483  1.00  0.00    -0.134 F  
HETATM   29  C   UNL     1      -7.088   9.253  65.804  1.00  0.00    -0.086 A  
ENDBRANCH  21  23
ENDBRANCH  20  21
ENDBRANCH  19  20
ENDBRANCH  18  19
ENDBRANCH  15  18
ENDBRANCH  11  12
TORSDOF 6
ENDMDL
MODEL      167
REMARK 921   NORMALIZED FREE ENERGY PREDICTED BY IDOCK:   -4.72 KCAL/MOL
REMARK 922        TOTAL FREE ENERGY PREDICTED BY IDOCK:   -7.68 KCAL/MOL
REMARK 923 INTER-LIGAND FREE ENERGY PREDICTED BY IDOCK:   -5.78 KCAL/MOL
REMARK 924 INTRA-LIGAND FREE ENERGY PREDICTED BY IDOCK:   -1.90 KCAL/MOL
REMARK 927      BINDING AFFINITY PREDICTED BY RF-SCORE:    0.00 PKD
ROOT
HETATM    1  O   UNL     1     -12.336  10.911  68.288  1.00  0.00    -0.730 OA 
HETATM    2  C   UNL     1     -11.059  10.809  68.577  1.00  0.00    -0.262 A  
HETATM    3  H   UNL     1     -13.001  10.422  68.760  1.00  0.00     0.000 HD 
HETATM    4  N   UNL     1     -10.147  11.479  67.931  1.00  0.00    -0.184 NA 
HETATM    5  C   UNL     1      -8.965  11.066  68.491  1.00  0.00    -0.163 A  
HETATM    6  C   UNL     1      -7.654  11.415  68.139  1.00  0.00    -0.114 A  
HETATM    7  C   UNL     1      -6.592  10.850  68.855  1.00  0.00    -0.056 A  
HETATM    8  C   UNL     1      -6.830   9.980  69.916  1.00  0.00    -0.108 A  
HETATM    9  C   UNL     1      -8.130   9.621  70.287  1.00  0.00    -0.206 A  
HETATM   10  C   UNL     1      -9.179  10.157  69.531  1.00  0.00    -0.204 A  
HETATM   11  N   UNL     1     -10.538   9.960  69.516  1.00  0.00    -0.226 NA 
ENDROOT
BRANCH  11  12
HETATM   12  C   UNL     1     -11.310   8.925  70.167  1.00  0.00    -0.106 C  
HETATM   13  C   UNL     1     -11.688   9.219  71.616  1.00  0.00    -0.462 C  
HETATM   14  C   UNL     1     -12.721   8.170  72.033  1.00  0.00    -0.323 C  
HETATM   15  N   UNL     1     -12.240   6.783  71.895  1.00  0.00    -0.341 NA 
HETATM   16  C   UNL     1     -11.728   6.506  70.544  1.00  0.00    -0.375 C  
HETATM   17  C   UNL     1     -10.697   7.524  70.064  1.00  0.00    -0.248 C  
BRANCH  15  18
HETATM   18  C   UNL     1     -11.284   6.383  72.937  1.00  0.00    -0.186 C  
BRANCH  18  19
HETATM   19  C   UNL     1     -11.038   4.872  72.970  1.00  0.00    -0.368 C  
BRANCH  19  20
HETATM   20  C   UNL     1      -9.574   4.535  73.253  1.00  0.00    -0.144 C  
BRANCH  20  21
HETATM   21  C   UNL     1      -8.655   5.118  72.203  1.00  0.00    -0.126 C  
HETATM   22  O   UNL     1      -8.559   4.658  71.067  1.00  0.00    -0.106 OA 
BRANCH  21  23
HETATM   23  C   UNL     1      -7.805   6.277  72.589  1.00  0.00    -0.105 A  
HETATM   24  C   UNL     1      -6.555   6.409  71.969  1.00  0.00    -0.059 A  
HETATM   25  C   UNL     1      -5.710   7.461  72.318  1.00  0.00    -0.037 A  
HETATM   26  C   UNL     1      -6.121   8.383  73.272  1.00  0.00    -0.101 A  
HETATM   27  C   UNL     1      -7.364   8.273  73.885  1.00  0.00    -0.198 A  
HETATM   28  F   UNL     1      -5.308   9.391  73.608  1.00  0.00    -0.106 F  
HETATM   29  C   UNL     1      -8.213   7.217  73.545  1.00  0.00    -0.138 A  
ENDBRANCH  21  23
ENDBRANCH  20  21
ENDBRANCH  19  20
ENDBRANCH  18  19
ENDBRANCH  15  18
ENDBRANCH  11  12
TORSDOF 6
ENDMDL
MODEL      168
REMARK 921   NORMALIZED FREE ENERGY PREDICTED BY IDOCK:   -4.70 KCAL/MOL
REMARK 922        TOTAL FREE ENERGY PREDICTED BY IDOCK:   -7.66 KCAL/MOL
REMARK 923 INTER-LIGAND FREE ENERGY PREDICTED BY IDOCK:   -6.62 KCAL/MOL
REMARK 924 INTRA-LIGAND FREE ENERGY PREDICTED BY IDOCK:   -1.04 KCAL/MOL
REMARK 927      BINDING AFFINITY PREDICTED BY RF-SCORE:    0.00 PKD
ROOT
HETATM    1  O   UNL     1      -8.095   6.311  67.905  1.00  0.00    -0.112 OA 
HETATM    2  C   UNL     1      -8.776   6.647  68.978  1.00  0.00    -0.129 A  
HETATM    3  H   UNL     1      -7.812   6.954  67.266  1.00  0.00     0.000 HD 
HETATM    4  N   UNL     1      -9.165   5.765  69.855  1.00  0.00    -0.143 NA 
HETATM    5  C   UNL     1      -9.872   6.495  70.776  1.00  0.00    -0.184 A  
HETATM    6  C   UNL     1     -10.571   6.048  71.905  1.00  0.00    -0.272 A  
HETATM    7  C   UNL     1     -11.235   6.988  72.701  1.00  0.00    -0.310 A  
HETATM    8  C   UNL     1     -11.183   8.346  72.396  1.00  0.00    -0.438 A  
HETATM    9  C   UNL     1     -10.487   8.815  71.276  1.00  0.00    -0.326 A  
HETATM   10  C   UNL     1      -9.868   7.858  70.464  1.00  0.00    -0.186 A  
HETATM   11  N   UNL     1      -9.210   7.914  69.261  1.00  0.00    -0.148 NA 
ENDROOT
BRANCH  11  12
HETATM   12  C   UNL     1      -9.144   9.006  68.314  1.00  0.00    -0.133 C  
HETATM   13  C   UNL     1      -8.219  10.151  68.718  1.00  0.00    -0.113 C  
HETATM   14  C   UNL     1      -8.060  11.054  67.493  1.00  0.00    -0.117 C  
HETATM   15  N   UNL     1      -9.339  11.577  66.978  1.00  0.00    -0.175 NA 
HETATM   16  C   UNL     1     -10.312  10.506  66.716  1.00  0.00    -0.245 C  
HETATM   17  C   UNL     1     -10.510   9.562  67.900  1.00  0.00    -0.293 C  
BRANCH  15  18
HETATM   18  C   UNL     1      -9.912  12.651  67.802  1.00  0.00    -0.218 C  
BRANCH  18  19
HETATM   19  C   UNL     1     -11.005  13.439  67.075  1.00  0.00    -0.298 C  
BRANCH  19  20
HETATM   20  C   UNL     1     -12.001  14.071  68.048  1.00  0.00    -0.386 C  
BRANCH  20  21
HETATM   21  C   UNL     1     -11.301  14.910  69.095  1.00  0.00    -0.292 C  
HETATM   22  O   UNL     1     -11.373  14.675  70.299  1.00  0.00    -0.252 OA 
BRANCH  21  23
HETATM   23  C   UNL     1     -10.526  16.092  68.633  1.00  0.00    -0.269 A  
HETATM   24  C   UNL     1      -9.157  16.135  68.929  1.00  0.00    -0.246 A  
HETATM   25  C   UNL     1      -8.393  17.236  68.544  1.00  0.00    -0.267 A  
HETATM   26  C   UNL     1      -8.995  18.280  67.853  1.00  0.00    -0.276 A  
HETATM   27  C   UNL     1     -10.349  18.244  67.539  1.00  0.00    -0.415 A  
HETATM   28  F   UNL     1      -8.262  19.337  67.485  1.00  0.00    -0.289 F  
HETATM   29  C   UNL     1     -11.123  17.148  67.929  1.00  0.00    -0.087 A  
ENDBRANCH  21  23
ENDBRANCH  20  21
ENDBRANCH  19  20
ENDBRANCH  18  19
ENDBRANCH  15  18
ENDBRANCH  11  12
TORSDOF 6
ENDMDL
MODEL      169
REMARK 921   NORMALIZED FREE ENERGY PREDICTED BY IDOCK:   -4.70 KCAL/MOL
REMARK 922        TOTAL FREE ENERGY PREDICTED BY IDOCK:   -7.66 KCAL/MOL
REMARK 923 INTER-LIGAND FREE ENERGY PREDICTED BY IDOCK:   -7.21 KCAL/MOL
REMARK 924 INTRA-LIGAND FREE ENERGY PREDICTED BY IDOCK:   -0.44 KCAL/MOL
REMARK 927      BINDING AFFINITY PREDICTED BY RF-SCORE:    0.00 PKD
ROOT
HETATM    1  O   UNL     1     -12.478  13.964  63.444  1.00  0.00    -1.068 OA 
HETATM    2  C   UNL     1     -11.927  14.756  64.335  1.00  0.00    -0.417 A  
HETATM    3  H   UNL     1     -12.577  13.031  63.591  1.00  0.00     0.000 HD 
HETATM    4  N   UNL     1     -11.791  16.037  64.133  1.00  0.00    -0.708 NA 
HETATM    5  C   UNL     1     -11.141  16.487  65.254  1.00  0.00    -0.076 A  
HETATM    6  C   UNL     1     -10.682  17.778  65.547  1.00  0.00    -0.009 A  
HETATM    7  C   UNL     1     -10.028  18.000  66.764  1.00  0.00    -0.346 A  
HETATM    8  C   UNL     1      -9.859  16.966  67.682  1.00  0.00    -0.259 A  
HETATM    9  C   UNL     1     -10.314  15.671  67.413  1.00  0.00    -0.275 A  
HETATM   10  C   UNL     1     -10.923  15.455  66.171  1.00  0.00    -0.279 A  
HETATM   11  N   UNL     1     -11.381  14.337  65.518  1.00  0.00    -0.318 NA 
ENDROOT
BRANCH  11  12
HETATM   12  C   UNL     1     -11.164  12.945  65.844  1.00  0.00    -0.293 C  
HETATM   13  C   UNL     1     -10.947  12.659  67.327  1.00  0.00    -0.291 C  
HETATM   14  C   UNL     1     -11.022  11.141  67.508  1.00  0.00    -0.275 C  
HETATM   15  N   UNL     1     -10.044  10.402  66.690  1.00  0.00    -0.216 NA 
HETATM   16  C   UNL     1     -10.125  10.764  65.266  1.00  0.00    -0.290 C  
HETATM   17  C   UNL     1     -10.064  12.269  65.018  1.00  0.00    -0.277 C  
BRANCH  15  18
HETATM   18  C   UNL     1      -8.667  10.481  67.199  1.00  0.00    -0.130 C  
BRANCH  18  19
HETATM   19  C   UNL     1      -7.789   9.322  66.721  1.00  0.00    -0.104 C  
BRANCH  19  20
HETATM   20  C   UNL     1      -8.265   7.977  67.271  1.00  0.00    -0.122 C  
BRANCH  20  21
HETATM   21  C   UNL     1      -7.856   7.789  68.715  1.00  0.00    -0.123 C  
HETATM   22  O   UNL     1      -6.916   8.391  69.228  1.00  0.00    -0.053 OA 
BRANCH  21  23
HETATM   23  C   UNL     1      -8.612   6.798  69.528  1.00  0.00    -0.133 A  
HETATM   24  C   UNL     1      -8.288   6.682  70.887  1.00  0.00    -0.125 A  
HETATM   25  C   UNL     1      -8.947   5.747  71.684  1.00  0.00    -0.141 A  
HETATM   26  C   UNL     1      -9.933   4.944  71.126  1.00  0.00    -0.208 A  
HETATM   27  C   UNL     1     -10.275   5.060  69.783  1.00  0.00    -0.336 A  
HETATM   28  F   UNL     1     -10.564   4.046  71.892  1.00  0.00    -0.190 F  
HETATM   29  C   UNL     1      -9.614   5.989  68.976  1.00  0.00    -0.153 A  
ENDBRANCH  21  23
ENDBRANCH  20  21
ENDBRANCH  19  20
ENDBRANCH  18  19
ENDBRANCH  15  18
ENDBRANCH  11  12
TORSDOF 6
ENDMDL
MODEL      170
REMARK 921   NORMALIZED FREE ENERGY PREDICTED BY IDOCK:   -4.68 KCAL/MOL
REMARK 922        TOTAL FREE ENERGY PREDICTED BY IDOCK:   -7.63 KCAL/MOL
REMARK 923 INTER-LIGAND FREE ENERGY PREDICTED BY IDOCK:   -6.99 KCAL/MOL
REMARK 924 INTRA-LIGAND FREE ENERGY PREDICTED BY IDOCK:   -0.64 KCAL/MOL
REMARK 927      BINDING AFFINITY PREDICTED BY RF-SCORE:    0.00 PKD
ROOT
HETATM    1  O   UNL     1     -11.100  13.464  66.353  1.00  0.00    -0.294 OA 
HETATM    2  C   UNL     1     -10.443  12.326  66.378  1.00  0.00    -0.236 A  
HETATM    3  H   UNL     1     -10.659  14.302  66.429  1.00  0.00     0.000 HD 
HETATM    4  N   UNL     1     -11.047  11.176  66.273  1.00  0.00    -0.179 NA 
HETATM    5  C   UNL     1     -10.038  10.254  66.392  1.00  0.00    -0.234 A  
HETATM    6  C   UNL     1     -10.122   8.856  66.415  1.00  0.00    -0.333 A  
HETATM    7  C   UNL     1      -8.943   8.114  66.558  1.00  0.00    -0.191 A  
HETATM    8  C   UNL     1      -7.707   8.748  66.647  1.00  0.00    -0.093 A  
HETATM    9  C   UNL     1      -7.600  10.143  66.620  1.00  0.00    -0.107 A  
HETATM   10  C   UNL     1      -8.791  10.871  66.525  1.00  0.00    -0.163 A  
HETATM   11  N   UNL     1      -9.095  12.209  66.581  1.00  0.00    -0.205 NA 
ENDROOT
BRANCH  11  12
HETATM   12  C   UNL     1      -8.255  13.312  66.994  1.00  0.00    -0.045 C  
HETATM   13  C   UNL     1      -7.884  13.318  68.475  1.00  0.00    -0.110 C  
HETATM   14  C   UNL     1      -6.785  14.366  68.659  1.00  0.00    -0.090 C  
HETATM   15  N   UNL     1      -7.180  15.717  68.218  1.00  0.00    -0.113 NA 
HETATM   16  C   UNL     1      -7.684  15.724  66.836  1.00  0.00    -0.219 C  
HETATM   17  C   UNL     1      -8.780  14.692  66.584  1.00  0.00    -0.197 C  
BRANCH  15  18
HETATM   18  C   UNL     1      -8.101  16.394  69.142  1.00  0.00    -0.198 C  
BRANCH  18  19
HETATM   19  C   UNL     1      -8.834  17.572  68.493  1.00  0.00    -0.282 C  
BRANCH  19  20
HETATM   20  C   UNL     1     -10.270  17.705  69.004  1.00  0.00    -0.314 C  
BRANCH  20  21
HETATM   21  C   UNL     1     -11.048  16.421  68.821  1.00  0.00    -0.337 C  
HETATM   22  O   UNL     1     -11.271  15.925  67.719  1.00  0.00    -0.326 OA 
BRANCH  21  23
HETATM   23  C   UNL     1     -11.596  15.761  70.036  1.00  0.00    -0.361 A  
HETATM   24  C   UNL     1     -11.615  16.498  71.229  1.00  0.00    -0.101 A  
HETATM   25  C   UNL     1     -12.091  15.914  72.402  1.00  0.00    -0.605 A  
HETATM   26  C   UNL     1     -12.559  14.606  72.377  1.00  0.00    -0.328 A  
HETATM   27  C   UNL     1     -12.559  13.870  71.197  1.00  0.00    -0.446 A  
HETATM   28  F   UNL     1     -13.014  14.046  73.503  1.00  0.00    -0.483 F  
HETATM   29  C   UNL     1     -12.076  14.445  70.019  1.00  0.00    -0.401 A  
ENDBRANCH  21  23
ENDBRANCH  20  21
ENDBRANCH  19  20
ENDBRANCH  18  19
ENDBRANCH  15  18
ENDBRANCH  11  12
TORSDOF 6
ENDMDL
MODEL      171
REMARK 921   NORMALIZED FREE ENERGY PREDICTED BY IDOCK:   -4.68 KCAL/MOL
REMARK 922        TOTAL FREE ENERGY PREDICTED BY IDOCK:   -7.63 KCAL/MOL
REMARK 923 INTER-LIGAND FREE ENERGY PREDICTED BY IDOCK:   -6.58 KCAL/MOL
REMARK 924 INTRA-LIGAND FREE ENERGY PREDICTED BY IDOCK:   -1.04 KCAL/MOL
REMARK 927      BINDING AFFINITY PREDICTED BY RF-SCORE:    0.00 PKD
ROOT
HETATM    1  O   UNL     1     -11.945  10.285  69.254  1.00  0.00    -0.504 OA 
HETATM    2  C   UNL     1     -11.447  11.339  68.647  1.00  0.00    -0.297 A  
HETATM    3  H   UNL     1     -11.402   9.551  69.516  1.00  0.00     0.000 HD 
HETATM    4  N   UNL     1     -12.191  12.347  68.286  1.00  0.00    -0.208 NA 
HETATM    5  C   UNL     1     -11.321  13.199  67.655  1.00  0.00    -0.298 A  
HETATM    6  C   UNL     1     -11.589  14.414  67.013  1.00  0.00    -0.402 A  
HETATM    7  C   UNL     1     -10.529  15.112  66.422  1.00  0.00    -0.300 A  
HETATM    8  C   UNL     1      -9.226  14.625  66.493  1.00  0.00    -0.294 A  
HETATM    9  C   UNL     1      -8.935  13.416  67.134  1.00  0.00    -0.227 A  
HETATM   10  C   UNL     1     -10.012  12.707  67.678  1.00  0.00    -0.216 A  
HETATM   11  N   UNL     1     -10.139  11.472  68.265  1.00  0.00    -0.193 NA 
ENDROOT
BRANCH  11  12
HETATM   12  C   UNL     1      -9.185  10.386  68.305  1.00  0.00    -0.149 C  
HETATM   13  C   UNL     1      -9.478   9.238  67.344  1.00  0.00    -0.165 C  
HETATM   14  C   UNL     1      -8.237   8.343  67.320  1.00  0.00    -0.112 C  
HETATM   15  N   UNL     1      -7.861   7.823  68.648  1.00  0.00    -0.118 NA 
HETATM   16  C   UNL     1      -7.713   8.898  69.642  1.00  0.00    -0.078 C  
HETATM   17  C   UNL     1      -8.918   9.834  69.709  1.00  0.00    -0.239 C  
BRANCH  15  18
HETATM   18  C   UNL     1      -8.736   6.745  69.130  1.00  0.00    -0.131 C  
BRANCH  18  19
HETATM   19  C   UNL     1      -8.109   5.935  70.268  1.00  0.00    -0.107 C  
BRANCH  19  20
HETATM   20  C   UNL     1      -8.704   6.303  71.629  1.00  0.00    -0.134 C  
BRANCH  20  21
HETATM   21  C   UNL     1     -10.115   5.780  71.780  1.00  0.00    -0.187 C  
HETATM   22  O   UNL     1     -10.377   4.586  71.902  1.00  0.00    -0.189 OA 
BRANCH  21  23
HETATM   23  C   UNL     1     -11.229   6.765  71.738  1.00  0.00    -0.294 A  
HETATM   24  C   UNL     1     -11.047   7.988  72.400  1.00  0.00    -0.416 A  
HETATM   25  C   UNL     1     -12.072   8.933  72.415  1.00  0.00    -0.344 A  
HETATM   26  C   UNL     1     -13.266   8.659  71.759  1.00  0.00    -0.363 A  
HETATM   27  C   UNL     1     -13.454   7.457  71.086  1.00  0.00    -0.244 A  
HETATM   28  F   UNL     1     -14.250   9.566  71.775  1.00  0.00    -0.287 F  
HETATM   29  C   UNL     1     -12.434   6.503  71.073  1.00  0.00    -0.089 A  
ENDBRANCH  21  23
ENDBRANCH  20  21
ENDBRANCH  19  20
ENDBRANCH  18  19
ENDBRANCH  15  18
ENDBRANCH  11  12
TORSDOF 6
ENDMDL
MODEL      172
REMARK 921   NORMALIZED FREE ENERGY PREDICTED BY IDOCK:   -4.66 KCAL/MOL
REMARK 922        TOTAL FREE ENERGY PREDICTED BY IDOCK:   -7.61 KCAL/MOL
REMARK 923 INTER-LIGAND FREE ENERGY PREDICTED BY IDOCK:   -6.42 KCAL/MOL
REMARK 924 INTRA-LIGAND FREE ENERGY PREDICTED BY IDOCK:   -1.18 KCAL/MOL
REMARK 927      BINDING AFFINITY PREDICTED BY RF-SCORE:    0.00 PKD
ROOT
HETATM    1  O   UNL     1      -9.499  12.060  65.311  1.00  0.00    -0.404 OA 
HETATM    2  C   UNL     1      -9.149  10.802  65.455  1.00  0.00    -0.199 A  
HETATM    3  H   UNL     1      -9.799  12.588  66.041  1.00  0.00     0.000 HD 
HETATM    4  N   UNL     1      -8.738  10.078  64.453  1.00  0.00    -0.182 NA 
HETATM    5  C   UNL     1      -8.523   8.838  64.999  1.00  0.00    -0.175 A  
HETATM    6  C   UNL     1      -8.133   7.652  64.364  1.00  0.00    -0.084 A  
HETATM    7  C   UNL     1      -7.987   6.492  65.134  1.00  0.00    -0.123 A  
HETATM    8  C   UNL     1      -8.197   6.519  66.511  1.00  0.00    -0.113 A  
HETATM    9  C   UNL     1      -8.582   7.693  67.166  1.00  0.00    -0.121 A  
HETATM   10  C   UNL     1      -8.771   8.832  66.375  1.00  0.00    -0.139 A  
HETATM   11  N   UNL     1      -9.239  10.098  66.626  1.00  0.00    -0.153 NA 
ENDROOT
BRANCH  11  12
HETATM   12  C   UNL     1      -9.918  10.596  67.802  1.00  0.00    -0.167 C  
HETATM   13  C   UNL     1      -9.925   9.641  68.992  1.00  0.00    -0.189 C  
HETATM   14  C   UNL     1     -10.420  10.434  70.203  1.00  0.00    -0.128 C  
HETATM   15  N   UNL     1     -11.755  11.030  70.010  1.00  0.00    -0.324 NA 
HETATM   16  C   UNL     1     -11.827  11.843  68.785  1.00  0.00    -0.313 C  
HETATM   17  C   UNL     1     -11.337  11.109  67.539  1.00  0.00    -0.351 C  
BRANCH  15  18
HETATM   18  C   UNL     1     -12.854  10.057  70.088  1.00  0.00     0.189 C  
BRANCH  18  19
HETATM   19  C   UNL     1     -13.158   9.619  71.524  1.00  0.00    -0.488 C  
BRANCH  19  20
HETATM   20  C   UNL     1     -13.194   8.096  71.663  1.00  0.00    -0.357 C  
BRANCH  20  21
HETATM   21  C   UNL     1     -11.855   7.544  72.099  1.00  0.00    -0.298 C  
HETATM   22  O   UNL     1     -11.293   7.893  73.134  1.00  0.00    -0.361 OA 
BRANCH  21  23
HETATM   23  C   UNL     1     -11.183   6.564  71.204  1.00  0.00    -0.353 A  
HETATM   24  C   UNL     1     -11.477   6.619  69.834  1.00  0.00    -0.414 A  
HETATM   25  C   UNL     1     -10.896   5.703  68.958  1.00  0.00    -0.251 A  
HETATM   26  C   UNL     1     -10.015   4.748  69.449  1.00  0.00    -0.199 A  
HETATM   27  C   UNL     1      -9.704   4.692  70.803  1.00  0.00    -0.269 A  
HETATM   28  F   UNL     1      -9.459   3.869  68.608  1.00  0.00    -0.186 F  
HETATM   29  C   UNL     1     -10.288   5.601  71.689  1.00  0.00    -0.270 A  
ENDBRANCH  21  23
ENDBRANCH  20  21
ENDBRANCH  19  20
ENDBRANCH  18  19
ENDBRANCH  15  18
ENDBRANCH  11  12
TORSDOF 6
ENDMDL
MODEL      173
REMARK 921   NORMALIZED FREE ENERGY PREDICTED BY IDOCK:   -4.64 KCAL/MOL
REMARK 922        TOTAL FREE ENERGY PREDICTED BY IDOCK:   -7.58 KCAL/MOL
REMARK 923 INTER-LIGAND FREE ENERGY PREDICTED BY IDOCK:   -5.70 KCAL/MOL
REMARK 924 INTRA-LIGAND FREE ENERGY PREDICTED BY IDOCK:   -1.88 KCAL/MOL
REMARK 927      BINDING AFFINITY PREDICTED BY RF-SCORE:    0.00 PKD
ROOT
HETATM    1  O   UNL     1      -5.730  14.845  70.967  1.00  0.00    -0.126 OA 
HETATM    2  C   UNL     1      -5.939  15.593  69.907  1.00  0.00    -0.156 A  
HETATM    3  H   UNL     1      -5.900  13.911  70.966  1.00  0.00     0.000 HD 
HETATM    4  N   UNL     1      -5.707  16.876  69.908  1.00  0.00    -0.214 NA 
HETATM    5  C   UNL     1      -6.091  17.289  68.658  1.00  0.00    -0.165 A  
HETATM    6  C   UNL     1      -6.117  18.585  68.128  1.00  0.00    -0.193 A  
HETATM    7  C   UNL     1      -6.564  18.766  66.814  1.00  0.00    -0.206 A  
HETATM    8  C   UNL     1      -6.950  17.678  66.035  1.00  0.00    -0.318 A  
HETATM    9  C   UNL     1      -6.927  16.374  66.542  1.00  0.00    -0.004 A  
HETATM   10  C   UNL     1      -6.523  16.216  67.873  1.00  0.00    -0.142 A  
HETATM   11  N   UNL     1      -6.477  15.145  68.731  1.00  0.00    -0.085 NA 
ENDROOT
BRANCH  11  12
HETATM   12  C   UNL     1      -7.068  13.834  68.576  1.00  0.00    -0.106 C  
HETATM   13  C   UNL     1      -6.413  12.955  67.515  1.00  0.00    -0.162 C  
HETATM   14  C   UNL     1      -6.972  11.542  67.693  1.00  0.00    -0.091 C  
HETATM   15  N   UNL     1      -8.441  11.473  67.588  1.00  0.00    -0.131 NA 
HETATM   16  C   UNL     1      -9.107  12.419  68.496  1.00  0.00    -0.067 C  
HETATM   17  C   UNL     1      -8.587  13.849  68.374  1.00  0.00    -0.169 C  
BRANCH  15  18
HETATM   18  C   UNL     1      -8.940  11.590  66.210  1.00  0.00    -0.196 C  
BRANCH  18  19
HETATM   19  C   UNL     1     -10.351  12.181  66.138  1.00  0.00    -0.264 C  
BRANCH  19  20
HETATM   20  C   UNL     1     -10.397  13.453  65.290  1.00  0.00    -0.330 C  
BRANCH  20  21
HETATM   21  C   UNL     1     -11.470  14.404  65.771  1.00  0.00    -0.335 C  
HETATM   22  O   UNL     1     -12.670  14.144  65.714  1.00  0.00    -0.508 OA 
BRANCH  21  23
HETATM   23  C   UNL     1     -11.040  15.728  66.297  1.00  0.00    -0.073 A  
HETATM   24  C   UNL     1     -10.968  16.799  65.396  1.00  0.00    -0.062 A  
HETATM   25  C   UNL     1     -10.542  18.052  65.834  1.00  0.00    -0.225 A  
HETATM   26  C   UNL     1     -10.204  18.234  67.169  1.00  0.00    -0.373 A  
HETATM   27  C   UNL     1     -10.286  17.183  68.077  1.00  0.00    -0.332 A  
HETATM   28  F   UNL     1      -9.794  19.436  67.589  1.00  0.00    -0.351 F  
HETATM   29  C   UNL     1     -10.704  15.923  67.644  1.00  0.00    -0.312 A  
ENDBRANCH  21  23
ENDBRANCH  20  21
ENDBRANCH  19  20
ENDBRANCH  18  19
ENDBRANCH  15  18
ENDBRANCH  11  12
TORSDOF 6
ENDMDL
MODEL      174
REMARK 921   NORMALIZED FREE ENERGY PREDICTED BY IDOCK:   -4.60 KCAL/MOL
REMARK 922        TOTAL FREE ENERGY PREDICTED BY IDOCK:   -7.52 KCAL/MOL
REMARK 923 INTER-LIGAND FREE ENERGY PREDICTED BY IDOCK:   -6.84 KCAL/MOL
REMARK 924 INTRA-LIGAND FREE ENERGY PREDICTED BY IDOCK:   -0.68 KCAL/MOL
REMARK 927      BINDING AFFINITY PREDICTED BY RF-SCORE:    0.00 PKD
ROOT
HETATM    1  O   UNL     1      -8.251   5.567  71.533  1.00  0.00    -0.115 OA 
HETATM    2  C   UNL     1      -8.757   5.315  70.347  1.00  0.00    -0.127 A  
HETATM    3  H   UNL     1      -8.488   6.343  72.028  1.00  0.00     0.000 HD 
HETATM    4  N   UNL     1      -8.433   4.250  69.668  1.00  0.00    -0.067 NA 
HETATM    5  C   UNL     1      -9.122   4.380  68.490  1.00  0.00    -0.124 A  
HETATM    6  C   UNL     1      -9.100   3.550  67.361  1.00  0.00    -0.193 A  
HETATM    7  C   UNL     1      -9.889   3.894  66.257  1.00  0.00    -0.131 A  
HETATM    8  C   UNL     1     -10.705   5.022  66.287  1.00  0.00    -0.262 A  
HETATM    9  C   UNL     1     -10.747   5.861  67.406  1.00  0.00    -0.370 A  
HETATM   10  C   UNL     1      -9.916   5.530  68.482  1.00  0.00    -0.157 A  
HETATM   11  N   UNL     1      -9.604   6.148  69.668  1.00  0.00    -0.147 NA 
ENDROOT
BRANCH  11  12
HETATM   12  C   UNL     1      -9.892   7.502  70.087  1.00  0.00    -0.180 C  
HETATM   13  C   UNL     1     -11.298   7.721  70.635  1.00  0.00    -0.275 C  
HETATM   14  C   UNL     1     -11.320   9.109  71.279  1.00  0.00    -0.336 C  
HETATM   15  N   UNL     1     -10.952  10.194  70.350  1.00  0.00    -0.307 NA 
HETATM   16  C   UNL     1      -9.663   9.943  69.688  1.00  0.00    -0.229 C  
HETATM   17  C   UNL     1      -9.574   8.568  69.032  1.00  0.00    -0.167 C  
BRANCH  15  18
HETATM   18  C   UNL     1     -12.009  10.529  69.386  1.00  0.00    -0.158 C  
BRANCH  18  19
HETATM   19  C   UNL     1     -11.478  11.271  68.156  1.00  0.00    -0.376 C  
BRANCH  19  20
HETATM   20  C   UNL     1     -12.128  12.645  67.989  1.00  0.00    -0.152 C  
BRANCH  20  21
HETATM   21  C   UNL     1     -11.973  13.167  66.578  1.00  0.00    -0.398 C  
HETATM   22  O   UNL     1     -12.590  12.704  65.621  1.00  0.00    -0.611 OA 
BRANCH  21  23
HETATM   23  C   UNL     1     -10.996  14.265  66.347  1.00  0.00    -0.311 A  
HETATM   24  C   UNL     1      -9.703  14.110  66.867  1.00  0.00    -0.272 A  
HETATM   25  C   UNL     1      -8.759  15.124  66.704  1.00  0.00    -0.308 A  
HETATM   26  C   UNL     1      -9.105  16.277  66.011  1.00  0.00    -0.297 A  
HETATM   27  C   UNL     1     -10.379  16.437  65.478  1.00  0.00    -0.336 A  
HETATM   28  F   UNL     1      -8.199  17.250  65.856  1.00  0.00    -0.293 F  
HETATM   29  C   UNL     1     -11.332  15.429  65.645  1.00  0.00    -0.136 A  
ENDBRANCH  21  23
ENDBRANCH  20  21
ENDBRANCH  19  20
ENDBRANCH  18  19
ENDBRANCH  15  18
ENDBRANCH  11  12
TORSDOF 6
ENDMDL
MODEL      175
REMARK 921   NORMALIZED FREE ENERGY PREDICTED BY IDOCK:   -4.59 KCAL/MOL
REMARK 922        TOTAL FREE ENERGY PREDICTED BY IDOCK:   -7.51 KCAL/MOL
REMARK 923 INTER-LIGAND FREE ENERGY PREDICTED BY IDOCK:   -6.72 KCAL/MOL
REMARK 924 INTRA-LIGAND FREE ENERGY PREDICTED BY IDOCK:   -0.78 KCAL/MOL
REMARK 927      BINDING AFFINITY PREDICTED BY RF-SCORE:    0.00 PKD
ROOT
HETATM    1  O   UNL     1      -7.282   4.820  67.082  1.00  0.00    -0.074 OA 
HETATM    2  C   UNL     1      -7.925   4.917  68.224  1.00  0.00    -0.086 A  
HETATM    3  H   UNL     1      -7.135   5.573  66.521  1.00  0.00     0.000 HD 
HETATM    4  N   UNL     1      -8.128   3.885  68.994  1.00  0.00    -0.062 NA 
HETATM    5  C   UNL     1      -8.861   4.384  70.040  1.00  0.00    -0.080 A  
HETATM    6  C   UNL     1      -9.410   3.703  71.134  1.00  0.00    -0.218 A  
HETATM    7  C   UNL     1     -10.139   4.431  72.083  1.00  0.00    -0.262 A  
HETATM    8  C   UNL     1     -10.293   5.809  71.961  1.00  0.00    -0.254 A  
HETATM    9  C   UNL     1      -9.748   6.510  70.880  1.00  0.00    -0.190 A  
HETATM   10  C   UNL     1      -9.063   5.762  69.915  1.00  0.00    -0.144 A  
HETATM   11  N   UNL     1      -8.505   6.063  68.697  1.00  0.00    -0.113 NA 
ENDROOT
BRANCH  11  12
HETATM   12  C   UNL     1      -8.655   7.263  67.904  1.00  0.00    -0.120 C  
HETATM   13  C   UNL     1      -7.799   8.443  68.356  1.00  0.00    -0.113 C  
HETATM   14  C   UNL     1      -7.873   9.501  67.253  1.00  0.00    -0.098 C  
HETATM   15  N   UNL     1      -9.247   9.943  66.953  1.00  0.00    -0.145 NA 
HETATM   16  C   UNL     1     -10.141   8.813  66.656  1.00  0.00    -0.288 C  
HETATM   17  C   UNL     1     -10.107   7.716  67.717  1.00  0.00    -0.237 C  
BRANCH  15  18
HETATM   18  C   UNL     1      -9.814  10.840  67.970  1.00  0.00    -0.165 C  
BRANCH  18  19
HETATM   19  C   UNL     1     -11.340  10.945  67.885  1.00  0.00    -0.380 C  
BRANCH  19  20
HETATM   20  C   UNL     1     -11.828  12.378  68.102  1.00  0.00    -0.372 C  
BRANCH  20  21
HETATM   21  C   UNL     1     -11.983  13.118  66.791  1.00  0.00    -0.373 C  
HETATM   22  O   UNL     1     -12.558  12.640  65.817  1.00  0.00    -0.575 OA 
BRANCH  21  23
HETATM   23  C   UNL     1     -11.371  14.469  66.680  1.00  0.00    -0.359 A  
HETATM   24  C   UNL     1     -11.214  15.216  67.856  1.00  0.00    -0.334 A  
HETATM   25  C   UNL     1     -10.672  16.500  67.802  1.00  0.00    -0.329 A  
HETATM   26  C   UNL     1     -10.278  17.026  66.578  1.00  0.00    -0.320 A  
HETATM   27  C   UNL     1     -10.414  16.290  65.406  1.00  0.00    -0.365 A  
HETATM   28  F   UNL     1      -9.760  18.258  66.526  1.00  0.00    -0.290 F  
HETATM   29  C   UNL     1     -10.962  15.006  65.452  1.00  0.00    -0.380 A  
ENDBRANCH  21  23
ENDBRANCH  20  21
ENDBRANCH  19  20
ENDBRANCH  18  19
ENDBRANCH  15  18
ENDBRANCH  11  12
TORSDOF 6
ENDMDL
MODEL      176
REMARK 921   NORMALIZED FREE ENERGY PREDICTED BY IDOCK:   -4.58 KCAL/MOL
REMARK 922        TOTAL FREE ENERGY PREDICTED BY IDOCK:   -7.49 KCAL/MOL
REMARK 923 INTER-LIGAND FREE ENERGY PREDICTED BY IDOCK:   -5.72 KCAL/MOL
REMARK 924 INTRA-LIGAND FREE ENERGY PREDICTED BY IDOCK:   -1.77 KCAL/MOL
REMARK 927      BINDING AFFINITY PREDICTED BY RF-SCORE:    0.00 PKD
ROOT
HETATM    1  O   UNL     1     -12.303  13.051  70.708  1.00  0.00    -0.363 OA 
HETATM    2  C   UNL     1     -12.181  11.746  70.805  1.00  0.00    -0.326 A  
HETATM    3  H   UNL     1     -11.925  13.541  69.987  1.00  0.00     0.000 HD 
HETATM    4  N   UNL     1     -12.699  11.074  71.793  1.00  0.00    -0.361 NA 
HETATM    5  C   UNL     1     -12.314   9.778  71.559  1.00  0.00    -0.405 A  
HETATM    6  C   UNL     1     -12.540   8.637  72.340  1.00  0.00    -0.426 A  
HETATM    7  C   UNL     1     -12.034   7.409  71.898  1.00  0.00    -0.337 A  
HETATM    8  C   UNL     1     -11.344   7.313  70.692  1.00  0.00    -0.311 A  
HETATM    9  C   UNL     1     -11.112   8.439  69.894  1.00  0.00    -0.109 A  
HETATM   10  C   UNL     1     -11.582   9.667  70.373  1.00  0.00    -0.236 A  
HETATM   11  N   UNL     1     -11.455  10.966  69.946  1.00  0.00    -0.296 NA 
ENDROOT
BRANCH  11  12
HETATM   12  C   UNL     1     -10.569  11.505  68.938  1.00  0.00    -0.204 C  
HETATM   13  C   UNL     1     -11.231  11.817  67.599  1.00  0.00    -0.345 C  
HETATM   14  C   UNL     1     -10.227  12.628  66.778  1.00  0.00    -0.237 C  
HETATM   15  N   UNL     1      -8.941  11.936  66.571  1.00  0.00    -0.203 NA 
HETATM   16  C   UNL     1      -8.342  11.488  67.838  1.00  0.00    -0.136 C  
HETATM   17  C   UNL     1      -9.299  10.679  68.710  1.00  0.00    -0.183 C  
BRANCH  15  18
HETATM   18  C   UNL     1      -9.007  10.852  65.581  1.00  0.00    -0.194 C  
BRANCH  18  19
HETATM   19  C   UNL     1      -7.716  10.031  65.511  1.00  0.00    -0.135 C  
BRANCH  19  20
HETATM   20  C   UNL     1      -7.953   8.559  65.850  1.00  0.00    -0.105 C  
BRANCH  20  21
HETATM   21  C   UNL     1      -6.874   8.015  66.759  1.00  0.00    -0.072 C  
HETATM   22  O   UNL     1      -5.677   8.075  66.488  1.00  0.00    -0.038 OA 
BRANCH  21  23
HETATM   23  C   UNL     1      -7.299   7.344  68.017  1.00  0.00    -0.096 A  
HETATM   24  C   UNL     1      -8.094   6.195  67.910  1.00  0.00    -0.114 A  
HETATM   25  C   UNL     1      -8.543   5.547  69.060  1.00  0.00    -0.103 A  
HETATM   26  C   UNL     1      -8.185   6.039  70.308  1.00  0.00    -0.119 A  
HETATM   27  C   UNL     1      -7.383   7.169  70.429  1.00  0.00    -0.079 A  
HETATM   28  F   UNL     1      -8.617   5.417  71.411  1.00  0.00    -0.121 F  
HETATM   29  C   UNL     1      -6.937   7.828  69.281  1.00  0.00    -0.060 A  
ENDBRANCH  21  23
ENDBRANCH  20  21
ENDBRANCH  19  20
ENDBRANCH  18  19
ENDBRANCH  15  18
ENDBRANCH  11  12
TORSDOF 6
ENDMDL
MODEL      177
REMARK 921   NORMALIZED FREE ENERGY PREDICTED BY IDOCK:   -4.57 KCAL/MOL
REMARK 922        TOTAL FREE ENERGY PREDICTED BY IDOCK:   -7.48 KCAL/MOL
REMARK 923 INTER-LIGAND FREE ENERGY PREDICTED BY IDOCK:   -6.71 KCAL/MOL
REMARK 924 INTRA-LIGAND FREE ENERGY PREDICTED BY IDOCK:   -0.76 KCAL/MOL
REMARK 927      BINDING AFFINITY PREDICTED BY RF-SCORE:    0.00 PKD
ROOT
HETATM    1  O   UNL     1     -10.320  10.101  64.185  1.00  0.00    -0.433 OA 
HETATM    2  C   UNL     1      -9.265  10.161  64.966  1.00  0.00    -0.217 A  
HETATM    3  H   UNL     1     -11.072  10.668  64.307  1.00  0.00     0.000 HD 
HETATM    4  N   UNL     1      -8.233   9.383  64.798  1.00  0.00    -0.136 NA 
HETATM    5  C   UNL     1      -7.388   9.719  65.825  1.00  0.00    -0.105 A  
HETATM    6  C   UNL     1      -6.153   9.154  66.169  1.00  0.00    -0.059 A  
HETATM    7  C   UNL     1      -5.467   9.660  67.279  1.00  0.00    -0.036 A  
HETATM    8  C   UNL     1      -5.985  10.724  68.014  1.00  0.00    -0.050 A  
HETATM    9  C   UNL     1      -7.214  11.306  67.685  1.00  0.00    -0.092 A  
HETATM   10  C   UNL     1      -7.910  10.757  66.602  1.00  0.00    -0.140 A  
HETATM   11  N   UNL     1      -9.153  10.974  66.062  1.00  0.00    -0.190 NA 
ENDROOT
BRANCH  11  12
HETATM   12  C   UNL     1     -10.262  11.722  66.613  1.00  0.00    -0.210 C  
HETATM   13  C   UNL     1     -10.114  13.239  66.537  1.00  0.00    -0.275 C  
HETATM   14  C   UNL     1     -11.474  13.842  66.893  1.00  0.00    -0.351 C  
HETATM   15  N   UNL     1     -11.968  13.436  68.222  1.00  0.00    -0.346 NA 
HETATM   16  C   UNL     1     -11.984  11.974  68.384  1.00  0.00    -0.194 C  
HETATM   17  C   UNL     1     -10.655  11.309  68.035  1.00  0.00    -0.230 C  
BRANCH  15  18
HETATM   18  C   UNL     1     -11.282  14.105  69.336  1.00  0.00    -0.255 C  
BRANCH  18  19
HETATM   19  C   UNL     1     -10.546  15.377  68.905  1.00  0.00    -0.244 C  
BRANCH  19  20
HETATM   20  C   UNL     1      -9.113  15.418  69.436  1.00  0.00    -0.258 C  
BRANCH  20  21
HETATM   21  C   UNL     1      -8.346  16.597  68.879  1.00  0.00    -0.230 C  
HETATM   22  O   UNL     1      -7.188  16.854  69.200  1.00  0.00    -0.232 OA 
BRANCH  21  23
HETATM   23  C   UNL     1      -9.053  17.500  67.931  1.00  0.00    -0.261 A  
HETATM   24  C   UNL     1      -9.483  18.745  68.409  1.00  0.00    -0.391 A  
HETATM   25  C   UNL     1     -10.176  19.615  67.568  1.00  0.00    -0.562 A  
HETATM   26  C   UNL     1     -10.423  19.244  66.252  1.00  0.00    -0.478 A  
HETATM   27  C   UNL     1      -9.989  18.018  65.760  1.00  0.00     0.039 A  
HETATM   28  F   UNL     1     -11.089  20.079  65.445  1.00  0.00    -0.502 F  
HETATM   29  C   UNL     1      -9.301  17.138  66.600  1.00  0.00    -0.277 A  
ENDBRANCH  21  23
ENDBRANCH  20  21
ENDBRANCH  19  20
ENDBRANCH  18  19
ENDBRANCH  15  18
ENDBRANCH  11  12
TORSDOF 6
ENDMDL
MODEL      178
REMARK 921   NORMALIZED FREE ENERGY PREDICTED BY IDOCK:   -4.54 KCAL/MOL
REMARK 922        TOTAL FREE ENERGY PREDICTED BY IDOCK:   -7.44 KCAL/MOL
REMARK 923 INTER-LIGAND FREE ENERGY PREDICTED BY IDOCK:   -6.46 KCAL/MOL
REMARK 924 INTRA-LIGAND FREE ENERGY PREDICTED BY IDOCK:   -0.98 KCAL/MOL
REMARK 927      BINDING AFFINITY PREDICTED BY RF-SCORE:    0.00 PKD
ROOT
HETATM    1  O   UNL     1      -9.976   5.456  69.840  1.00  0.00    -0.183 OA 
HETATM    2  C   UNL     1     -10.667   6.466  70.316  1.00  0.00    -0.266 A  
HETATM    3  H   UNL     1      -9.229   5.581  69.266  1.00  0.00     0.000 HD 
HETATM    4  N   UNL     1     -11.691   6.295  71.104  1.00  0.00    -0.287 NA 
HETATM    5  C   UNL     1     -12.157   7.565  71.332  1.00  0.00    -0.327 A  
HETATM    6  C   UNL     1     -13.281   7.972  72.063  1.00  0.00    -0.279 A  
HETATM    7  C   UNL     1     -13.568   9.339  72.150  1.00  0.00    -0.536 A  
HETATM    8  C   UNL     1     -12.738  10.282  71.547  1.00  0.00    -0.557 A  
HETATM    9  C   UNL     1     -11.608   9.898  70.818  1.00  0.00    -0.430 A  
HETATM   10  C   UNL     1     -11.362   8.525  70.700  1.00  0.00    -0.241 A  
HETATM   11  N   UNL     1     -10.449   7.779  69.996  1.00  0.00    -0.225 NA 
ENDROOT
BRANCH  11  12
HETATM   12  C   UNL     1      -9.557   8.202  68.939  1.00  0.00    -0.153 C  
HETATM   13  C   UNL     1      -8.454   9.162  69.374  1.00  0.00    -0.130 C  
HETATM   14  C   UNL     1      -7.464   9.266  68.213  1.00  0.00    -0.079 C  
HETATM   15  N   UNL     1      -8.080   9.721  66.953  1.00  0.00    -0.113 NA 
HETATM   16  C   UNL     1      -9.244   8.904  66.577  1.00  0.00    -0.183 C  
HETATM   17  C   UNL     1     -10.268   8.755  67.699  1.00  0.00    -0.298 C  
BRANCH  15  18
HETATM   18  C   UNL     1      -8.388  11.158  66.932  1.00  0.00    -0.147 C  
BRANCH  18  19
HETATM   19  C   UNL     1      -7.142  12.031  66.753  1.00  0.00     0.041 C  
BRANCH  19  20
HETATM   20  C   UNL     1      -6.732  12.720  68.055  1.00  0.00    -0.100 C  
BRANCH  20  21
HETATM   21  C   UNL     1      -6.518  14.204  67.857  1.00  0.00    -0.165 C  
HETATM   22  O   UNL     1      -5.431  14.752  68.027  1.00  0.00    -0.122 OA 
BRANCH  21  23
HETATM   23  C   UNL     1      -7.694  15.031  67.477  1.00  0.00    -0.208 A  
HETATM   24  C   UNL     1      -7.488  16.095  66.589  1.00  0.00    -0.200 A  
HETATM   25  C   UNL     1      -8.553  16.918  66.225  1.00  0.00    -0.319 A  
HETATM   26  C   UNL     1      -9.820  16.666  66.738  1.00  0.00    -0.273 A  
HETATM   27  C   UNL     1     -10.041  15.605  67.608  1.00  0.00    -0.248 A  
HETATM   28  F   UNL     1     -10.841  17.457  66.390  1.00  0.00    -0.258 F  
HETATM   29  C   UNL     1      -8.977  14.781  67.983  1.00  0.00    -0.174 A  
ENDBRANCH  21  23
ENDBRANCH  20  21
ENDBRANCH  19  20
ENDBRANCH  18  19
ENDBRANCH  15  18
ENDBRANCH  11  12
TORSDOF 6
ENDMDL
MODEL      179
REMARK 921   NORMALIZED FREE ENERGY PREDICTED BY IDOCK:   -4.51 KCAL/MOL
REMARK 922        TOTAL FREE ENERGY PREDICTED BY IDOCK:   -7.40 KCAL/MOL
REMARK 923 INTER-LIGAND FREE ENERGY PREDICTED BY IDOCK:   -6.92 KCAL/MOL
REMARK 924 INTRA-LIGAND FREE ENERGY PREDICTED BY IDOCK:   -0.48 KCAL/MOL
REMARK 927      BINDING AFFINITY PREDICTED BY RF-SCORE:    0.00 PKD
ROOT
HETATM    1  O   UNL     1      -9.604   9.755  63.115  1.00  0.00    -0.527 OA 
HETATM    2  C   UNL     1     -10.212  10.670  63.836  1.00  0.00    -0.236 A  
HETATM    3  H   UNL     1      -9.297   8.939  63.491  1.00  0.00     0.000 HD 
HETATM    4  N   UNL     1     -10.634  11.790  63.322  1.00  0.00    -0.388 NA 
HETATM    5  C   UNL     1     -11.156  12.476  64.389  1.00  0.00    -0.339 A  
HETATM    6  C   UNL     1     -11.694  13.769  64.426  1.00  0.00    -0.436 A  
HETATM    7  C   UNL     1     -12.161  14.268  65.648  1.00  0.00    -0.399 A  
HETATM    8  C   UNL     1     -12.118  13.488  66.801  1.00  0.00    -0.425 A  
HETATM    9  C   UNL     1     -11.590  12.193  66.785  1.00  0.00    -0.412 A  
HETATM   10  C   UNL     1     -11.084  11.726  65.566  1.00  0.00    -0.280 A  
HETATM   11  N   UNL     1     -10.408  10.592  65.189  1.00  0.00    -0.289 NA 
ENDROOT
BRANCH  11  12
HETATM   12  C   UNL     1      -9.792   9.585  66.025  1.00  0.00    -0.283 C  
HETATM   13  C   UNL     1     -10.608   9.177  67.247  1.00  0.00    -0.303 C  
HETATM   14  C   UNL     1      -9.947   7.928  67.834  1.00  0.00    -0.178 C  
HETATM   15  N   UNL     1      -8.532   8.128  68.199  1.00  0.00    -0.126 NA 
HETATM   16  C   UNL     1      -7.741   8.664  67.081  1.00  0.00    -0.096 C  
HETATM   17  C   UNL     1      -8.354   9.909  66.445  1.00  0.00    -0.125 C  
BRANCH  15  18
HETATM   18  C   UNL     1      -8.345   8.911  69.429  1.00  0.00    -0.112 C  
BRANCH  18  19
HETATM   19  C   UNL     1      -8.697   8.123  70.694  1.00  0.00    -0.136 C  
BRANCH  19  20
HETATM   20  C   UNL     1      -7.821   8.525  71.882  1.00  0.00    -0.157 C  
BRANCH  20  21
HETATM   21  C   UNL     1      -8.297   7.885  73.167  1.00  0.00    -0.179 C  
HETATM   22  O   UNL     1      -8.013   8.324  74.279  1.00  0.00    -0.235 OA 
BRANCH  21  23
HETATM   23  C   UNL     1      -9.114   6.646  73.065  1.00  0.00    -0.140 A  
HETATM   24  C   UNL     1     -10.509   6.774  73.121  1.00  0.00    -0.296 A  
HETATM   25  C   UNL     1     -11.317   5.639  73.059  1.00  0.00    -0.288 A  
HETATM   26  C   UNL     1     -10.731   4.387  72.927  1.00  0.00    -0.186 A  
HETATM   27  C   UNL     1      -9.350   4.247  72.856  1.00  0.00    -0.136 A  
HETATM   28  F   UNL     1     -11.508   3.298  72.870  1.00  0.00    -0.094 F  
HETATM   29  C   UNL     1      -8.533   5.378  72.925  1.00  0.00    -0.119 A  
ENDBRANCH  21  23
ENDBRANCH  20  21
ENDBRANCH  19  20
ENDBRANCH  18  19
ENDBRANCH  15  18
ENDBRANCH  11  12
TORSDOF 6
ENDMDL
MODEL      180
REMARK 921   NORMALIZED FREE ENERGY PREDICTED BY IDOCK:   -4.48 KCAL/MOL
REMARK 922        TOTAL FREE ENERGY PREDICTED BY IDOCK:   -7.36 KCAL/MOL
REMARK 923 INTER-LIGAND FREE ENERGY PREDICTED BY IDOCK:   -6.73 KCAL/MOL
REMARK 924 INTRA-LIGAND FREE ENERGY PREDICTED BY IDOCK:   -0.62 KCAL/MOL
REMARK 927      BINDING AFFINITY PREDICTED BY RF-SCORE:    0.00 PKD
ROOT
HETATM    1  O   UNL     1      -7.252   7.595  70.448  1.00  0.00    -0.061 OA 
HETATM    2  C   UNL     1      -7.958   6.937  69.557  1.00  0.00    -0.125 A  
HETATM    3  H   UNL     1      -7.311   8.539  70.541  1.00  0.00     0.000 HD 
HETATM    4  N   UNL     1      -7.879   5.642  69.429  1.00  0.00    -0.087 NA 
HETATM    5  C   UNL     1      -8.715   5.355  68.381  1.00  0.00    -0.098 A  
HETATM    6  C   UNL     1      -8.969   4.120  67.769  1.00  0.00    -0.142 A  
HETATM    7  C   UNL     1      -9.865   4.073  66.695  1.00  0.00    -0.169 A  
HETATM    8  C   UNL     1     -10.516   5.224  66.257  1.00  0.00    -0.311 A  
HETATM    9  C   UNL     1     -10.282   6.466  66.856  1.00  0.00    -0.277 A  
HETATM   10  C   UNL     1      -9.347   6.505  67.898  1.00  0.00    -0.111 A  
HETATM   11  N   UNL     1      -8.785   7.518  68.633  1.00  0.00    -0.129 NA 
ENDROOT
BRANCH  11  12
HETATM   12  C   UNL     1      -8.830   8.944  68.394  1.00  0.00    -0.134 C  
HETATM   13  C   UNL     1     -10.213   9.575  68.530  1.00  0.00    -0.223 C  
HETATM   14  C   UNL     1     -10.018  11.092  68.527  1.00  0.00    -0.199 C  
HETATM   15  N   UNL     1      -9.336  11.595  67.320  1.00  0.00    -0.167 NA 
HETATM   16  C   UNL     1      -8.062  10.902  67.074  1.00  0.00    -0.131 C  
HETATM   17  C   UNL     1      -8.188   9.381  67.073  1.00  0.00    -0.116 C  
BRANCH  15  18
HETATM   18  C   UNL     1     -10.190  11.616  66.125  1.00  0.00    -0.226 C  
BRANCH  18  19
HETATM   19  C   UNL     1     -11.628  12.047  66.429  1.00  0.00    -0.381 C  
BRANCH  19  20
HETATM   20  C   UNL     1     -11.961  13.407  65.813  1.00  0.00    -0.447 C  
BRANCH  20  21
HETATM   21  C   UNL     1     -10.994  14.477  66.268  1.00  0.00    -0.323 C  
HETATM   22  O   UNL     1     -10.086  14.904  65.559  1.00  0.00    -0.328 OA 
BRANCH  21  23
HETATM   23  C   UNL     1     -11.136  14.998  67.654  1.00  0.00    -0.317 A  
HETATM   24  C   UNL     1     -11.896  14.246  68.561  1.00  0.00    -0.382 A  
HETATM   25  C   UNL     1     -12.085  14.706  69.864  1.00  0.00    -0.385 A  
HETATM   26  C   UNL     1     -11.503  15.904  70.259  1.00  0.00    -0.366 A  
HETATM   27  C   UNL     1     -10.735  16.652  69.374  1.00  0.00    -0.331 A  
HETATM   28  F   UNL     1     -11.686  16.346  71.509  1.00  0.00    -0.462 F  
HETATM   29  C   UNL     1     -10.548  16.201  68.065  1.00  0.00    -0.304 A  
ENDBRANCH  21  23
ENDBRANCH  20  21
ENDBRANCH  19  20
ENDBRANCH  18  19
ENDBRANCH  15  18
ENDBRANCH  11  12
TORSDOF 6
ENDMDL
MODEL      181
REMARK 921   NORMALIZED FREE ENERGY PREDICTED BY IDOCK:   -4.48 KCAL/MOL
REMARK 922        TOTAL FREE ENERGY PREDICTED BY IDOCK:   -7.35 KCAL/MOL
REMARK 923 INTER-LIGAND FREE ENERGY PREDICTED BY IDOCK:   -6.51 KCAL/MOL
REMARK 924 INTRA-LIGAND FREE ENERGY PREDICTED BY IDOCK:   -0.85 KCAL/MOL
REMARK 927      BINDING AFFINITY PREDICTED BY RF-SCORE:    0.00 PKD
ROOT
HETATM    1  O   UNL     1      -8.071   5.382  70.390  1.00  0.00    -0.097 OA 
HETATM    2  C   UNL     1      -8.442   4.902  69.224  1.00  0.00    -0.087 A  
HETATM    3  H   UNL     1      -8.210   6.291  70.629  1.00  0.00     0.000 HD 
HETATM    4  N   UNL     1      -8.251   3.656  68.896  1.00  0.00    -0.064 NA 
HETATM    5  C   UNL     1      -8.722   3.570  67.611  1.00  0.00    -0.109 A  
HETATM    6  C   UNL     1      -8.709   2.472  66.740  1.00  0.00    -0.133 A  
HETATM    7  C   UNL     1      -9.243   2.626  65.455  1.00  0.00    -0.099 A  
HETATM    8  C   UNL     1      -9.802   3.838  65.056  1.00  0.00    -0.175 A  
HETATM    9  C   UNL     1      -9.831   4.944  65.911  1.00  0.00    -0.208 A  
HETATM   10  C   UNL     1      -9.250   4.788  67.174  1.00  0.00    -0.127 A  
HETATM   11  N   UNL     1      -8.991   5.646  68.215  1.00  0.00    -0.114 NA 
ENDROOT
BRANCH  11  12
HETATM   12  C   UNL     1      -9.049   7.091  68.233  1.00  0.00    -0.126 C  
HETATM   13  C   UNL     1     -10.430   7.682  67.968  1.00  0.00    -0.247 C  
HETATM   14  C   UNL     1     -10.354   9.173  68.306  1.00  0.00    -0.214 C  
HETATM   15  N   UNL     1      -9.324   9.898  67.539  1.00  0.00    -0.140 NA 
HETATM   16  C   UNL     1      -8.001   9.267  67.654  1.00  0.00    -0.103 C  
HETATM   17  C   UNL     1      -8.010   7.773  67.336  1.00  0.00    -0.119 C  
BRANCH  15  18
HETATM   18  C   UNL     1      -9.696  10.146  66.139  1.00  0.00    -0.218 C  
BRANCH  18  19
HETATM   19  C   UNL     1     -10.082  11.604  65.876  1.00  0.00    -0.267 C  
BRANCH  19  20
HETATM   20  C   UNL     1     -11.519  11.903  66.303  1.00  0.00    -0.367 C  
BRANCH  20  21
HETATM   21  C   UNL     1     -12.030  13.185  65.683  1.00  0.00    -0.415 C  
HETATM   22  O   UNL     1     -12.805  13.206  64.730  1.00  0.00    -0.701 OA 
BRANCH  21  23
HETATM   23  C   UNL     1     -11.530  14.472  66.238  1.00  0.00    -0.358 A  
HETATM   24  C   UNL     1     -10.866  15.347  65.368  1.00  0.00    -0.403 A  
HETATM   25  C   UNL     1     -10.353  16.552  65.847  1.00  0.00    -0.365 A  
HETATM   26  C   UNL     1     -10.518  16.884  67.186  1.00  0.00    -0.296 A  
HETATM   27  C   UNL     1     -11.188  16.032  68.056  1.00  0.00    -0.303 A  
HETATM   28  F   UNL     1     -10.024  18.040  67.645  1.00  0.00    -0.286 F  
HETATM   29  C   UNL     1     -11.697  14.819  67.586  1.00  0.00    -0.364 A  
ENDBRANCH  21  23
ENDBRANCH  20  21
ENDBRANCH  19  20
ENDBRANCH  18  19
ENDBRANCH  15  18
ENDBRANCH  11  12
TORSDOF 6
ENDMDL
MODEL      182
REMARK 921   NORMALIZED FREE ENERGY PREDICTED BY IDOCK:   -4.48 KCAL/MOL
REMARK 922        TOTAL FREE ENERGY PREDICTED BY IDOCK:   -7.35 KCAL/MOL
REMARK 923 INTER-LIGAND FREE ENERGY PREDICTED BY IDOCK:   -6.94 KCAL/MOL
REMARK 924 INTRA-LIGAND FREE ENERGY PREDICTED BY IDOCK:   -0.41 KCAL/MOL
REMARK 927      BINDING AFFINITY PREDICTED BY RF-SCORE:    0.00 PKD
ROOT
HETATM    1  O   UNL     1      -8.684   9.465  69.605  1.00  0.00    -0.140 OA 
HETATM    2  C   UNL     1      -8.191   8.253  69.490  1.00  0.00    -0.119 A  
HETATM    3  H   UNL     1      -9.401   9.664  70.196  1.00  0.00     0.000 HD 
HETATM    4  N   UNL     1      -7.207   7.979  68.680  1.00  0.00    -0.079 NA 
HETATM    5  C   UNL     1      -7.027   6.626  68.815  1.00  0.00    -0.080 A  
HETATM    6  C   UNL     1      -6.140   5.784  68.132  1.00  0.00    -0.018 A  
HETATM    7  C   UNL     1      -6.141   4.417  68.434  1.00  0.00    -0.031 A  
HETATM    8  C   UNL     1      -6.987   3.904  69.415  1.00  0.00    -0.046 A  
HETATM    9  C   UNL     1      -7.877   4.728  70.113  1.00  0.00    -0.058 A  
HETATM   10  C   UNL     1      -7.896   6.083  69.765  1.00  0.00    -0.101 A  
HETATM   11  N   UNL     1      -8.682   7.148  70.133  1.00  0.00    -0.140 NA 
ENDROOT
BRANCH  11  12
HETATM   12  C   UNL     1      -9.929   7.143  70.865  1.00  0.00    -0.189 C  
HETATM   13  C   UNL     1     -11.132   7.672  70.089  1.00  0.00    -0.229 C  
HETATM   14  C   UNL     1     -12.380   7.327  70.903  1.00  0.00    -0.248 C  
HETATM   15  N   UNL     1     -12.362   7.879  72.270  1.00  0.00    -0.287 NA 
HETATM   16  C   UNL     1     -11.141   7.510  73.002  1.00  0.00    -0.362 C  
HETATM   17  C   UNL     1      -9.857   7.822  72.237  1.00  0.00    -0.248 C  
BRANCH  15  18
HETATM   18  C   UNL     1     -12.620   9.325  72.326  1.00  0.00    -0.332 C  
BRANCH  18  19
HETATM   19  C   UNL     1     -12.981   9.918  70.961  1.00  0.00    -0.412 C  
BRANCH  19  20
HETATM   20  C   UNL     1     -12.383  11.311  70.764  1.00  0.00    -0.495 C  
BRANCH  20  21
HETATM   21  C   UNL     1     -12.130  11.608  69.303  1.00  0.00    -0.259 C  
HETATM   22  O   UNL     1     -12.110  10.737  68.436  1.00  0.00    -0.501 OA 
BRANCH  21  23
HETATM   23  C   UNL     1     -11.854  13.018  68.918  1.00  0.00    -0.358 A  
HETATM   24  C   UNL     1     -11.925  13.996  69.920  1.00  0.00    -0.399 A  
HETATM   25  C   UNL     1     -11.704  15.336  69.604  1.00  0.00    -0.355 A  
HETATM   26  C   UNL     1     -11.399  15.692  68.296  1.00  0.00    -0.356 A  
HETATM   27  C   UNL     1     -11.310  14.730  67.296  1.00  0.00    -0.366 A  
HETATM   28  F   UNL     1     -11.189  16.978  67.994  1.00  0.00    -0.355 F  
HETATM   29  C   UNL     1     -11.539  13.386  67.603  1.00  0.00    -0.377 A  
ENDBRANCH  21  23
ENDBRANCH  20  21
ENDBRANCH  19  20
ENDBRANCH  18  19
ENDBRANCH  15  18
ENDBRANCH  11  12
TORSDOF 6
ENDMDL
MODEL      183
REMARK 921   NORMALIZED FREE ENERGY PREDICTED BY IDOCK:   -4.46 KCAL/MOL
REMARK 922        TOTAL FREE ENERGY PREDICTED BY IDOCK:   -7.34 KCAL/MOL
REMARK 923 INTER-LIGAND FREE ENERGY PREDICTED BY IDOCK:   -7.10 KCAL/MOL
REMARK 924 INTRA-LIGAND FREE ENERGY PREDICTED BY IDOCK:   -0.24 KCAL/MOL
REMARK 927      BINDING AFFINITY PREDICTED BY RF-SCORE:    0.00 PKD
ROOT
HETATM    1  O   UNL     1      -6.326  10.552  66.200  1.00  0.00    -0.098 OA 
HETATM    2  C   UNL     1      -6.796   9.725  67.107  1.00  0.00    -0.083 A  
HETATM    3  H   UNL     1      -6.896  11.076  65.652  1.00  0.00     0.000 HD 
HETATM    4  N   UNL     1      -6.013   9.005  67.860  1.00  0.00    -0.049 NA 
HETATM    5  C   UNL     1      -6.874   8.256  68.622  1.00  0.00    -0.063 A  
HETATM    6  C   UNL     1      -6.578   7.261  69.563  1.00  0.00    -0.040 A  
HETATM    7  C   UNL     1      -7.636   6.618  70.217  1.00  0.00    -0.096 A  
HETATM    8  C   UNL     1      -8.957   6.976  69.959  1.00  0.00    -0.142 A  
HETATM    9  C   UNL     1      -9.274   7.970  69.027  1.00  0.00    -0.148 A  
HETATM   10  C   UNL     1      -8.208   8.570  68.348  1.00  0.00    -0.123 A  
HETATM   11  N   UNL     1      -8.125   9.473  67.317  1.00  0.00    -0.109 NA 
ENDROOT
BRANCH  11  12
HETATM   12  C   UNL     1      -9.171   9.935  66.431  1.00  0.00    -0.158 C  
HETATM   13  C   UNL     1      -8.739  10.150  64.984  1.00  0.00    -0.190 C  
HETATM   14  C   UNL     1     -10.012  10.354  64.160  1.00  0.00    -0.267 C  
HETATM   15  N   UNL     1     -10.841  11.480  64.626  1.00  0.00    -0.317 NA 
HETATM   16  C   UNL     1     -11.155  11.382  66.060  1.00  0.00    -0.173 C  
HETATM   17  C   UNL     1      -9.924  11.169  66.938  1.00  0.00    -0.230 C  
BRANCH  15  18
HETATM   18  C   UNL     1     -10.298  12.799  64.272  1.00  0.00    -0.377 C  
BRANCH  18  19
HETATM   19  C   UNL     1     -11.347  13.913  64.342  1.00  0.00    -0.352 C  
BRANCH  19  20
HETATM   20  C   UNL     1     -11.141  14.818  65.557  1.00  0.00    -0.346 C  
BRANCH  20  21
HETATM   21  C   UNL     1     -10.964  16.265  65.150  1.00  0.00    -0.274 C  
HETATM   22  O   UNL     1     -11.264  16.688  64.036  1.00  0.00    -1.052 OA 
BRANCH  21  23
HETATM   23  C   UNL     1     -10.361  17.196  66.141  1.00  0.00    -0.327 A  
HETATM   24  C   UNL     1      -9.771  16.642  67.286  1.00  0.00    -0.245 A  
HETATM   25  C   UNL     1      -9.218  17.474  68.259  1.00  0.00    -0.277 A  
HETATM   26  C   UNL     1      -9.245  18.851  68.079  1.00  0.00    -0.307 A  
HETATM   27  C   UNL     1      -9.815  19.413  66.942  1.00  0.00    -0.447 A  
HETATM   28  F   UNL     1      -8.717  19.649  69.014  1.00  0.00    -0.386 F  
HETATM   29  C   UNL     1     -10.377  18.586  65.966  1.00  0.00    -0.423 A  
ENDBRANCH  21  23
ENDBRANCH  20  21
ENDBRANCH  19  20
ENDBRANCH  18  19
ENDBRANCH  15  18
ENDBRANCH  11  12
TORSDOF 6
ENDMDL
MODEL      184
REMARK 921   NORMALIZED FREE ENERGY PREDICTED BY IDOCK:   -4.42 KCAL/MOL
REMARK 922        TOTAL FREE ENERGY PREDICTED BY IDOCK:   -7.28 KCAL/MOL
REMARK 923 INTER-LIGAND FREE ENERGY PREDICTED BY IDOCK:   -5.34 KCAL/MOL
REMARK 924 INTRA-LIGAND FREE ENERGY PREDICTED BY IDOCK:   -1.94 KCAL/MOL
REMARK 927      BINDING AFFINITY PREDICTED BY RF-SCORE:    0.00 PKD
ROOT
HETATM    1  O   UNL     1      -7.928   9.585  65.481  1.00  0.00    -0.108 OA 
HETATM    2  C   UNL     1      -8.296   8.359  65.777  1.00  0.00    -0.146 A  
HETATM    3  H   UNL     1      -8.001  10.298  66.104  1.00  0.00     0.000 HD 
HETATM    4  N   UNL     1      -8.196   7.380  64.923  1.00  0.00    -0.113 NA 
HETATM    5  C   UNL     1      -8.720   6.299  65.586  1.00  0.00    -0.114 A  
HETATM    6  C   UNL     1      -8.920   4.993  65.120  1.00  0.00    -0.143 A  
HETATM    7  C   UNL     1      -9.487   4.050  65.985  1.00  0.00    -0.186 A  
HETATM    8  C   UNL     1      -9.821   4.391  67.293  1.00  0.00    -0.207 A  
HETATM    9  C   UNL     1      -9.624   5.688  67.781  1.00  0.00    -0.128 A  
HETATM   10  C   UNL     1      -9.101   6.631  66.889  1.00  0.00    -0.136 A  
HETATM   11  N   UNL     1      -8.878   7.984  66.958  1.00  0.00    -0.130 NA 
ENDROOT
BRANCH  11  12
HETATM   12  C   UNL     1      -9.343   8.929  67.950  1.00  0.00    -0.141 C  
HETATM   13  C   UNL     1      -9.161   8.482  69.398  1.00  0.00    -0.153 C  
HETATM   14  C   UNL     1      -9.436   9.700  70.283  1.00  0.00    -0.248 C  
HETATM   15  N   UNL     1     -10.776  10.281  70.084  1.00  0.00    -0.289 NA 
HETATM   16  C   UNL     1     -11.043  10.589  68.671  1.00  0.00    -0.267 C  
HETATM   17  C   UNL     1     -10.780   9.415  67.732  1.00  0.00    -0.290 C  
BRANCH  15  18
HETATM   18  C   UNL     1     -11.858   9.490  70.688  1.00  0.00    -0.233 C  
BRANCH  18  19
HETATM   19  C   UNL     1     -11.483   8.917  72.057  1.00  0.00    -0.431 C  
BRANCH  19  20
HETATM   20  C   UNL     1     -11.771   7.418  72.150  1.00  0.00    -0.328 C  
BRANCH  20  21
HETATM   21  C   UNL     1     -10.673   6.684  72.887  1.00  0.00    -0.255 C  
HETATM   22  O   UNL     1     -10.436   6.858  74.080  1.00  0.00    -0.374 OA 
BRANCH  21  23
HETATM   23  C   UNL     1      -9.826   5.741  72.109  1.00  0.00    -0.181 A  
HETATM   24  C   UNL     1     -10.406   4.538  71.682  1.00  0.00    -0.160 A  
HETATM   25  C   UNL     1      -9.645   3.608  70.975  1.00  0.00    -0.246 A  
HETATM   26  C   UNL     1      -8.315   3.887  70.687  1.00  0.00    -0.069 A  
HETATM   27  C   UNL     1      -7.731   5.083  71.092  1.00  0.00    -0.091 A  
HETATM   28  F   UNL     1      -7.584   2.994  70.011  1.00  0.00    -0.043 F  
HETATM   29  C   UNL     1      -8.485   6.016  71.807  1.00  0.00    -0.127 A  
ENDBRANCH  21  23
ENDBRANCH  20  21
ENDBRANCH  19  20
ENDBRANCH  18  19
ENDBRANCH  15  18
ENDBRANCH  11  12
TORSDOF 6
ENDMDL
MODEL      185
REMARK 921   NORMALIZED FREE ENERGY PREDICTED BY IDOCK:   -4.40 KCAL/MOL
REMARK 922        TOTAL FREE ENERGY PREDICTED BY IDOCK:   -7.25 KCAL/MOL
REMARK 923 INTER-LIGAND FREE ENERGY PREDICTED BY IDOCK:   -7.42 KCAL/MOL
REMARK 924 INTRA-LIGAND FREE ENERGY PREDICTED BY IDOCK:    0.17 KCAL/MOL
REMARK 927      BINDING AFFINITY PREDICTED BY RF-SCORE:    0.00 PKD
ROOT
HETATM    1  O   UNL     1     -11.069  12.209  69.455  1.00  0.00    -0.426 OA 
HETATM    2  C   UNL     1     -11.169  12.183  68.145  1.00  0.00    -0.267 A  
HETATM    3  H   UNL     1     -10.566  11.562  69.936  1.00  0.00     0.000 HD 
HETATM    4  N   UNL     1     -11.858  13.071  67.485  1.00  0.00    -0.366 NA 
HETATM    5  C   UNL     1     -11.755  12.672  66.177  1.00  0.00    -0.406 A  
HETATM    6  C   UNL     1     -12.353  13.227  65.038  1.00  0.00    -0.499 A  
HETATM    7  C   UNL     1     -12.107  12.636  63.793  1.00  0.00    -0.604 A  
HETATM    8  C   UNL     1     -11.262  11.535  63.680  1.00  0.00    -0.451 A  
HETATM    9  C   UNL     1     -10.650  10.968  64.803  1.00  0.00    -0.350 A  
HETATM   10  C   UNL     1     -10.944  11.541  66.046  1.00  0.00    -0.259 A  
HETATM   11  N   UNL     1     -10.637  11.210  67.343  1.00  0.00    -0.220 NA 
ENDROOT
BRANCH  11  12
HETATM   12  C   UNL     1     -10.069   9.981  67.853  1.00  0.00    -0.169 C  
HETATM   13  C   UNL     1     -10.556   8.712  67.160  1.00  0.00    -0.304 C  
HETATM   14  C   UNL     1      -9.652   7.569  67.627  1.00  0.00    -0.143 C  
HETATM   15  N   UNL     1      -9.640   7.389  69.091  1.00  0.00    -0.156 NA 
HETATM   16  C   UNL     1      -9.318   8.636  69.801  1.00  0.00    -0.165 C  
HETATM   17  C   UNL     1     -10.181   9.820  69.373  1.00  0.00    -0.223 C  
BRANCH  15  18
HETATM   18  C   UNL     1     -10.858   6.756  69.617  1.00  0.00    -0.271 C  
BRANCH  18  19
HETATM   19  C   UNL     1     -11.349   7.401  70.916  1.00  0.00    -0.300 C  
BRANCH  19  20
HETATM   20  C   UNL     1     -11.536   6.372  72.032  1.00  0.00    -0.350 C  
BRANCH  20  21
HETATM   21  C   UNL     1     -10.243   5.654  72.351  1.00  0.00    -0.193 C  
HETATM   22  O   UNL     1     -10.105   4.439  72.228  1.00  0.00    -0.177 OA 
BRANCH  21  23
HETATM   23  C   UNL     1      -9.110   6.463  72.873  1.00  0.00    -0.132 A  
HETATM   24  C   UNL     1      -7.829   6.200  72.367  1.00  0.00    -0.104 A  
HETATM   25  C   UNL     1      -6.729   6.911  72.845  1.00  0.00    -0.069 A  
HETATM   26  C   UNL     1      -6.914   7.889  73.814  1.00  0.00    -0.113 A  
HETATM   27  C   UNL     1      -8.181   8.171  74.314  1.00  0.00    -0.290 A  
HETATM   28  F   UNL     1      -5.858   8.570  74.274  1.00  0.00    -0.092 F  
HETATM   29  C   UNL     1      -9.286   7.457  73.845  1.00  0.00    -0.318 A  
ENDBRANCH  21  23
ENDBRANCH  20  21
ENDBRANCH  19  20
ENDBRANCH  18  19
ENDBRANCH  15  18
ENDBRANCH  11  12
TORSDOF 6
ENDMDL
MODEL      186
REMARK 921   NORMALIZED FREE ENERGY PREDICTED BY IDOCK:   -4.36 KCAL/MOL
REMARK 922        TOTAL FREE ENERGY PREDICTED BY IDOCK:   -7.19 KCAL/MOL
REMARK 923 INTER-LIGAND FREE ENERGY PREDICTED BY IDOCK:   -6.46 KCAL/MOL
REMARK 924 INTRA-LIGAND FREE ENERGY PREDICTED BY IDOCK:   -0.73 KCAL/MOL
REMARK 927      BINDING AFFINITY PREDICTED BY RF-SCORE:    0.00 PKD
ROOT
HETATM    1  O   UNL     1     -10.454   5.331  69.926  1.00  0.00    -0.297 OA 
HETATM    2  C   UNL     1      -9.937   5.054  68.751  1.00  0.00    -0.155 A  
HETATM    3  H   UNL     1     -10.688   6.217  70.179  1.00  0.00     0.000 HD 
HETATM    4  N   UNL     1      -9.616   3.839  68.405  1.00  0.00    -0.142 NA 
HETATM    5  C   UNL     1      -9.075   3.978  67.152  1.00  0.00    -0.150 A  
HETATM    6  C   UNL     1      -8.505   3.000  66.326  1.00  0.00    -0.107 A  
HETATM    7  C   UNL     1      -8.001   3.384  65.077  1.00  0.00    -0.086 A  
HETATM    8  C   UNL     1      -8.089   4.706  64.648  1.00  0.00    -0.104 A  
HETATM    9  C   UNL     1      -8.660   5.698  65.454  1.00  0.00    -0.150 A  
HETATM   10  C   UNL     1      -9.115   5.306  66.719  1.00  0.00    -0.118 A  
HETATM   11  N   UNL     1      -9.614   5.986  67.802  1.00  0.00    -0.112 NA 
ENDROOT
BRANCH  11  12
HETATM   12  C   UNL     1      -9.618   7.411  68.054  1.00  0.00    -0.141 C  
HETATM   13  C   UNL     1     -10.699   8.192  67.314  1.00  0.00    -0.263 C  
HETATM   14  C   UNL     1     -10.729   9.599  67.914  1.00  0.00    -0.247 C  
HETATM   15  N   UNL     1      -9.435  10.301  67.832  1.00  0.00    -0.141 NA 
HETATM   16  C   UNL     1      -8.337   9.509  68.408  1.00  0.00    -0.118 C  
HETATM   17  C   UNL     1      -8.258   8.089  67.855  1.00  0.00    -0.129 C  
BRANCH  15  18
HETATM   18  C   UNL     1      -9.112  10.790  66.484  1.00  0.00    -0.165 C  
BRANCH  18  19
HETATM   19  C   UNL     1      -9.618  12.213  66.231  1.00  0.00    -0.246 C  
BRANCH  19  20
HETATM   20  C   UNL     1     -11.144  12.273  66.149  1.00  0.00    -0.349 C  
BRANCH  20  21
HETATM   21  C   UNL     1     -11.666  13.651  66.490  1.00  0.00    -0.382 C  
HETATM   22  O   UNL     1     -11.981  14.478  65.638  1.00  0.00    -0.359 OA 
BRANCH  21  23
HETATM   23  C   UNL     1     -11.758  14.022  67.928  1.00  0.00    -0.397 A  
HETATM   24  C   UNL     1     -11.577  15.370  68.270  1.00  0.00    -0.361 A  
HETATM   25  C   UNL     1     -11.624  15.764  69.606  1.00  0.00    -0.363 A  
HETATM   26  C   UNL     1     -11.866  14.815  70.592  1.00  0.00    -0.305 A  
HETATM   27  C   UNL     1     -12.063  13.478  70.266  1.00  0.00    -0.425 A  
HETATM   28  F   UNL     1     -11.910  15.194  71.875  1.00  0.00    -0.349 F  
HETATM   29  C   UNL     1     -12.008  13.075  68.930  1.00  0.00    -0.303 A  
ENDBRANCH  21  23
ENDBRANCH  20  21
ENDBRANCH  19  20
ENDBRANCH  18  19
ENDBRANCH  15  18
ENDBRANCH  11  12
TORSDOF 6
ENDMDL
MODEL      187
REMARK 921   NORMALIZED FREE ENERGY PREDICTED BY IDOCK:   -4.34 KCAL/MOL
REMARK 922        TOTAL FREE ENERGY PREDICTED BY IDOCK:   -7.16 KCAL/MOL
REMARK 923 INTER-LIGAND FREE ENERGY PREDICTED BY IDOCK:   -6.51 KCAL/MOL
REMARK 924 INTRA-LIGAND FREE ENERGY PREDICTED BY IDOCK:   -0.66 KCAL/MOL
REMARK 927      BINDING AFFINITY PREDICTED BY RF-SCORE:    0.00 PKD
ROOT
HETATM    1  O   UNL     1      -7.975   5.603  66.487  1.00  0.00    -0.100 OA 
HETATM    2  C   UNL     1      -8.311   4.961  67.583  1.00  0.00    -0.105 A  
HETATM    3  H   UNL     1      -7.951   6.551  66.445  1.00  0.00     0.000 HD 
HETATM    4  N   UNL     1      -8.344   3.659  67.642  1.00  0.00    -0.092 NA 
HETATM    5  C   UNL     1      -8.779   3.390  68.914  1.00  0.00    -0.095 A  
HETATM    6  C   UNL     1      -9.058   2.151  69.506  1.00  0.00    -0.172 A  
HETATM    7  C   UNL     1      -9.507   2.124  70.831  1.00  0.00    -0.209 A  
HETATM    8  C   UNL     1      -9.648   3.302  71.561  1.00  0.00    -0.234 A  
HETATM    9  C   UNL     1      -9.370   4.549  70.992  1.00  0.00    -0.214 A  
HETATM   10  C   UNL     1      -8.969   4.563  69.651  1.00  0.00    -0.096 A  
HETATM   11  N   UNL     1      -8.723   5.562  68.742  1.00  0.00    -0.102 NA 
ENDROOT
BRANCH  11  12
HETATM   12  C   UNL     1      -9.033   6.971  68.840  1.00  0.00    -0.129 C  
HETATM   13  C   UNL     1      -8.371   7.695  70.009  1.00  0.00    -0.134 C  
HETATM   14  C   UNL     1      -8.577   9.194  69.785  1.00  0.00    -0.142 C  
HETATM   15  N   UNL     1      -9.995   9.583  69.671  1.00  0.00    -0.191 NA 
HETATM   16  C   UNL     1     -10.705   8.798  68.649  1.00  0.00    -0.068 C  
HETATM   17  C   UNL     1     -10.531   7.290  68.812  1.00  0.00    -0.214 C  
BRANCH  15  18
HETATM   18  C   UNL     1     -10.710   9.588  70.955  1.00  0.00    -0.333 C  
BRANCH  18  19
HETATM   19  C   UNL     1     -12.232   9.628  70.787  1.00  0.00    -0.309 C  
BRANCH  19  20
HETATM   20  C   UNL     1     -12.701  10.922  70.121  1.00  0.00    -0.227 C  
BRANCH  20  21
HETATM   21  C   UNL     1     -12.848  12.044  71.124  1.00  0.00    -0.235 C  
HETATM   22  O   UNL     1     -13.432  11.911  72.196  1.00  0.00    -0.458 OA 
BRANCH  21  23
HETATM   23  C   UNL     1     -12.289  13.375  70.763  1.00  0.00    -0.433 A  
HETATM   24  C   UNL     1     -12.346  14.392  71.726  1.00  0.00    -0.390 A  
HETATM   25  C   UNL     1     -11.862  15.665  71.427  1.00  0.00    -0.482 A  
HETATM   26  C   UNL     1     -11.311  15.913  70.176  1.00  0.00    -0.365 A  
HETATM   27  C   UNL     1     -11.235  14.909  69.217  1.00  0.00    -0.300 A  
HETATM   28  F   UNL     1     -10.849  17.135  69.889  1.00  0.00    -0.300 F  
HETATM   29  C   UNL     1     -11.725  13.633  69.506  1.00  0.00    -0.380 A  
ENDBRANCH  21  23
ENDBRANCH  20  21
ENDBRANCH  19  20
ENDBRANCH  18  19
ENDBRANCH  15  18
ENDBRANCH  11  12
TORSDOF 6
ENDMDL
MODEL      188
REMARK 921   NORMALIZED FREE ENERGY PREDICTED BY IDOCK:   -4.33 KCAL/MOL
REMARK 922        TOTAL FREE ENERGY PREDICTED BY IDOCK:   -7.15 KCAL/MOL
REMARK 923 INTER-LIGAND FREE ENERGY PREDICTED BY IDOCK:   -6.93 KCAL/MOL
REMARK 924 INTRA-LIGAND FREE ENERGY PREDICTED BY IDOCK:   -0.22 KCAL/MOL
REMARK 927      BINDING AFFINITY PREDICTED BY RF-SCORE:    0.00 PKD
ROOT
HETATM    1  O   UNL     1      -7.526   5.856  70.214  1.00  0.00    -0.084 OA 
HETATM    2  C   UNL     1      -8.101   5.369  69.137  1.00  0.00    -0.094 A  
HETATM    3  H   UNL     1      -7.615   6.768  70.465  1.00  0.00     0.000 HD 
HETATM    4  N   UNL     1      -7.979   4.119  68.792  1.00  0.00    -0.071 NA 
HETATM    5  C   UNL     1      -8.671   4.026  67.611  1.00  0.00    -0.105 A  
HETATM    6  C   UNL     1      -8.820   2.921  66.763  1.00  0.00    -0.153 A  
HETATM    7  C   UNL     1      -9.573   3.068  65.592  1.00  0.00     0.045 A  
HETATM    8  C   UNL     1     -10.187   4.280  65.286  1.00  0.00    -0.234 A  
HETATM    9  C   UNL     1     -10.056   5.395  66.122  1.00  0.00    -0.173 A  
HETATM   10  C   UNL     1      -9.261   5.244  67.264  1.00  0.00    -0.113 A  
HETATM   11  N   UNL     1      -8.817   6.109  68.234  1.00  0.00    -0.114 NA 
ENDROOT
BRANCH  11  12
HETATM   12  C   UNL     1      -8.861   7.554  68.248  1.00  0.00    -0.125 C  
HETATM   13  C   UNL     1      -9.658   8.161  69.400  1.00  0.00    -0.167 C  
HETATM   14  C   UNL     1      -9.357   9.662  69.413  1.00  0.00    -0.193 C  
HETATM   15  N   UNL     1      -9.683  10.339  68.144  1.00  0.00    -0.142 NA 
HETATM   16  C   UNL     1      -9.047   9.687  66.989  1.00  0.00    -0.135 C  
HETATM   17  C   UNL     1      -9.303   8.183  66.922  1.00  0.00    -0.219 C  
BRANCH  15  18
HETATM   18  C   UNL     1     -11.124  10.541  67.936  1.00  0.00    -0.304 C  
BRANCH  18  19
HETATM   19  C   UNL     1     -11.483  12.003  67.654  1.00  0.00    -0.392 C  
BRANCH  19  20
HETATM   20  C   UNL     1     -10.971  12.941  68.747  1.00  0.00    -0.292 C  
BRANCH  20  21
HETATM   21  C   UNL     1     -11.892  14.125  68.942  1.00  0.00    -0.347 C  
HETATM   22  O   UNL     1     -12.346  14.781  68.008  1.00  0.00    -0.108 OA 
BRANCH  21  23
HETATM   23  C   UNL     1     -12.223  14.525  70.336  1.00  0.00    -0.394 A  
HETATM   24  C   UNL     1     -11.740  15.758  70.796  1.00  0.00    -0.430 A  
HETATM   25  C   UNL     1     -11.997  16.165  72.104  1.00  0.00    -0.623 A  
HETATM   26  C   UNL     1     -12.746  15.348  72.942  1.00  0.00    -0.427 A  
HETATM   27  C   UNL     1     -13.244  14.129  72.494  1.00  0.00    -0.596 A  
HETATM   28  F   UNL     1     -12.991  15.738  74.198  1.00  0.00    -0.587 F  
HETATM   29  C   UNL     1     -12.983  13.711  71.187  1.00  0.00    -0.353 A  
ENDBRANCH  21  23
ENDBRANCH  20  21
ENDBRANCH  19  20
ENDBRANCH  18  19
ENDBRANCH  15  18
ENDBRANCH  11  12
TORSDOF 6
ENDMDL
MODEL      189
REMARK 921   NORMALIZED FREE ENERGY PREDICTED BY IDOCK:   -4.32 KCAL/MOL
REMARK 922        TOTAL FREE ENERGY PREDICTED BY IDOCK:   -7.14 KCAL/MOL
REMARK 923 INTER-LIGAND FREE ENERGY PREDICTED BY IDOCK:   -6.66 KCAL/MOL
REMARK 924 INTRA-LIGAND FREE ENERGY PREDICTED BY IDOCK:   -0.48 KCAL/MOL
REMARK 927      BINDING AFFINITY PREDICTED BY RF-SCORE:    0.00 PKD
ROOT
HETATM    1  O   UNL     1     -10.985  10.738  69.092  1.00  0.00    -0.209 OA 
HETATM    2  C   UNL     1     -11.134  11.450  67.998  1.00  0.00    -0.257 A  
HETATM    3  H   UNL     1     -10.283  10.106  69.191  1.00  0.00     0.000 HD 
HETATM    4  N   UNL     1     -12.098  12.317  67.862  1.00  0.00    -0.434 NA 
HETATM    5  C   UNL     1     -11.937  12.802  66.589  1.00  0.00    -0.341 A  
HETATM    6  C   UNL     1     -12.733  13.718  65.889  1.00  0.00    -0.452 A  
HETATM    7  C   UNL     1     -12.374  14.058  64.579  1.00  0.00    -0.409 A  
HETATM    8  C   UNL     1     -11.232  13.521  63.990  1.00  0.00    -0.259 A  
HETATM    9  C   UNL     1     -10.420  12.609  64.672  1.00  0.00    -0.361 A  
HETATM   10  C   UNL     1     -10.820  12.242  65.963  1.00  0.00    -0.275 A  
HETATM   11  N   UNL     1     -10.363  11.323  66.875  1.00  0.00    -0.225 NA 
ENDROOT
BRANCH  11  12
HETATM   12  C   UNL     1      -9.415  10.248  66.679  1.00  0.00    -0.166 C  
HETATM   13  C   UNL     1     -10.038   8.890  66.368  1.00  0.00    -0.333 C  
HETATM   14  C   UNL     1      -8.903   7.967  65.919  1.00  0.00    -0.153 C  
HETATM   15  N   UNL     1      -7.828   7.827  66.918  1.00  0.00    -0.106 NA 
HETATM   16  C   UNL     1      -7.302   9.130  67.352  1.00  0.00    -0.084 C  
HETATM   17  C   UNL     1      -8.387  10.103  67.807  1.00  0.00    -0.114 C  
BRANCH  15  18
HETATM   18  C   UNL     1      -8.188   6.972  68.058  1.00  0.00    -0.119 C  
BRANCH  18  19
HETATM   19  C   UNL     1      -8.639   5.572  67.631  1.00  0.00    -0.108 C  
BRANCH  19  20
HETATM   20  C   UNL     1     -10.149   5.385  67.781  1.00  0.00    -0.215 C  
BRANCH  20  21
HETATM   21  C   UNL     1     -10.665   6.018  69.055  1.00  0.00    -0.324 C  
HETATM   22  O   UNL     1     -11.224   7.111  69.080  1.00  0.00    -0.098 OA 
BRANCH  21  23
HETATM   23  C   UNL     1     -10.442   5.288  70.332  1.00  0.00    -0.322 A  
HETATM   24  C   UNL     1      -9.828   4.030  70.269  1.00  0.00    -0.205 A  
HETATM   25  C   UNL     1      -9.624   3.293  71.435  1.00  0.00    -0.230 A  
HETATM   26  C   UNL     1     -10.020   3.821  72.658  1.00  0.00    -0.158 A  
HETATM   27  C   UNL     1     -10.617   5.074  72.736  1.00  0.00    -0.274 A  
HETATM   28  F   UNL     1      -9.825   3.113  73.776  1.00  0.00    -0.116 F  
HETATM   29  C   UNL     1     -10.832   5.814  71.571  1.00  0.00    -0.316 A  
ENDBRANCH  21  23
ENDBRANCH  20  21
ENDBRANCH  19  20
ENDBRANCH  18  19
ENDBRANCH  15  18
ENDBRANCH  11  12
TORSDOF 6
ENDMDL
MODEL      190
REMARK 921   NORMALIZED FREE ENERGY PREDICTED BY IDOCK:   -4.32 KCAL/MOL
REMARK 922        TOTAL FREE ENERGY PREDICTED BY IDOCK:   -7.14 KCAL/MOL
REMARK 923 INTER-LIGAND FREE ENERGY PREDICTED BY IDOCK:   -6.28 KCAL/MOL
REMARK 924 INTRA-LIGAND FREE ENERGY PREDICTED BY IDOCK:   -0.86 KCAL/MOL
REMARK 927      BINDING AFFINITY PREDICTED BY RF-SCORE:    0.00 PKD
ROOT
HETATM    1  O   UNL     1      -6.145   7.130  72.200  1.00  0.00    -0.041 OA 
HETATM    2  C   UNL     1      -7.390   6.760  72.398  1.00  0.00    -0.087 A  
HETATM    3  H   UNL     1      -5.914   7.823  71.592  1.00  0.00     0.000 HD 
HETATM    4  N   UNL     1      -7.706   5.810  73.232  1.00  0.00    -0.099 NA 
HETATM    5  C   UNL     1      -9.068   5.698  73.114  1.00  0.00    -0.126 A  
HETATM    6  C   UNL     1      -9.933   4.788  73.736  1.00  0.00    -0.188 A  
HETATM    7  C   UNL     1     -11.301   4.858  73.449  1.00  0.00    -0.379 A  
HETATM    8  C   UNL     1     -11.801   5.829  72.585  1.00  0.00    -0.198 A  
HETATM    9  C   UNL     1     -10.956   6.750  71.957  1.00  0.00    -0.269 A  
HETATM   10  C   UNL     1      -9.585   6.637  72.217  1.00  0.00    -0.145 A  
HETATM   11  N   UNL     1      -8.468   7.262  71.720  1.00  0.00    -0.111 NA 
ENDROOT
BRANCH  11  12
HETATM   12  C   UNL     1      -8.350   8.119  70.561  1.00  0.00    -0.123 C  
HETATM   13  C   UNL     1      -9.304   9.311  70.543  1.00  0.00    -0.316 C  
HETATM   14  C   UNL     1      -8.845  10.237  69.416  1.00  0.00    -0.163 C  
HETATM   15  N   UNL     1      -8.808   9.584  68.095  1.00  0.00    -0.124 NA 
HETATM   16  C   UNL     1      -8.014   8.345  68.111  1.00  0.00    -0.119 C  
HETATM   17  C   UNL     1      -8.419   7.379  69.221  1.00  0.00    -0.136 C  
BRANCH  15  18
HETATM   18  C   UNL     1     -10.136   9.377  67.501  1.00  0.00    -0.215 C  
BRANCH  18  19
HETATM   19  C   UNL     1     -10.981  10.654  67.476  1.00  0.00    -0.371 C  
BRANCH  19  20
HETATM   20  C   UNL     1     -10.741  11.476  66.209  1.00  0.00    -0.321 C  
BRANCH  20  21
HETATM   21  C   UNL     1     -11.462  12.804  66.261  1.00  0.00    -0.354 C  
HETATM   22  O   UNL     1     -12.629  12.947  65.903  1.00  0.00    -0.509 OA 
BRANCH  21  23
HETATM   23  C   UNL     1     -10.698  13.991  66.731  1.00  0.00    -0.285 A  
HETATM   24  C   UNL     1     -11.423  15.075  67.246  1.00  0.00    -0.312 A  
HETATM   25  C   UNL     1     -10.756  16.222  67.672  1.00  0.00    -0.311 A  
HETATM   26  C   UNL     1      -9.370  16.277  67.596  1.00  0.00    -0.218 A  
HETATM   27  C   UNL     1      -8.637  15.203  67.102  1.00  0.00    -0.247 A  
HETATM   28  F   UNL     1      -8.730  17.379  68.004  1.00  0.00    -0.218 F  
HETATM   29  C   UNL     1      -9.300  14.053  66.665  1.00  0.00    -0.292 A  
ENDBRANCH  21  23
ENDBRANCH  20  21
ENDBRANCH  19  20
ENDBRANCH  18  19
ENDBRANCH  15  18
ENDBRANCH  11  12
TORSDOF 6
ENDMDL
MODEL      191
REMARK 921   NORMALIZED FREE ENERGY PREDICTED BY IDOCK:   -4.31 KCAL/MOL
REMARK 922        TOTAL FREE ENERGY PREDICTED BY IDOCK:   -7.13 KCAL/MOL
REMARK 923 INTER-LIGAND FREE ENERGY PREDICTED BY IDOCK:   -6.04 KCAL/MOL
REMARK 924 INTRA-LIGAND FREE ENERGY PREDICTED BY IDOCK:   -1.09 KCAL/MOL
REMARK 927      BINDING AFFINITY PREDICTED BY RF-SCORE:    0.00 PKD
ROOT
HETATM    1  O   UNL     1      -9.625   2.332  68.143  1.00  0.00    -0.274 OA 
HETATM    2  C   UNL     1      -9.175   2.852  67.024  1.00  0.00    -0.149 A  
HETATM    3  H   UNL     1     -10.041   2.862  68.814  1.00  0.00     0.000 HD 
HETATM    4  N   UNL     1      -8.605   2.127  66.103  1.00  0.00    -0.107 NA 
HETATM    5  C   UNL     1      -8.240   3.031  65.139  1.00  0.00    -0.091 A  
HETATM    6  C   UNL     1      -7.534   2.813  63.949  1.00  0.00    -0.066 A  
HETATM    7  C   UNL     1      -7.266   3.905  63.116  1.00  0.00    -0.049 A  
HETATM    8  C   UNL     1      -7.714   5.182  63.446  1.00  0.00    -0.077 A  
HETATM    9  C   UNL     1      -8.426   5.422  64.626  1.00  0.00    -0.126 A  
HETATM   10  C   UNL     1      -8.644   4.328  65.471  1.00  0.00    -0.119 A  
HETATM   11  N   UNL     1      -9.184   4.188  66.726  1.00  0.00    -0.145 NA 
ENDROOT
BRANCH  11  12
HETATM   12  C   UNL     1      -9.509   5.215  67.691  1.00  0.00    -0.127 C  
HETATM   13  C   UNL     1     -10.873   5.872  67.497  1.00  0.00    -0.335 C  
HETATM   14  C   UNL     1     -11.154   6.704  68.750  1.00  0.00    -0.227 C  
HETATM   15  N   UNL     1     -10.123   7.722  69.023  1.00  0.00    -0.191 NA 
HETATM   16  C   UNL     1      -8.772   7.144  69.071  1.00  0.00    -0.132 C  
HETATM   17  C   UNL     1      -8.431   6.293  67.850  1.00  0.00    -0.117 C  
BRANCH  15  18
HETATM   18  C   UNL     1     -10.192   8.887  68.129  1.00  0.00    -0.201 C  
BRANCH  18  19
HETATM   19  C   UNL     1      -9.300  10.043  68.590  1.00  0.00    -0.156 C  
BRANCH  19  20
HETATM   20  C   UNL     1      -8.430  10.584  67.455  1.00  0.00    -0.122 C  
BRANCH  20  21
HETATM   21  C   UNL     1      -8.945  11.911  66.942  1.00  0.00    -0.196 C  
HETATM   22  O   UNL     1      -8.571  12.992  67.389  1.00  0.00    -0.179 OA 
BRANCH  21  23
HETATM   23  C   UNL     1      -9.980  11.888  65.873  1.00  0.00    -0.261 A  
HETATM   24  C   UNL     1     -11.195  12.539  66.125  1.00  0.00    -0.362 A  
HETATM   25  C   UNL     1     -12.209  12.521  65.168  1.00  0.00    -0.509 A  
HETATM   26  C   UNL     1     -11.999  11.867  63.960  1.00  0.00    -0.356 A  
HETATM   27  C   UNL     1     -10.793  11.230  63.691  1.00  0.00    -0.410 A  
HETATM   28  F   UNL     1     -12.973  11.848  63.042  1.00  0.00    -0.665 F  
HETATM   29  C   UNL     1      -9.776  11.237  64.649  1.00  0.00    -0.294 A  
ENDBRANCH  21  23
ENDBRANCH  20  21
ENDBRANCH  19  20
ENDBRANCH  18  19
ENDBRANCH  15  18
ENDBRANCH  11  12
TORSDOF 6
ENDMDL
MODEL      192
REMARK 921   NORMALIZED FREE ENERGY PREDICTED BY IDOCK:   -4.30 KCAL/MOL
REMARK 922        TOTAL FREE ENERGY PREDICTED BY IDOCK:   -7.11 KCAL/MOL
REMARK 923 INTER-LIGAND FREE ENERGY PREDICTED BY IDOCK:   -5.99 KCAL/MOL
REMARK 924 INTRA-LIGAND FREE ENERGY PREDICTED BY IDOCK:   -1.12 KCAL/MOL
REMARK 927      BINDING AFFINITY PREDICTED BY RF-SCORE:    0.00 PKD
ROOT
HETATM    1  O   UNL     1      -8.129   5.502  68.120  1.00  0.00    -0.096 OA 
HETATM    2  C   UNL     1      -8.167   6.185  66.997  1.00  0.00    -0.106 A  
HETATM    3  H   UNL     1      -8.527   5.824  68.920  1.00  0.00     0.000 HD 
HETATM    4  N   UNL     1      -7.621   5.743  65.899  1.00  0.00    -0.085 NA 
HETATM    5  C   UNL     1      -7.831   6.748  64.990  1.00  0.00    -0.118 A  
HETATM    6  C   UNL     1      -7.400   6.837  63.660  1.00  0.00    -0.073 A  
HETATM    7  C   UNL     1      -7.729   7.979  62.921  1.00  0.00    -0.135 A  
HETATM    8  C   UNL     1      -8.494   8.997  63.484  1.00  0.00    -0.173 A  
HETATM    9  C   UNL     1      -8.940   8.927  64.808  1.00  0.00    -0.088 A  
HETATM   10  C   UNL     1      -8.561   7.801  65.549  1.00  0.00    -0.105 A  
HETATM   11  N   UNL     1      -8.703   7.437  66.865  1.00  0.00    -0.122 NA 
ENDROOT
BRANCH  11  12
HETATM   12  C   UNL     1      -9.118   8.247  67.989  1.00  0.00    -0.137 C  
HETATM   13  C   UNL     1     -10.510   8.860  67.861  1.00  0.00    -0.281 C  
HETATM   14  C   UNL     1     -10.880   9.427  69.233  1.00  0.00    -0.172 C  
HETATM   15  N   UNL     1      -9.918  10.425  69.735  1.00  0.00    -0.181 NA 
HETATM   16  C   UNL     1      -8.538   9.916  69.734  1.00  0.00    -0.203 C  
HETATM   17  C   UNL     1      -8.109   9.327  68.392  1.00  0.00    -0.106 C  
BRANCH  15  18
HETATM   18  C   UNL     1     -10.022  11.732  69.071  1.00  0.00     0.056 C  
BRANCH  18  19
HETATM   19  C   UNL     1     -11.445  12.298  69.092  1.00  0.00    -0.352 C  
BRANCH  19  20
HETATM   20  C   UNL     1     -11.456  13.815  69.286  1.00  0.00    -0.344 C  
BRANCH  20  21
HETATM   21  C   UNL     1     -10.878  14.534  68.087  1.00  0.00    -0.240 C  
HETATM   22  O   UNL     1     -10.175  15.537  68.183  1.00  0.00    -0.223 OA 
BRANCH  21  23
HETATM   23  C   UNL     1     -11.218  14.015  66.735  1.00  0.00    -0.323 A  
HETATM   24  C   UNL     1     -10.182  13.473  65.962  1.00  0.00    -0.308 A  
HETATM   25  C   UNL     1     -10.444  13.001  64.676  1.00  0.00    -0.400 A  
HETATM   26  C   UNL     1     -11.738  13.058  64.175  1.00  0.00    -0.412 A  
HETATM   27  C   UNL     1     -12.778  13.579  64.937  1.00  0.00    -0.342 A  
HETATM   28  F   UNL     1     -11.989  12.605  62.941  1.00  0.00    -0.479 F  
HETATM   29  C   UNL     1     -12.522  14.061  66.223  1.00  0.00    -0.439 A  
ENDBRANCH  21  23
ENDBRANCH  20  21
ENDBRANCH  19  20
ENDBRANCH  18  19
ENDBRANCH  15  18
ENDBRANCH  11  12
TORSDOF 6
ENDMDL
MODEL      193
REMARK 921   NORMALIZED FREE ENERGY PREDICTED BY IDOCK:   -4.29 KCAL/MOL
REMARK 922        TOTAL FREE ENERGY PREDICTED BY IDOCK:   -7.10 KCAL/MOL
REMARK 923 INTER-LIGAND FREE ENERGY PREDICTED BY IDOCK:   -6.47 KCAL/MOL
REMARK 924 INTRA-LIGAND FREE ENERGY PREDICTED BY IDOCK:   -0.62 KCAL/MOL
REMARK 927      BINDING AFFINITY PREDICTED BY RF-SCORE:    0.00 PKD
ROOT
HETATM    1  O   UNL     1     -10.810  11.971  65.883  1.00  0.00    -0.268 OA 
HETATM    2  C   UNL     1      -9.962  11.203  65.237  1.00  0.00    -0.260 A  
HETATM    3  H   UNL     1     -10.919  11.921  66.826  1.00  0.00     0.000 HD 
HETATM    4  N   UNL     1      -9.813  11.271  63.944  1.00  0.00    -0.272 NA 
HETATM    5  C   UNL     1      -8.893  10.294  63.659  1.00  0.00    -0.222 A  
HETATM    6  C   UNL     1      -8.405   9.881  62.413  1.00  0.00    -0.158 A  
HETATM    7  C   UNL     1      -7.466   8.843  62.368  1.00  0.00    -0.103 A  
HETATM    8  C   UNL     1      -7.003   8.249  63.539  1.00  0.00    -0.085 A  
HETATM    9  C   UNL     1      -7.473   8.650  64.795  1.00  0.00    -0.097 A  
HETATM   10  C   UNL     1      -8.446   9.655  64.819  1.00  0.00    -0.159 A  
HETATM   11  N   UNL     1      -9.207  10.219  65.814  1.00  0.00    -0.166 NA 
ENDROOT
BRANCH  11  12
HETATM   12  C   UNL     1      -9.395   9.767  67.175  1.00  0.00    -0.142 C  
HETATM   13  C   UNL     1     -10.727   9.074  67.444  1.00  0.00    -0.231 C  
HETATM   14  C   UNL     1     -10.627   8.426  68.827  1.00  0.00    -0.125 C  
HETATM   15  N   UNL     1     -10.315   9.384  69.904  1.00  0.00    -0.212 NA 
HETATM   16  C   UNL     1      -9.113  10.178  69.609  1.00  0.00    -0.174 C  
HETATM   17  C   UNL     1      -9.147  10.845  68.236  1.00  0.00    -0.158 C  
BRANCH  15  18
HETATM   18  C   UNL     1     -11.453  10.231  70.288  1.00  0.00    -0.317 C  
BRANCH  18  19
HETATM   19  C   UNL     1     -12.318   9.604  71.385  1.00  0.00    -0.468 C  
BRANCH  19  20
HETATM   20  C   UNL     1     -11.577   8.497  72.136  1.00  0.00    -0.447 C  
BRANCH  20  21
HETATM   21  C   UNL     1     -12.171   7.135  71.850  1.00  0.00    -0.323 C  
HETATM   22  O   UNL     1     -13.349   6.970  71.542  1.00  0.00    -0.366 OA 
BRANCH  21  23
HETATM   23  C   UNL     1     -11.287   5.948  71.991  1.00  0.00    -0.325 A  
HETATM   24  C   UNL     1     -11.255   5.299  73.233  1.00  0.00    -0.359 A  
HETATM   25  C   UNL     1     -10.420   4.199  73.425  1.00  0.00    -0.252 A  
HETATM   26  C   UNL     1      -9.632   3.745  72.375  1.00  0.00    -0.139 A  
HETATM   27  C   UNL     1      -9.664   4.370  71.134  1.00  0.00    -0.256 A  
HETATM   28  F   UNL     1      -8.829   2.691  72.561  1.00  0.00    -0.071 F  
HETATM   29  C   UNL     1     -10.493   5.478  70.936  1.00  0.00    -0.319 A  
ENDBRANCH  21  23
ENDBRANCH  20  21
ENDBRANCH  19  20
ENDBRANCH  18  19
ENDBRANCH  15  18
ENDBRANCH  11  12
TORSDOF 6
ENDMDL
MODEL      194
REMARK 921   NORMALIZED FREE ENERGY PREDICTED BY IDOCK:   -4.25 KCAL/MOL
REMARK 922        TOTAL FREE ENERGY PREDICTED BY IDOCK:   -7.05 KCAL/MOL
REMARK 923 INTER-LIGAND FREE ENERGY PREDICTED BY IDOCK:   -6.44 KCAL/MOL
REMARK 924 INTRA-LIGAND FREE ENERGY PREDICTED BY IDOCK:   -0.61 KCAL/MOL
REMARK 927      BINDING AFFINITY PREDICTED BY RF-SCORE:    0.00 PKD
ROOT
HETATM    1  O   UNL     1     -12.251   5.243  73.048  1.00  0.00    -0.513 OA 
HETATM    2  C   UNL     1     -10.945   5.106  73.091  1.00  0.00    -0.307 A  
HETATM    3  H   UNL     1     -12.682   5.775  72.389  1.00  0.00     0.000 HD 
HETATM    4  N   UNL     1     -10.354   4.376  73.994  1.00  0.00    -0.196 NA 
HETATM    5  C   UNL     1      -9.017   4.531  73.730  1.00  0.00    -0.103 A  
HETATM    6  C   UNL     1      -7.917   4.019  74.430  1.00  0.00    -0.090 A  
HETATM    7  C   UNL     1      -6.629   4.323  73.974  1.00  0.00    -0.057 A  
HETATM    8  C   UNL     1      -6.440   5.096  72.830  1.00  0.00    -0.056 A  
HETATM    9  C   UNL     1      -7.525   5.612  72.113  1.00  0.00    -0.099 A  
HETATM   10  C   UNL     1      -8.805   5.339  72.610  1.00  0.00    -0.123 A  
HETATM   11  N   UNL     1     -10.067   5.750  72.261  1.00  0.00    -0.181 NA 
ENDROOT
BRANCH  11  12
HETATM   12  C   UNL     1     -10.457   6.816  71.365  1.00  0.00    -0.215 C  
HETATM   13  C   UNL     1     -10.108   6.582  69.898  1.00  0.00    -0.202 C  
HETATM   14  C   UNL     1     -10.838   7.654  69.085  1.00  0.00    -0.068 C  
HETATM   15  N   UNL     1     -10.496   9.031  69.485  1.00  0.00    -0.216 NA 
HETATM   16  C   UNL     1     -10.681   9.251  70.928  1.00  0.00    -0.301 C  
HETATM   17  C   UNL     1      -9.982   8.208  71.796  1.00  0.00    -0.264 C  
BRANCH  15  18
HETATM   18  C   UNL     1      -9.168   9.466  69.029  1.00  0.00    -0.145 C  
BRANCH  18  19
HETATM   19  C   UNL     1      -8.975   9.300  67.519  1.00  0.00    -0.127 C  
BRANCH  19  20
HETATM   20  C   UNL     1      -8.212  10.475  66.906  1.00  0.00    -0.123 C  
BRANCH  20  21
HETATM   21  C   UNL     1      -8.979  11.771  67.047  1.00  0.00    -0.186 C  
HETATM   22  O   UNL     1      -8.914  12.482  68.047  1.00  0.00    -0.179 OA 
BRANCH  21  23
HETATM   23  C   UNL     1      -9.879  12.171  65.932  1.00  0.00    -0.265 A  
HETATM   24  C   UNL     1     -10.415  11.155  65.127  1.00  0.00    -0.341 A  
HETATM   25  C   UNL     1     -11.240  11.480  64.051  1.00  0.00    -0.414 A  
HETATM   26  C   UNL     1     -11.537  12.812  63.792  1.00  0.00    -0.481 A  
HETATM   27  C   UNL     1     -11.024  13.827  64.591  1.00  0.00    -0.406 A  
HETATM   28  F   UNL     1     -12.328  13.122  62.758  1.00  0.00    -0.477 F  
HETATM   29  C   UNL     1     -10.191  13.511  65.666  1.00  0.00    -0.306 A  
ENDBRANCH  21  23
ENDBRANCH  20  21
ENDBRANCH  19  20
ENDBRANCH  18  19
ENDBRANCH  15  18
ENDBRANCH  11  12
TORSDOF 6
ENDMDL
MODEL      195
REMARK 921   NORMALIZED FREE ENERGY PREDICTED BY IDOCK:   -4.24 KCAL/MOL
REMARK 922        TOTAL FREE ENERGY PREDICTED BY IDOCK:   -7.03 KCAL/MOL
REMARK 923 INTER-LIGAND FREE ENERGY PREDICTED BY IDOCK:   -6.16 KCAL/MOL
REMARK 924 INTRA-LIGAND FREE ENERGY PREDICTED BY IDOCK:   -0.87 KCAL/MOL
REMARK 927      BINDING AFFINITY PREDICTED BY RF-SCORE:    0.00 PKD
ROOT
HETATM    1  O   UNL     1     -10.096  14.081  64.179  1.00  0.00    -0.617 OA 
HETATM    2  C   UNL     1     -10.499  13.436  65.250  1.00  0.00    -0.324 A  
HETATM    3  H   UNL     1      -9.634  13.646  63.473  1.00  0.00     0.000 HD 
HETATM    4  N   UNL     1     -11.133  14.033  66.220  1.00  0.00    -0.304 NA 
HETATM    5  C   UNL     1     -11.330  13.045  67.152  1.00  0.00    -0.305 A  
HETATM    6  C   UNL     1     -11.910  13.138  68.424  1.00  0.00    -0.386 A  
HETATM    7  C   UNL     1     -11.993  11.983  69.211  1.00  0.00    -0.329 A  
HETATM    8  C   UNL     1     -11.537  10.758  68.731  1.00  0.00    -0.350 A  
HETATM    9  C   UNL     1     -10.960  10.642  67.462  1.00  0.00    -0.371 A  
HETATM   10  C   UNL     1     -10.840  11.814  66.707  1.00  0.00    -0.270 A  
HETATM   11  N   UNL     1     -10.248  12.115  65.505  1.00  0.00    -0.259 NA 
ENDROOT
BRANCH  11  12
HETATM   12  C   UNL     1      -9.336  11.314  64.719  1.00  0.00    -0.145 C  
HETATM   13  C   UNL     1      -9.934  10.717  63.449  1.00  0.00    -0.385 C  
HETATM   14  C   UNL     1      -8.774  10.159  62.623  1.00  0.00    -0.208 C  
HETATM   15  N   UNL     1      -7.972   9.151  63.341  1.00  0.00    -0.139 NA 
HETATM   16  C   UNL     1      -7.500   9.643  64.644  1.00  0.00    -0.123 C  
HETATM   17  C   UNL     1      -8.612  10.222  65.515  1.00  0.00    -0.173 C  
BRANCH  15  18
HETATM   18  C   UNL     1      -8.634   7.843  63.455  1.00  0.00     0.343 C  
BRANCH  18  19
HETATM   19  C   UNL     1      -7.729   6.771  64.068  1.00  0.00    -0.112 C  
BRANCH  19  20
HETATM   20  C   UNL     1      -8.172   5.358  63.683  1.00  0.00    -0.121 C  
BRANCH  20  21
HETATM   21  C   UNL     1      -8.867   4.660  64.831  1.00  0.00    -0.151 C  
HETATM   22  O   UNL     1      -9.192   3.476  64.796  1.00  0.00    -0.128 OA 
BRANCH  21  23
HETATM   23  C   UNL     1      -9.201   5.468  66.035  1.00  0.00    -0.168 A  
HETATM   24  C   UNL     1     -10.546   5.800  66.248  1.00  0.00    -0.121 A  
HETATM   25  C   UNL     1     -10.907   6.580  67.346  1.00  0.00    -0.449 A  
HETATM   26  C   UNL     1      -9.928   7.013  68.231  1.00  0.00    -0.153 A  
HETATM   27  C   UNL     1      -8.592   6.678  68.040  1.00  0.00    -0.118 A  
HETATM   28  F   UNL     1     -10.275   7.763  69.284  1.00  0.00    -0.189 F  
HETATM   29  C   UNL     1      -8.222   5.903  66.938  1.00  0.00    -0.105 A  
ENDBRANCH  21  23
ENDBRANCH  20  21
ENDBRANCH  19  20
ENDBRANCH  18  19
ENDBRANCH  15  18
ENDBRANCH  11  12
TORSDOF 6
ENDMDL
MODEL      196
REMARK 921   NORMALIZED FREE ENERGY PREDICTED BY IDOCK:   -4.23 KCAL/MOL
REMARK 922        TOTAL FREE ENERGY PREDICTED BY IDOCK:   -7.02 KCAL/MOL
REMARK 923 INTER-LIGAND FREE ENERGY PREDICTED BY IDOCK:   -6.34 KCAL/MOL
REMARK 924 INTRA-LIGAND FREE ENERGY PREDICTED BY IDOCK:   -0.68 KCAL/MOL
REMARK 927      BINDING AFFINITY PREDICTED BY RF-SCORE:    0.00 PKD
ROOT
HETATM    1  O   UNL     1      -7.308   4.348  64.791  1.00  0.00    -0.069 OA 
HETATM    2  C   UNL     1      -7.007   4.360  66.070  1.00  0.00    -0.066 A  
HETATM    3  H   UNL     1      -7.855   5.016  64.396  1.00  0.00     0.000 HD 
HETATM    4  N   UNL     1      -6.254   3.445  66.614  1.00  0.00    -0.028 NA 
HETATM    5  C   UNL     1      -6.222   3.781  67.943  1.00  0.00    -0.033 A  
HETATM    6  C   UNL     1      -5.610   3.106  69.007  1.00  0.00    -0.021 A  
HETATM    7  C   UNL     1      -5.722   3.640  70.296  1.00  0.00    -0.017 A  
HETATM    8  C   UNL     1      -6.404   4.835  70.517  1.00  0.00    -0.026 A  
HETATM    9  C   UNL     1      -7.018   5.528  69.469  1.00  0.00    -0.062 A  
HETATM   10  C   UNL     1      -6.938   4.956  68.194  1.00  0.00    -0.061 A  
HETATM   11  N   UNL     1      -7.489   5.267  66.975  1.00  0.00    -0.086 NA 
ENDROOT
BRANCH  11  12
HETATM   12  C   UNL     1      -8.548   6.204  66.674  1.00  0.00    -0.118 C  
HETATM   13  C   UNL     1      -8.120   7.669  66.641  1.00  0.00    -0.119 C  
HETATM   14  C   UNL     1      -9.280   8.463  66.037  1.00  0.00    -0.187 C  
HETATM   15  N   UNL     1     -10.547   8.310  66.775  1.00  0.00    -0.262 NA 
HETATM   16  C   UNL     1     -10.917   6.898  66.955  1.00  0.00    -0.334 C  
HETATM   17  C   UNL     1      -9.797   6.047  67.549  1.00  0.00    -0.138 C  
BRANCH  15  18
HETATM   18  C   UNL     1     -10.585   9.053  68.043  1.00  0.00    -0.186 C  
BRANCH  18  19
HETATM   19  C   UNL     1     -10.859  10.547  67.848  1.00  0.00    -0.333 C  
BRANCH  19  20
HETATM   20  C   UNL     1     -11.574  11.161  69.052  1.00  0.00    -0.392 C  
BRANCH  20  21
HETATM   21  C   UNL     1     -11.504  12.672  69.031  1.00  0.00    -0.303 C  
HETATM   22  O   UNL     1     -10.874  13.301  68.185  1.00  0.00    -0.237 OA 
BRANCH  21  23
HETATM   23  C   UNL     1     -12.203  13.414  70.114  1.00  0.00    -0.385 A  
HETATM   24  C   UNL     1     -12.361  14.799  69.963  1.00  0.00    -0.365 A  
HETATM   25  C   UNL     1     -12.983  15.544  70.964  1.00  0.00    -0.550 A  
HETATM   26  C   UNL     1     -13.456  14.904  72.102  1.00  0.00    -0.393 A  
HETATM   27  C   UNL     1     -13.320  13.529  72.258  1.00  0.00    -0.628 A  
HETATM   28  F   UNL     1     -14.052  15.620  73.063  1.00  0.00    -0.574 F  
HETATM   29  C   UNL     1     -12.691  12.777  71.263  1.00  0.00    -0.364 A  
ENDBRANCH  21  23
ENDBRANCH  20  21
ENDBRANCH  19  20
ENDBRANCH  18  19
ENDBRANCH  15  18
ENDBRANCH  11  12
TORSDOF 6
ENDMDL
MODEL      197
REMARK 921   NORMALIZED FREE ENERGY PREDICTED BY IDOCK:   -4.23 KCAL/MOL
REMARK 922        TOTAL FREE ENERGY PREDICTED BY IDOCK:   -7.01 KCAL/MOL
REMARK 923 INTER-LIGAND FREE ENERGY PREDICTED BY IDOCK:   -6.01 KCAL/MOL
REMARK 924 INTRA-LIGAND FREE ENERGY PREDICTED BY IDOCK:   -1.01 KCAL/MOL
REMARK 927      BINDING AFFINITY PREDICTED BY RF-SCORE:    0.00 PKD
ROOT
HETATM    1  O   UNL     1      -7.885   5.117  70.482  1.00  0.00    -0.078 OA 
HETATM    2  C   UNL     1      -7.997   5.074  69.174  1.00  0.00    -0.080 A  
HETATM    3  H   UNL     1      -8.014   5.919  70.974  1.00  0.00     0.000 HD 
HETATM    4  N   UNL     1      -7.820   3.973  68.499  1.00  0.00    -0.068 NA 
HETATM    5  C   UNL     1      -7.973   4.353  67.189  1.00  0.00    -0.101 A  
HETATM    6  C   UNL     1      -7.828   3.584  66.028  1.00  0.00    -0.089 A  
HETATM    7  C   UNL     1      -8.025   4.198  64.785  1.00  0.00    -0.093 A  
HETATM    8  C   UNL     1      -8.387   5.541  64.702  1.00  0.00    -0.131 A  
HETATM    9  C   UNL     1      -8.543   6.325  65.850  1.00  0.00    -0.150 A  
HETATM   10  C   UNL     1      -8.295   5.709  67.082  1.00  0.00    -0.104 A  
HETATM   11  N   UNL     1      -8.235   6.161  68.377  1.00  0.00    -0.114 NA 
ENDROOT
BRANCH  11  12
HETATM   12  C   UNL     1      -8.195   7.524  68.859  1.00  0.00    -0.128 C  
HETATM   13  C   UNL     1      -9.536   8.253  68.840  1.00  0.00    -0.151 C  
HETATM   14  C   UNL     1      -9.356   9.547  69.635  1.00  0.00    -0.200 C  
HETATM   15  N   UNL     1      -8.287  10.417  69.110  1.00  0.00    -0.149 NA 
HETATM   16  C   UNL     1      -7.008   9.703  68.975  1.00  0.00    -0.058 C  
HETATM   17  C   UNL     1      -7.121   8.395  68.197  1.00  0.00    -0.085 C  
BRANCH  15  18
HETATM   18  C   UNL     1      -8.654  11.124  67.876  1.00  0.00    -0.135 C  
BRANCH  18  19
HETATM   19  C   UNL     1      -9.022  12.591  68.118  1.00  0.00    -0.199 C  
BRANCH  19  20
HETATM   20  C   UNL     1     -10.387  12.736  68.791  1.00  0.00    -0.136 C  
BRANCH  20  21
HETATM   21  C   UNL     1     -11.479  12.066  67.986  1.00  0.00    -0.328 C  
HETATM   22  O   UNL     1     -12.141  11.122  68.411  1.00  0.00    -0.605 OA 
BRANCH  21  23
HETATM   23  C   UNL     1     -11.725  12.560  66.605  1.00  0.00    -0.453 A  
HETATM   24  C   UNL     1     -11.367  11.725  65.538  1.00  0.00    -0.283 A  
HETATM   25  C   UNL     1     -11.549  12.153  64.223  1.00  0.00    -0.444 A  
HETATM   26  C   UNL     1     -12.101  13.405  63.981  1.00  0.00    -0.449 A  
HETATM   27  C   UNL     1     -12.475  14.237  65.030  1.00  0.00    -0.409 A  
HETATM   28  F   UNL     1     -12.275  13.816  62.720  1.00  0.00    -0.327 F  
HETATM   29  C   UNL     1     -12.287  13.818  66.349  1.00  0.00    -0.460 A  
ENDBRANCH  21  23
ENDBRANCH  20  21
ENDBRANCH  19  20
ENDBRANCH  18  19
ENDBRANCH  15  18
ENDBRANCH  11  12
TORSDOF 6
ENDMDL
MODEL      198
REMARK 921   NORMALIZED FREE ENERGY PREDICTED BY IDOCK:   -4.21 KCAL/MOL
REMARK 922        TOTAL FREE ENERGY PREDICTED BY IDOCK:   -7.00 KCAL/MOL
REMARK 923 INTER-LIGAND FREE ENERGY PREDICTED BY IDOCK:   -6.12 KCAL/MOL
REMARK 924 INTRA-LIGAND FREE ENERGY PREDICTED BY IDOCK:   -0.88 KCAL/MOL
REMARK 927      BINDING AFFINITY PREDICTED BY RF-SCORE:    0.00 PKD
ROOT
HETATM    1  O   UNL     1      -8.082   5.725  67.990  1.00  0.00    -0.103 OA 
HETATM    2  C   UNL     1      -8.039   6.351  66.835  1.00  0.00    -0.109 A  
HETATM    3  H   UNL     1      -8.480   6.114  68.760  1.00  0.00     0.000 HD 
HETATM    4  N   UNL     1      -7.493   5.817  65.778  1.00  0.00    -0.076 NA 
HETATM    5  C   UNL     1      -7.605   6.788  64.815  1.00  0.00    -0.104 A  
HETATM    6  C   UNL     1      -7.130   6.779  63.497  1.00  0.00    -0.060 A  
HETATM    7  C   UNL     1      -7.357   7.902  62.693  1.00  0.00    -0.101 A  
HETATM    8  C   UNL     1      -8.065   8.998  63.180  1.00  0.00    -0.169 A  
HETATM    9  C   UNL     1      -8.553   9.026  64.491  1.00  0.00    -0.181 A  
HETATM   10  C   UNL     1      -8.276   7.915  65.297  1.00  0.00    -0.145 A  
HETATM   11  N   UNL     1      -8.482   7.629  66.624  1.00  0.00    -0.125 NA 
ENDROOT
BRANCH  11  12
HETATM   12  C   UNL     1      -8.872   8.521  67.693  1.00  0.00    -0.136 C  
HETATM   13  C   UNL     1     -10.331   8.967  67.659  1.00  0.00    -0.313 C  
HETATM   14  C   UNL     1     -10.623   9.654  68.994  1.00  0.00    -0.218 C  
HETATM   15  N   UNL     1      -9.738  10.800  69.272  1.00  0.00    -0.168 NA 
HETATM   16  C   UNL     1      -8.316  10.440  69.169  1.00  0.00    -0.158 C  
HETATM   17  C   UNL     1      -7.960   9.741  67.859  1.00  0.00    -0.104 C  
BRANCH  15  18
HETATM   18  C   UNL     1     -10.061  11.999  68.486  1.00  0.00    -0.196 C  
BRANCH  18  19
HETATM   19  C   UNL     1     -11.565  12.180  68.266  1.00  0.00    -0.382 C  
BRANCH  19  20
HETATM   20  C   UNL     1     -11.997  13.638  68.421  1.00  0.00    -0.391 C  
BRANCH  20  21
HETATM   21  C   UNL     1     -11.885  14.395  67.116  1.00  0.00    -0.410 C  
HETATM   22  O   UNL     1     -12.379  13.993  66.065  1.00  0.00    -0.445 OA 
BRANCH  21  23
HETATM   23  C   UNL     1     -11.105  15.661  67.112  1.00  0.00    -0.218 A  
HETATM   24  C   UNL     1     -10.869  16.289  68.343  1.00  0.00    -0.334 A  
HETATM   25  C   UNL     1     -10.168  17.494  68.390  1.00  0.00    -0.372 A  
HETATM   26  C   UNL     1      -9.695  18.058  67.212  1.00  0.00    -0.297 A  
HETATM   27  C   UNL     1      -9.909  17.438  65.986  1.00  0.00    -0.201 A  
HETATM   28  F   UNL     1      -9.024  19.214  67.257  1.00  0.00    -0.293 F  
HETATM   29  C   UNL     1     -10.617  16.235  65.930  1.00  0.00    -0.307 A  
ENDBRANCH  21  23
ENDBRANCH  20  21
ENDBRANCH  19  20
ENDBRANCH  18  19
ENDBRANCH  15  18
ENDBRANCH  11  12
TORSDOF 6
ENDMDL
MODEL      199
REMARK 921   NORMALIZED FREE ENERGY PREDICTED BY IDOCK:   -4.20 KCAL/MOL
REMARK 922        TOTAL FREE ENERGY PREDICTED BY IDOCK:   -6.98 KCAL/MOL
REMARK 923 INTER-LIGAND FREE ENERGY PREDICTED BY IDOCK:   -6.15 KCAL/MOL
REMARK 924 INTRA-LIGAND FREE ENERGY PREDICTED BY IDOCK:   -0.83 KCAL/MOL
REMARK 927      BINDING AFFINITY PREDICTED BY RF-SCORE:    0.00 PKD
ROOT
HETATM    1  O   UNL     1      -6.792   3.524  69.251  1.00  0.00    -0.040 OA 
HETATM    2  C   UNL     1      -7.586   3.561  68.205  1.00  0.00    -0.061 A  
HETATM    3  H   UNL     1      -6.886   4.130  69.977  1.00  0.00     0.000 HD 
HETATM    4  N   UNL     1      -7.458   2.730  67.209  1.00  0.00    -0.064 NA 
HETATM    5  C   UNL     1      -8.424   3.123  66.317  1.00  0.00    -0.106 A  
HETATM    6  C   UNL     1      -8.699   2.618  65.039  1.00  0.00    -0.110 A  
HETATM    7  C   UNL     1      -9.740   3.192  64.299  1.00  0.00    -0.156 A  
HETATM    8  C   UNL     1     -10.507   4.226  64.830  1.00  0.00    -0.176 A  
HETATM    9  C   UNL     1     -10.253   4.741  66.106  1.00  0.00    -0.313 A  
HETATM   10  C   UNL     1      -9.179   4.189  66.813  1.00  0.00    -0.157 A  
HETATM   11  N   UNL     1      -8.569   4.493  68.005  1.00  0.00    -0.101 NA 
ENDROOT
BRANCH  11  12
HETATM   12  C   UNL     1      -8.723   5.673  68.827  1.00  0.00    -0.106 C  
HETATM   13  C   UNL     1     -10.092   5.824  69.484  1.00  0.00    -0.278 C  
HETATM   14  C   UNL     1      -9.975   6.946  70.517  1.00  0.00    -0.183 C  
HETATM   15  N   UNL     1      -9.532   8.230  69.943  1.00  0.00    -0.166 NA 
HETATM   16  C   UNL     1      -8.285   8.093  69.174  1.00  0.00    -0.123 C  
HETATM   17  C   UNL     1      -8.335   6.981  68.129  1.00  0.00    -0.123 C  
BRANCH  15  18
HETATM   18  C   UNL     1     -10.576   8.926  69.178  1.00  0.00    -0.195 C  
BRANCH  18  19
HETATM   19  C   UNL     1     -10.064  10.198  68.494  1.00  0.00    -0.186 C  
BRANCH  19  20
HETATM   20  C   UNL     1     -11.197  11.002  67.856  1.00  0.00    -0.375 C  
BRANCH  20  21
HETATM   21  C   UNL     1     -10.814  12.453  67.671  1.00  0.00    -0.225 C  
HETATM   22  O   UNL     1     -10.046  12.836  66.791  1.00  0.00    -0.229 OA 
BRANCH  21  23
HETATM   23  C   UNL     1     -11.370  13.446  68.629  1.00  0.00    -0.322 A  
HETATM   24  C   UNL     1     -12.000  12.961  69.784  1.00  0.00    -0.365 A  
HETATM   25  C   UNL     1     -12.563  13.850  70.698  1.00  0.00    -0.405 A  
HETATM   26  C   UNL     1     -12.483  15.217  70.464  1.00  0.00    -0.379 A  
HETATM   27  C   UNL     1     -11.849  15.712  69.330  1.00  0.00    -0.378 A  
HETATM   28  F   UNL     1     -13.026  16.069  71.341  1.00  0.00    -0.512 F  
HETATM   29  C   UNL     1     -11.289  14.827  68.405  1.00  0.00    -0.317 A  
ENDBRANCH  21  23
ENDBRANCH  20  21
ENDBRANCH  19  20
ENDBRANCH  18  19
ENDBRANCH  15  18
ENDBRANCH  11  12
TORSDOF 6
ENDMDL
MODEL      200
REMARK 921   NORMALIZED FREE ENERGY PREDICTED BY IDOCK:   -4.17 KCAL/MOL
REMARK 922        TOTAL FREE ENERGY PREDICTED BY IDOCK:   -6.94 KCAL/MOL
REMARK 923 INTER-LIGAND FREE ENERGY PREDICTED BY IDOCK:   -6.07 KCAL/MOL
REMARK 924 INTRA-LIGAND FREE ENERGY PREDICTED BY IDOCK:   -0.86 KCAL/MOL
REMARK 927      BINDING AFFINITY PREDICTED BY RF-SCORE:    0.00 PKD
ROOT
HETATM    1  O   UNL     1      -9.523   9.413  64.846  1.00  0.00    -0.424 OA 
HETATM    2  C   UNL     1     -10.224  10.512  65.009  1.00  0.00    -0.295 A  
HETATM    3  H   UNL     1      -9.115   8.962  65.576  1.00  0.00     0.000 HD 
HETATM    4  N   UNL     1     -10.785  11.131  64.009  1.00  0.00    -0.375 NA 
HETATM    5  C   UNL     1     -11.367  12.235  64.578  1.00  0.00    -0.329 A  
HETATM    6  C   UNL     1     -12.055  13.286  63.958  1.00  0.00    -0.508 A  
HETATM    7  C   UNL     1     -12.557  14.323  64.754  1.00  0.00    -0.310 A  
HETATM    8  C   UNL     1     -12.404  14.299  66.138  1.00  0.00    -0.411 A  
HETATM    9  C   UNL     1     -11.725  13.256  66.778  1.00  0.00    -0.434 A  
HETATM   10  C   UNL     1     -11.187  12.252  65.964  1.00  0.00    -0.332 A  
HETATM   11  N   UNL     1     -10.387  11.163  66.203  1.00  0.00    -0.244 NA 
ENDROOT
BRANCH  11  12
HETATM   12  C   UNL     1      -9.642  10.830  67.397  1.00  0.00    -0.159 C  
HETATM   13  C   UNL     1      -8.130  10.749  67.210  1.00  0.00    -0.117 C  
HETATM   14  C   UNL     1      -7.506  10.676  68.605  1.00  0.00    -0.098 C  
HETATM   15  N   UNL     1      -7.990   9.537  69.406  1.00  0.00    -0.091 NA 
HETATM   16  C   UNL     1      -9.459   9.498  69.486  1.00  0.00    -0.185 C  
HETATM   17  C   UNL     1     -10.143   9.577  68.123  1.00  0.00    -0.214 C  
BRANCH  15  18
HETATM   18  C   UNL     1      -7.429   8.243  68.993  1.00  0.00    -0.091 C  
BRANCH  18  19
HETATM   19  C   UNL     1      -7.816   7.099  69.934  1.00  0.00    -0.113 C  
BRANCH  19  20
HETATM   20  C   UNL     1      -7.808   5.744  69.224  1.00  0.00    -0.090 C  
BRANCH  20  21
HETATM   21  C   UNL     1      -9.166   5.410  68.648  1.00  0.00    -0.117 C  
HETATM   22  O   UNL     1     -10.221   5.728  69.192  1.00  0.00    -0.183 OA 
BRANCH  21  23
HETATM   23  C   UNL     1      -9.210   4.625  67.385  1.00  0.00    -0.146 A  
HETATM   24  C   UNL     1      -9.521   5.307  66.200  1.00  0.00    -0.170 A  
HETATM   25  C   UNL     1      -9.603   4.612  64.995  1.00  0.00    -0.113 A  
HETATM   26  C   UNL     1      -9.362   3.244  64.975  1.00  0.00    -0.150 A  
HETATM   27  C   UNL     1      -9.039   2.557  66.140  1.00  0.00    -0.102 A  
HETATM   28  F   UNL     1      -9.444   2.577  63.818  1.00  0.00    -0.100 F  
HETATM   29  C   UNL     1      -8.962   3.246  67.352  1.00  0.00    -0.176 A  
ENDBRANCH  21  23
ENDBRANCH  20  21
ENDBRANCH  19  20
ENDBRANCH  18  19
ENDBRANCH  15  18
ENDBRANCH  11  12
TORSDOF 6
ENDMDL
MODEL      201
REMARK 921   NORMALIZED FREE ENERGY PREDICTED BY IDOCK:   -4.17 KCAL/MOL
REMARK 922        TOTAL FREE ENERGY PREDICTED BY IDOCK:   -6.94 KCAL/MOL
REMARK 923 INTER-LIGAND FREE ENERGY PREDICTED BY IDOCK:   -5.95 KCAL/MOL
REMARK 924 INTRA-LIGAND FREE ENERGY PREDICTED BY IDOCK:   -0.98 KCAL/MOL
REMARK 927      BINDING AFFINITY PREDICTED BY RF-SCORE:    0.00 PKD
ROOT
HETATM    1  O   UNL     1      -9.633   2.816  70.325  1.00  0.00    -0.143 OA 
HETATM    2  C   UNL     1      -9.765   3.974  70.931  1.00  0.00    -0.187 A  
HETATM    3  H   UNL     1      -9.356   2.748  69.419  1.00  0.00     0.000 HD 
HETATM    4  N   UNL     1     -10.144   4.067  72.174  1.00  0.00    -0.174 NA 
HETATM    5  C   UNL     1     -10.204   5.417  72.408  1.00  0.00    -0.195 A  
HETATM    6  C   UNL     1     -10.616   6.092  73.565  1.00  0.00    -0.283 A  
HETATM    7  C   UNL     1     -10.604   7.492  73.567  1.00  0.00    -0.347 A  
HETATM    8  C   UNL     1     -10.164   8.204  72.453  1.00  0.00    -0.368 A  
HETATM    9  C   UNL     1      -9.743   7.549  71.290  1.00  0.00    -0.173 A  
HETATM   10  C   UNL     1      -9.807   6.151  71.287  1.00  0.00    -0.176 A  
HETATM   11  N   UNL     1      -9.595   5.192  70.329  1.00  0.00    -0.170 NA 
ENDROOT
BRANCH  11  12
HETATM   12  C   UNL     1      -9.445   5.357  68.900  1.00  0.00    -0.133 C  
HETATM   13  C   UNL     1      -8.016   5.614  68.429  1.00  0.00    -0.100 C  
HETATM   14  C   UNL     1      -8.012   5.477  66.905  1.00  0.00    -0.101 C  
HETATM   15  N   UNL     1      -8.952   6.390  66.230  1.00  0.00    -0.154 NA 
HETATM   16  C   UNL     1     -10.318   6.274  66.763  1.00  0.00    -0.221 C  
HETATM   17  C   UNL     1     -10.389   6.394  68.283  1.00  0.00    -0.228 C  
BRANCH  15  18
HETATM   18  C   UNL     1      -8.494   7.786  66.192  1.00  0.00    -0.138 C  
BRANCH  18  19
HETATM   19  C   UNL     1      -9.584   8.757  65.731  1.00  0.00    -0.190 C  
BRANCH  19  20
HETATM   20  C   UNL     1      -8.998  10.015  65.089  1.00  0.00    -0.227 C  
BRANCH  20  21
HETATM   21  C   UNL     1      -8.534  11.008  66.132  1.00  0.00    -0.168 C  
HETATM   22  O   UNL     1      -7.351  11.170  66.421  1.00  0.00    -0.143 OA 
BRANCH  21  23
HETATM   23  C   UNL     1      -9.571  11.786  66.861  1.00  0.00    -0.204 A  
HETATM   24  C   UNL     1     -10.570  12.414  66.104  1.00  0.00    -0.283 A  
HETATM   25  C   UNL     1     -11.548  13.180  66.738  1.00  0.00    -0.414 A  
HETATM   26  C   UNL     1     -11.533  13.304  68.121  1.00  0.00    -0.312 A  
HETATM   27  C   UNL     1     -10.556  12.674  68.885  1.00  0.00    -0.157 A  
HETATM   28  F   UNL     1     -12.470  14.040  68.729  1.00  0.00    -0.362 F  
HETATM   29  C   UNL     1      -9.568  11.911  68.257  1.00  0.00    -0.201 A  
ENDBRANCH  21  23
ENDBRANCH  20  21
ENDBRANCH  19  20
ENDBRANCH  18  19
ENDBRANCH  15  18
ENDBRANCH  11  12
TORSDOF 6
ENDMDL
MODEL      202
REMARK 921   NORMALIZED FREE ENERGY PREDICTED BY IDOCK:   -4.14 KCAL/MOL
REMARK 922        TOTAL FREE ENERGY PREDICTED BY IDOCK:   -6.89 KCAL/MOL
REMARK 923 INTER-LIGAND FREE ENERGY PREDICTED BY IDOCK:   -5.78 KCAL/MOL
REMARK 924 INTRA-LIGAND FREE ENERGY PREDICTED BY IDOCK:   -1.11 KCAL/MOL
REMARK 927      BINDING AFFINITY PREDICTED BY RF-SCORE:    0.00 PKD
ROOT
HETATM    1  O   UNL     1     -12.880   8.027  72.545  1.00  0.00    -0.551 OA 
HETATM    2  C   UNL     1     -12.326   8.829  71.664  1.00  0.00    -0.337 A  
HETATM    3  H   UNL     1     -12.415   7.286  72.916  1.00  0.00     0.000 HD 
HETATM    4  N   UNL     1     -12.964   9.846  71.156  1.00  0.00    -0.367 NA 
HETATM    5  C   UNL     1     -12.076  10.388  70.261  1.00  0.00    -0.286 A  
HETATM    6  C   UNL     1     -12.257  11.466  69.385  1.00  0.00    -0.288 A  
HETATM    7  C   UNL     1     -11.199  11.835  68.547  1.00  0.00    -0.306 A  
HETATM    8  C   UNL     1      -9.979  11.166  68.599  1.00  0.00    -0.210 A  
HETATM    9  C   UNL     1      -9.775  10.090  69.470  1.00  0.00    -0.253 A  
HETATM   10  C   UNL     1     -10.858   9.702  70.268  1.00  0.00    -0.285 A  
HETATM   11  N   UNL     1     -11.076   8.660  71.134  1.00  0.00    -0.252 NA 
ENDROOT
BRANCH  11  12
HETATM   12  C   UNL     1     -10.285   7.465  71.329  1.00  0.00    -0.188 C  
HETATM   13  C   UNL     1      -9.438   7.051  70.130  1.00  0.00    -0.162 C  
HETATM   14  C   UNL     1      -8.477   5.963  70.611  1.00  0.00    -0.129 C  
HETATM   15  N   UNL     1      -9.158   4.791  71.191  1.00  0.00    -0.133 NA 
HETATM   16  C   UNL     1     -10.098   5.169  72.258  1.00  0.00    -0.192 C  
HETATM   17  C   UNL     1     -11.082   6.260  71.843  1.00  0.00    -0.315 C  
BRANCH  15  18
HETATM   18  C   UNL     1      -9.785   3.916  70.190  1.00  0.00    -0.172 C  
BRANCH  18  19
HETATM   19  C   UNL     1      -8.855   3.591  69.019  1.00  0.00    -0.159 C  
BRANCH  19  20
HETATM   20  C   UNL     1      -9.474   3.971  67.673  1.00  0.00    -0.231 C  
BRANCH  20  21
HETATM   21  C   UNL     1      -8.436   4.514  66.715  1.00  0.00    -0.105 C  
HETATM   22  O   UNL     1      -7.828   3.807  65.915  1.00  0.00    -0.088 OA 
BRANCH  21  23
HETATM   23  C   UNL     1      -8.119   5.966  66.785  1.00  0.00    -0.102 A  
HETATM   24  C   UNL     1      -9.092   6.871  66.339  1.00  0.00    -0.185 A  
HETATM   25  C   UNL     1      -8.833   8.241  66.356  1.00  0.00    -0.180 A  
HETATM   26  C   UNL     1      -7.611   8.701  66.831  1.00  0.00    -0.084 A  
HETATM   27  C   UNL     1      -6.643   7.815  67.291  1.00  0.00    -0.063 A  
HETATM   28  F   UNL     1      -7.362  10.015  66.846  1.00  0.00    -0.088 F  
HETATM   29  C   UNL     1      -6.893   6.441  67.269  1.00  0.00    -0.069 A  
ENDBRANCH  21  23
ENDBRANCH  20  21
ENDBRANCH  19  20
ENDBRANCH  18  19
ENDBRANCH  15  18
ENDBRANCH  11  12
TORSDOF 6
ENDMDL
MODEL      203
REMARK 921   NORMALIZED FREE ENERGY PREDICTED BY IDOCK:   -4.11 KCAL/MOL
REMARK 922        TOTAL FREE ENERGY PREDICTED BY IDOCK:   -6.86 KCAL/MOL
REMARK 923 INTER-LIGAND FREE ENERGY PREDICTED BY IDOCK:   -6.34 KCAL/MOL
REMARK 924 INTRA-LIGAND FREE ENERGY PREDICTED BY IDOCK:   -0.53 KCAL/MOL
REMARK 927      BINDING AFFINITY PREDICTED BY RF-SCORE:    0.00 PKD
ROOT
HETATM    1  O   UNL     1      -7.710   9.207  63.798  1.00  0.00    -0.110 OA 
HETATM    2  C   UNL     1      -8.749   9.973  64.045  1.00  0.00    -0.208 A  
HETATM    3  H   UNL     1      -7.109   8.935  64.483  1.00  0.00     0.000 HD 
HETATM    4  N   UNL     1      -9.573  10.346  63.107  1.00  0.00    -0.318 NA 
HETATM    5  C   UNL     1     -10.471  11.158  63.750  1.00  0.00    -0.381 A  
HETATM    6  C   UNL     1     -11.541  11.886  63.214  1.00  0.00    -0.380 A  
HETATM    7  C   UNL     1     -12.324  12.665  64.075  1.00  0.00    -0.528 A  
HETATM    8  C   UNL     1     -12.064  12.696  65.443  1.00  0.00    -0.516 A  
HETATM    9  C   UNL     1     -11.005  11.972  66.000  1.00  0.00    -0.346 A  
HETATM   10  C   UNL     1     -10.202  11.237  65.120  1.00  0.00    -0.289 A  
HETATM   11  N   UNL     1      -9.044  10.516  65.266  1.00  0.00    -0.180 NA 
ENDROOT
BRANCH  11  12
HETATM   12  C   UNL     1      -8.138  10.476  66.393  1.00  0.00    -0.135 C  
HETATM   13  C   UNL     1      -8.814  10.479  67.761  1.00  0.00    -0.125 C  
HETATM   14  C   UNL     1      -7.736  10.149  68.796  1.00  0.00    -0.088 C  
HETATM   15  N   UNL     1      -6.597  11.086  68.779  1.00  0.00    -0.057 NA 
HETATM   16  C   UNL     1      -6.011  11.220  67.437  1.00  0.00    -0.062 C  
HETATM   17  C   UNL     1      -7.038  11.542  66.354  1.00  0.00     0.064 C  
BRANCH  15  18
HETATM   18  C   UNL     1      -6.898  12.392  69.381  1.00  0.00     0.021 C  
BRANCH  18  19
HETATM   19  C   UNL     1      -6.633  13.561  68.428  1.00  0.00    -0.095 C  
BRANCH  19  20
HETATM   20  C   UNL     1      -7.930  14.153  67.873  1.00  0.00    -0.157 C  
BRANCH  20  21
HETATM   21  C   UNL     1      -8.486  15.226  68.783  1.00  0.00    -0.181 C  
HETATM   22  O   UNL     1      -7.829  16.195  69.155  1.00  0.00    -0.222 OA 
BRANCH  21  23
HETATM   23  C   UNL     1      -9.881  15.065  69.274  1.00  0.00    -0.200 A  
HETATM   24  C   UNL     1     -10.360  15.997  70.205  1.00  0.00    -0.006 A  
HETATM   25  C   UNL     1     -11.651  15.873  70.717  1.00  0.00    -0.441 A  
HETATM   26  C   UNL     1     -12.461  14.830  70.288  1.00  0.00    -0.340 A  
HETATM   27  C   UNL     1     -12.005  13.908  69.353  1.00  0.00    -0.402 A  
HETATM   28  F   UNL     1     -13.699  14.711  70.781  1.00  0.00    -0.390 F  
HETATM   29  C   UNL     1     -10.710  14.021  68.842  1.00  0.00    -0.265 A  
ENDBRANCH  21  23
ENDBRANCH  20  21
ENDBRANCH  19  20
ENDBRANCH  18  19
ENDBRANCH  15  18
ENDBRANCH  11  12
TORSDOF 6
ENDMDL
MODEL      204
REMARK 921   NORMALIZED FREE ENERGY PREDICTED BY IDOCK:   -4.11 KCAL/MOL
REMARK 922        TOTAL FREE ENERGY PREDICTED BY IDOCK:   -6.85 KCAL/MOL
REMARK 923 INTER-LIGAND FREE ENERGY PREDICTED BY IDOCK:   -5.66 KCAL/MOL
REMARK 924 INTRA-LIGAND FREE ENERGY PREDICTED BY IDOCK:   -1.19 KCAL/MOL
REMARK 927      BINDING AFFINITY PREDICTED BY RF-SCORE:    0.00 PKD
ROOT
HETATM    1  O   UNL     1      -5.928   8.895  66.866  1.00  0.00    -0.054 OA 
HETATM    2  C   UNL     1      -6.970   8.815  67.662  1.00  0.00    -0.075 A  
HETATM    3  H   UNL     1      -5.322   9.626  66.900  1.00  0.00     0.000 HD 
HETATM    4  N   UNL     1      -7.801   7.812  67.616  1.00  0.00    -0.120 NA 
HETATM    5  C   UNL     1      -8.756   8.122  68.551  1.00  0.00    -0.134 A  
HETATM    6  C   UNL     1      -9.926   7.425  68.879  1.00  0.00    -0.169 A  
HETATM    7  C   UNL     1     -10.764   7.947  69.871  1.00  0.00    -0.244 A  
HETATM    8  C   UNL     1     -10.431   9.122  70.541  1.00  0.00    -0.289 A  
HETATM    9  C   UNL     1      -9.266   9.831  70.233  1.00  0.00    -0.225 A  
HETATM   10  C   UNL     1      -8.463   9.322  69.205  1.00  0.00    -0.137 A  
HETATM   11  N   UNL     1      -7.340   9.778  68.561  1.00  0.00    -0.074 NA 
ENDROOT
BRANCH  11  12
HETATM   12  C   UNL     1      -6.743  11.095  68.605  1.00  0.00    -0.062 C  
HETATM   13  C   UNL     1      -6.651  11.713  69.997  1.00  0.00     0.040 C  
HETATM   14  C   UNL     1      -5.753  12.946  69.885  1.00  0.00    -0.122 C  
HETATM   15  N   UNL     1      -6.237  13.939  68.908  1.00  0.00    -0.085 NA 
HETATM   16  C   UNL     1      -6.478  13.344  67.585  1.00  0.00    -0.162 C  
HETATM   17  C   UNL     1      -7.363  12.101  67.630  1.00  0.00    -0.122 C  
BRANCH  15  18
HETATM   18  C   UNL     1      -7.392  14.717  69.379  1.00  0.00    -0.135 C  
BRANCH  18  19
HETATM   19  C   UNL     1      -8.203  15.329  68.234  1.00  0.00    -0.142 C  
BRANCH  19  20
HETATM   20  C   UNL     1      -9.305  16.259  68.745  1.00  0.00    -0.235 C  
BRANCH  20  21
HETATM   21  C   UNL     1     -10.681  15.690  68.479  1.00  0.00    -0.264 C  
HETATM   22  O   UNL     1     -11.290  15.877  67.428  1.00  0.00    -0.202 OA 
BRANCH  21  23
HETATM   23  C   UNL     1     -11.330  14.905  69.563  1.00  0.00    -0.307 A  
HETATM   24  C   UNL     1     -11.459  13.521  69.382  1.00  0.00    -0.340 A  
HETATM   25  C   UNL     1     -12.087  12.745  70.355  1.00  0.00    -0.382 A  
HETATM   26  C   UNL     1     -12.569  13.350  71.509  1.00  0.00    -0.236 A  
HETATM   27  C   UNL     1     -12.434  14.720  71.708  1.00  0.00    -0.410 A  
HETATM   28  F   UNL     1     -13.172  12.605  72.442  1.00  0.00    -0.569 F  
HETATM   29  C   UNL     1     -11.813  15.505  70.733  1.00  0.00    -0.406 A  
ENDBRANCH  21  23
ENDBRANCH  20  21
ENDBRANCH  19  20
ENDBRANCH  18  19
ENDBRANCH  15  18
ENDBRANCH  11  12
TORSDOF 6
ENDMDL
MODEL      205
REMARK 921   NORMALIZED FREE ENERGY PREDICTED BY IDOCK:   -4.08 KCAL/MOL
REMARK 922        TOTAL FREE ENERGY PREDICTED BY IDOCK:   -6.82 KCAL/MOL
REMARK 923 INTER-LIGAND FREE ENERGY PREDICTED BY IDOCK:   -6.83 KCAL/MOL
REMARK 924 INTRA-LIGAND FREE ENERGY PREDICTED BY IDOCK:    0.01 KCAL/MOL
REMARK 927      BINDING AFFINITY PREDICTED BY RF-SCORE:    0.00 PKD
ROOT
HETATM    1  O   UNL     1     -10.453  11.464  69.469  1.00  0.00    -0.434 OA 
HETATM    2  C   UNL     1      -9.595  11.118  68.535  1.00  0.00    -0.193 A  
HETATM    3  H   UNL     1     -11.336  11.748  69.263  1.00  0.00     0.000 HD 
HETATM    4  N   UNL     1      -8.384  10.729  68.816  1.00  0.00    -0.140 NA 
HETATM    5  C   UNL     1      -7.806  10.512  67.591  1.00  0.00    -0.105 A  
HETATM    6  C   UNL     1      -6.489  10.139  67.292  1.00  0.00    -0.068 A  
HETATM    7  C   UNL     1      -6.122   9.985  65.951  1.00  0.00    -0.080 A  
HETATM    8  C   UNL     1      -7.051  10.171  64.930  1.00  0.00    -0.131 A  
HETATM    9  C   UNL     1      -8.373  10.538  65.206  1.00  0.00    -0.155 A  
HETATM   10  C   UNL     1      -8.712  10.734  66.550  1.00  0.00    -0.151 A  
HETATM   11  N   UNL     1      -9.838  11.191  67.189  1.00  0.00    -0.185 NA 
ENDROOT
BRANCH  11  12
HETATM   12  C   UNL     1     -10.997  11.846  66.625  1.00  0.00    -0.291 C  
HETATM   13  C   UNL     1     -11.100  11.773  65.104  1.00  0.00    -0.341 C  
HETATM   14  C   UNL     1     -12.501  12.255  64.724  1.00  0.00    -0.302 C  
HETATM   15  N   UNL     1     -12.803  13.618  65.198  1.00  0.00    -0.738 NA 
HETATM   16  C   UNL     1     -12.572  13.766  66.644  1.00  0.00    -0.124 C  
HETATM   17  C   UNL     1     -11.191  13.293  67.090  1.00  0.00    -0.327 C  
BRANCH  15  18
HETATM   18  C   UNL     1     -12.135  14.674  64.424  1.00  0.00    -0.462 C  
BRANCH  18  19
HETATM   19  C   UNL     1     -11.342  15.644  65.304  1.00  0.00    -0.139 C  
BRANCH  19  20
HETATM   20  C   UNL     1      -9.847  15.615  64.985  1.00  0.00     0.156 C  
BRANCH  20  21
HETATM   21  C   UNL     1      -9.009  15.865  66.219  1.00  0.00    -0.346 C  
HETATM   22  O   UNL     1      -8.051  15.162  66.532  1.00  0.00    -0.083 OA 
BRANCH  21  23
HETATM   23  C   UNL     1      -9.399  16.994  67.106  1.00  0.00    -0.241 A  
HETATM   24  C   UNL     1      -9.451  18.279  66.547  1.00  0.00    -0.312 A  
HETATM   25  C   UNL     1      -9.782  19.374  67.343  1.00  0.00    -0.424 A  
HETATM   26  C   UNL     1     -10.073  19.181  68.688  1.00  0.00    -0.398 A  
HETATM   27  C   UNL     1     -10.039  17.911  69.252  1.00  0.00    -0.115 A  
HETATM   28  F   UNL     1     -10.389  20.233  69.452  1.00  0.00    -0.451 F  
HETATM   29  C   UNL     1      -9.701  16.809  68.462  1.00  0.00    -0.248 A  
ENDBRANCH  21  23
ENDBRANCH  20  21
ENDBRANCH  19  20
ENDBRANCH  18  19
ENDBRANCH  15  18
ENDBRANCH  11  12
TORSDOF 6
ENDMDL
MODEL      206
REMARK 921   NORMALIZED FREE ENERGY PREDICTED BY IDOCK:   -4.07 KCAL/MOL
REMARK 922        TOTAL FREE ENERGY PREDICTED BY IDOCK:   -6.81 KCAL/MOL
REMARK 923 INTER-LIGAND FREE ENERGY PREDICTED BY IDOCK:   -6.16 KCAL/MOL
REMARK 924 INTRA-LIGAND FREE ENERGY PREDICTED BY IDOCK:   -0.65 KCAL/MOL
REMARK 927      BINDING AFFINITY PREDICTED BY RF-SCORE:    0.00 PKD
ROOT
HETATM    1  O   UNL     1      -7.749  11.570  69.065  1.00  0.00    -0.247 OA 
HETATM    2  C   UNL     1      -7.188  10.852  68.118  1.00  0.00    -0.083 A  
HETATM    3  H   UNL     1      -8.043  11.187  69.882  1.00  0.00     0.000 HD 
HETATM    4  N   UNL     1      -6.784  11.378  66.996  1.00  0.00    -0.119 NA 
HETATM    5  C   UNL     1      -6.314  10.311  66.274  1.00  0.00    -0.090 A  
HETATM    6  C   UNL     1      -5.814  10.285  64.965  1.00  0.00    -0.133 A  
HETATM    7  C   UNL     1      -5.398   9.062  64.428  1.00  0.00    -0.054 A  
HETATM    8  C   UNL     1      -5.451   7.894  65.186  1.00  0.00    -0.033 A  
HETATM    9  C   UNL     1      -5.941   7.898  66.496  1.00  0.00    -0.041 A  
HETATM   10  C   UNL     1      -6.398   9.120  67.002  1.00  0.00    -0.063 A  
HETATM   11  N   UNL     1      -7.030   9.493  68.162  1.00  0.00    -0.077 NA 
ENDROOT
BRANCH  11  12
HETATM   12  C   UNL     1      -7.640   8.654  69.170  1.00  0.00    -0.089 C  
HETATM   13  C   UNL     1      -9.093   8.274  68.897  1.00  0.00    -0.147 C  
HETATM   14  C   UNL     1      -9.467   7.177  69.896  1.00  0.00    -0.153 C  
HETATM   15  N   UNL     1      -9.293   7.580  71.304  1.00  0.00    -0.150 NA 
HETATM   16  C   UNL     1      -7.941   8.093  71.571  1.00  0.00    -0.117 C  
HETATM   17  C   UNL     1      -7.503   9.187  70.600  1.00  0.00    -0.129 C  
BRANCH  15  18
HETATM   18  C   UNL     1     -10.335   8.497  71.788  1.00  0.00    -0.284 C  
BRANCH  18  19
HETATM   19  C   UNL     1     -11.720   8.177  71.220  1.00  0.00    -0.310 C  
BRANCH  19  20
HETATM   20  C   UNL     1     -12.368   9.398  70.566  1.00  0.00     0.007 C  
BRANCH  20  21
HETATM   21  C   UNL     1     -12.986  10.319  71.594  1.00  0.00    -0.465 C  
HETATM   22  O   UNL     1     -13.609   9.910  72.571  1.00  0.00    -0.317 OA 
BRANCH  21  23
HETATM   23  C   UNL     1     -12.858  11.786  71.379  1.00  0.00    -0.440 A  
HETATM   24  C   UNL     1     -13.595  12.637  72.214  1.00  0.00    -0.508 A  
HETATM   25  C   UNL     1     -13.533  14.018  72.034  1.00  0.00    -0.528 A  
HETATM   26  C   UNL     1     -12.726  14.543  71.033  1.00  0.00    -0.343 A  
HETATM   27  C   UNL     1     -11.978  13.711  70.207  1.00  0.00    -0.397 A  
HETATM   28  F   UNL     1     -12.667  15.868  70.859  1.00  0.00    -0.464 F  
HETATM   29  C   UNL     1     -12.041  12.326  70.377  1.00  0.00    -0.385 A  
ENDBRANCH  21  23
ENDBRANCH  20  21
ENDBRANCH  19  20
ENDBRANCH  18  19
ENDBRANCH  15  18
ENDBRANCH  11  12
TORSDOF 6
ENDMDL
MODEL      207
REMARK 921   NORMALIZED FREE ENERGY PREDICTED BY IDOCK:   -4.06 KCAL/MOL
REMARK 922        TOTAL FREE ENERGY PREDICTED BY IDOCK:   -6.80 KCAL/MOL
REMARK 923 INTER-LIGAND FREE ENERGY PREDICTED BY IDOCK:   -6.12 KCAL/MOL
REMARK 924 INTRA-LIGAND FREE ENERGY PREDICTED BY IDOCK:   -0.67 KCAL/MOL
REMARK 927      BINDING AFFINITY PREDICTED BY RF-SCORE:    0.00 PKD
ROOT
HETATM    1  O   UNL     1     -11.393   6.170  68.866  1.00  0.00    -0.425 OA 
HETATM    2  C   UNL     1     -10.888   7.259  68.332  1.00  0.00    -0.058 A  
HETATM    3  H   UNL     1     -11.543   6.088  69.800  1.00  0.00     0.000 HD 
HETATM    4  N   UNL     1     -10.682   7.371  67.050  1.00  0.00    -0.356 NA 
HETATM    5  C   UNL     1     -10.111   8.611  66.908  1.00  0.00    -0.285 A  
HETATM    6  C   UNL     1      -9.627   9.229  65.748  1.00  0.00    -0.341 A  
HETATM    7  C   UNL     1      -9.070  10.509  65.850  1.00  0.00    -0.192 A  
HETATM    8  C   UNL     1      -9.022  11.171  67.075  1.00  0.00    -0.156 A  
HETATM    9  C   UNL     1      -9.505  10.575  68.244  1.00  0.00    -0.158 A  
HETATM   10  C   UNL     1     -10.015   9.276  68.134  1.00  0.00    -0.177 A  
HETATM   11  N   UNL     1     -10.462   8.349  69.043  1.00  0.00    -0.220 NA 
ENDROOT
BRANCH  11  12
HETATM   12  C   UNL     1     -10.330   8.357  70.483  1.00  0.00    -0.199 C  
HETATM   13  C   UNL     1      -8.915   8.117  71.001  1.00  0.00    -0.173 C  
HETATM   14  C   UNL     1      -8.921   8.441  72.496  1.00  0.00    -0.238 C  
HETATM   15  N   UNL     1      -9.896   7.647  73.266  1.00  0.00    -0.278 NA 
HETATM   16  C   UNL     1     -11.253   7.738  72.705  1.00  0.00    -0.381 C  
HETATM   17  C   UNL     1     -11.313   7.432  71.210  1.00  0.00    -0.289 C  
BRANCH  15  18
HETATM   18  C   UNL     1      -9.482   6.253  73.482  1.00  0.00    -0.141 C  
BRANCH  18  19
HETATM   19  C   UNL     1     -10.520   5.440  74.261  1.00  0.00    -0.294 C  
BRANCH  19  20
HETATM   20  C   UNL     1     -11.109   4.307  73.419  1.00  0.00    -0.371 C  
BRANCH  20  21
HETATM   21  C   UNL     1     -10.065   3.268  73.073  1.00  0.00    -0.146 C  
HETATM   22  O   UNL     1      -9.488   2.592  73.920  1.00  0.00    -0.083 OA 
BRANCH  21  23
HETATM   23  C   UNL     1      -9.704   3.098  71.640  1.00  0.00    -0.235 A  
HETATM   24  C   UNL     1      -9.762   1.806  71.099  1.00  0.00    -0.186 A  
HETATM   25  C   UNL     1      -9.405   1.588  69.769  1.00  0.00    -0.158 A  
HETATM   26  C   UNL     1      -9.005   2.662  68.983  1.00  0.00    -0.115 A  
HETATM   27  C   UNL     1      -8.958   3.951  69.502  1.00  0.00    -0.168 A  
HETATM   28  F   UNL     1      -8.661   2.452  67.707  1.00  0.00    -0.085 F  
HETATM   29  C   UNL     1      -9.307   4.175  70.836  1.00  0.00    -0.217 A  
ENDBRANCH  21  23
ENDBRANCH  20  21
ENDBRANCH  19  20
ENDBRANCH  18  19
ENDBRANCH  15  18
ENDBRANCH  11  12
TORSDOF 6
ENDMDL
MODEL      208
REMARK 921   NORMALIZED FREE ENERGY PREDICTED BY IDOCK:   -4.05 KCAL/MOL
REMARK 922        TOTAL FREE ENERGY PREDICTED BY IDOCK:   -6.78 KCAL/MOL
REMARK 923 INTER-LIGAND FREE ENERGY PREDICTED BY IDOCK:   -6.34 KCAL/MOL
REMARK 924 INTRA-LIGAND FREE ENERGY PREDICTED BY IDOCK:   -0.44 KCAL/MOL
REMARK 927      BINDING AFFINITY PREDICTED BY RF-SCORE:    0.00 PKD
ROOT
HETATM    1  O   UNL     1     -10.140  11.270  62.761  1.00  0.00    -0.583 OA 
HETATM    2  C   UNL     1      -9.661  10.718  63.853  1.00  0.00    -0.293 A  
HETATM    3  H   UNL     1     -10.525  12.138  62.762  1.00  0.00     0.000 HD 
HETATM    4  N   UNL     1      -9.133   9.526  63.853  1.00  0.00    -0.196 NA 
HETATM    5  C   UNL     1      -8.807   9.302  65.166  1.00  0.00    -0.198 A  
HETATM    6  C   UNL     1      -8.264   8.152  65.754  1.00  0.00    -0.126 A  
HETATM    7  C   UNL     1      -8.023   8.151  67.133  1.00  0.00    -0.105 A  
HETATM    8  C   UNL     1      -8.291   9.280  67.905  1.00  0.00    -0.116 A  
HETATM    9  C   UNL     1      -8.828  10.440  67.338  1.00  0.00    -0.133 A  
HETATM   10  C   UNL     1      -9.107  10.408  65.967  1.00  0.00    -0.162 A  
HETATM   11  N   UNL     1      -9.721  11.279  65.100  1.00  0.00    -0.235 NA 
ENDROOT
BRANCH  11  12
HETATM   12  C   UNL     1     -10.497  12.461  65.403  1.00  0.00    -0.277 C  
HETATM   13  C   UNL     1     -10.735  13.395  64.220  1.00  0.00    -0.374 C  
HETATM   14  C   UNL     1     -11.791  14.413  64.655  1.00  0.00    -0.451 C  
HETATM   15  N   UNL     1     -11.408  15.183  65.853  1.00  0.00    -0.281 NA 
HETATM   16  C   UNL     1     -11.027  14.310  66.975  1.00  0.00    -0.303 C  
HETATM   17  C   UNL     1      -9.980  13.263  66.603  1.00  0.00    -0.272 C  
BRANCH  15  18
HETATM   18  C   UNL     1     -10.394  16.215  65.592  1.00  0.00    -0.382 C  
BRANCH  18  19
HETATM   19  C   UNL     1      -9.781  16.783  66.875  1.00  0.00    -0.263 C  
BRANCH  19  20
HETATM   20  C   UNL     1      -8.290  17.082  66.714  1.00  0.00    -0.267 C  
BRANCH  20  21
HETATM   21  C   UNL     1      -7.571  17.064  68.045  1.00  0.00    -0.181 C  
HETATM   22  O   UNL     1      -7.453  18.059  68.756  1.00  0.00    -0.272 OA 
BRANCH  21  23
HETATM   23  C   UNL     1      -6.950  15.784  68.481  1.00  0.00    -0.117 A  
HETATM   24  C   UNL     1      -6.611  14.851  67.492  1.00  0.00    -0.140 A  
HETATM   25  C   UNL     1      -6.053  13.624  67.851  1.00  0.00    -0.154 A  
HETATM   26  C   UNL     1      -5.824  13.341  69.191  1.00  0.00    -0.080 A  
HETATM   27  C   UNL     1      -6.143  14.265  70.182  1.00  0.00    -0.160 A  
HETATM   28  F   UNL     1      -5.291  12.164  69.536  1.00  0.00    -0.063 F  
HETATM   29  C   UNL     1      -6.709  15.492  69.830  1.00  0.00    -0.157 A  
ENDBRANCH  21  23
ENDBRANCH  20  21
ENDBRANCH  19  20
ENDBRANCH  18  19
ENDBRANCH  15  18
ENDBRANCH  11  12
TORSDOF 6
ENDMDL
MODEL      209
REMARK 921   NORMALIZED FREE ENERGY PREDICTED BY IDOCK:   -4.01 KCAL/MOL
REMARK 922        TOTAL FREE ENERGY PREDICTED BY IDOCK:   -6.73 KCAL/MOL
REMARK 923 INTER-LIGAND FREE ENERGY PREDICTED BY IDOCK:   -7.26 KCAL/MOL
REMARK 924 INTRA-LIGAND FREE ENERGY PREDICTED BY IDOCK:    0.53 KCAL/MOL
REMARK 927      BINDING AFFINITY PREDICTED BY RF-SCORE:    0.00 PKD
ROOT
HETATM    1  O   UNL     1      -9.152   3.945  73.364  1.00  0.00    -0.102 OA 
HETATM    2  C   UNL     1      -8.791   3.597  72.150  1.00  0.00    -0.092 A  
HETATM    3  H   UNL     1      -9.935   4.456  73.531  1.00  0.00     0.000 HD 
HETATM    4  N   UNL     1      -7.717   2.895  71.921  1.00  0.00    -0.052 NA 
HETATM    5  C   UNL     1      -7.669   2.789  70.554  1.00  0.00    -0.043 A  
HETATM    6  C   UNL     1      -6.689   2.189  69.752  1.00  0.00    -0.033 A  
HETATM    7  C   UNL     1      -6.851   2.214  68.361  1.00  0.00    -0.039 A  
HETATM    8  C   UNL     1      -7.977   2.796  67.784  1.00  0.00    -0.068 A  
HETATM    9  C   UNL     1      -8.970   3.395  68.566  1.00  0.00    -0.185 A  
HETATM   10  C   UNL     1      -8.769   3.405  69.952  1.00  0.00    -0.076 A  
HETATM   11  N   UNL     1      -9.439   3.976  71.005  1.00  0.00    -0.150 NA 
ENDROOT
BRANCH  11  12
HETATM   12  C   UNL     1     -10.487   4.973  70.979  1.00  0.00    -0.141 C  
HETATM   13  C   UNL     1     -10.457   5.905  69.771  1.00  0.00    -0.340 C  
HETATM   14  C   UNL     1     -11.775   6.682  69.769  1.00  0.00    -0.216 C  
HETATM   15  N   UNL     1     -12.010   7.446  71.008  1.00  0.00    -0.311 NA 
HETATM   16  C   UNL     1     -11.900   6.604  72.208  1.00  0.00    -0.252 C  
HETATM   17  C   UNL     1     -10.607   5.795  72.267  1.00  0.00    -0.264 C  
BRANCH  15  18
HETATM   18  C   UNL     1     -11.193   8.664  71.114  1.00  0.00    -0.272 C  
BRANCH  18  19
HETATM   19  C   UNL     1     -11.996   9.879  71.587  1.00  0.00    -0.427 C  
BRANCH  19  20
HETATM   20  C   UNL     1     -12.708  10.581  70.430  1.00  0.00    -0.325 C  
BRANCH  20  21
HETATM   21  C   UNL     1     -12.057  11.905  70.097  1.00  0.00    -0.302 C  
HETATM   22  O   UNL     1     -11.206  12.031  69.219  1.00  0.00    -0.244 OA 
BRANCH  21  23
HETATM   23  C   UNL     1     -12.445  13.093  70.904  1.00  0.00    -0.407 A  
HETATM   24  C   UNL     1     -13.258  12.884  72.026  1.00  0.00    -0.549 A  
HETATM   25  C   UNL     1     -13.674  13.968  72.799  1.00  0.00    -0.435 A  
HETATM   26  C   UNL     1     -13.265  15.251  72.457  1.00  0.00    -0.430 A  
HETATM   27  C   UNL     1     -12.446  15.470  71.355  1.00  0.00    -0.480 A  
HETATM   28  F   UNL     1     -13.666  16.291  73.197  1.00  0.00    -0.631 F  
HETATM   29  C   UNL     1     -12.032  14.390  70.572  1.00  0.00    -0.395 A  
ENDBRANCH  21  23
ENDBRANCH  20  21
ENDBRANCH  19  20
ENDBRANCH  18  19
ENDBRANCH  15  18
ENDBRANCH  11  12
TORSDOF 6
ENDMDL
MODEL      210
REMARK 921   NORMALIZED FREE ENERGY PREDICTED BY IDOCK:   -4.00 KCAL/MOL
REMARK 922        TOTAL FREE ENERGY PREDICTED BY IDOCK:   -6.71 KCAL/MOL
REMARK 923 INTER-LIGAND FREE ENERGY PREDICTED BY IDOCK:   -6.00 KCAL/MOL
REMARK 924 INTRA-LIGAND FREE ENERGY PREDICTED BY IDOCK:   -0.71 KCAL/MOL
REMARK 927      BINDING AFFINITY PREDICTED BY RF-SCORE:    0.00 PKD
ROOT
HETATM    1  O   UNL     1      -6.823   4.601  68.207  1.00  0.00    -0.053 OA 
HETATM    2  C   UNL     1      -6.987   4.584  69.510  1.00  0.00    -0.050 A  
HETATM    3  H   UNL     1      -7.173   5.297  67.663  1.00  0.00     0.000 HD 
HETATM    4  N   UNL     1      -6.506   3.630  70.257  1.00  0.00    -0.031 NA 
HETATM    5  C   UNL     1      -6.927   3.949  71.523  1.00  0.00    -0.031 A  
HETATM    6  C   UNL     1      -6.750   3.234  72.715  1.00  0.00    -0.026 A  
HETATM    7  C   UNL     1      -7.285   3.757  73.898  1.00  0.00    -0.057 A  
HETATM    8  C   UNL     1      -7.956   4.977  73.900  1.00  0.00    -0.102 A  
HETATM    9  C   UNL     1      -8.140   5.710  72.722  1.00  0.00    -0.105 A  
HETATM   10  C   UNL     1      -7.641   5.150  71.540  1.00  0.00    -0.101 A  
HETATM   11  N   UNL     1      -7.720   5.500  70.215  1.00  0.00    -0.083 NA 
ENDROOT
BRANCH  11  12
HETATM   12  C   UNL     1      -8.572   6.487  69.588  1.00  0.00    -0.132 C  
HETATM   13  C   UNL     1      -7.860   7.762  69.145  1.00  0.00    -0.114 C  
HETATM   14  C   UNL     1      -8.840   8.543  68.267  1.00  0.00    -0.142 C  
HETATM   15  N   UNL     1     -10.108   8.868  68.946  1.00  0.00    -0.192 NA 
HETATM   16  C   UNL     1     -10.752   7.675  69.517  1.00  0.00    -0.209 C  
HETATM   17  C   UNL     1      -9.822   6.846  70.399  1.00  0.00    -0.187 C  
BRANCH  15  18
HETATM   18  C   UNL     1      -9.990   9.953  69.930  1.00  0.00    -0.252 C  
BRANCH  18  19
HETATM   19  C   UNL     1     -11.346  10.406  70.480  1.00  0.00    -0.424 C  
BRANCH  19  20
HETATM   20  C   UNL     1     -12.246  10.979  69.385  1.00  0.00    -0.329 C  
BRANCH  20  21
HETATM   21  C   UNL     1     -11.697  12.276  68.833  1.00  0.00    -0.328 C  
HETATM   22  O   UNL     1     -11.342  13.210  69.548  1.00  0.00    -0.234 OA 
BRANCH  21  23
HETATM   23  C   UNL     1     -11.627  12.427  67.355  1.00  0.00    -0.433 A  
HETATM   24  C   UNL     1     -12.210  13.567  66.784  1.00  0.00    -0.392 A  
HETATM   25  C   UNL     1     -12.196  13.741  65.401  1.00  0.00    -0.465 A  
HETATM   26  C   UNL     1     -11.590  12.785  64.596  1.00  0.00    -0.338 A  
HETATM   27  C   UNL     1     -10.995  11.657  65.150  1.00  0.00    -0.326 A  
HETATM   28  F   UNL     1     -11.579  12.951  63.268  1.00  0.00    -0.524 F  
HETATM   29  C   UNL     1     -11.011  11.472  66.534  1.00  0.00    -0.346 A  
ENDBRANCH  21  23
ENDBRANCH  20  21
ENDBRANCH  19  20
ENDBRANCH  18  19
ENDBRANCH  15  18
ENDBRANCH  11  12
TORSDOF 6
ENDMDL
MODEL      211
REMARK 921   NORMALIZED FREE ENERGY PREDICTED BY IDOCK:   -3.99 KCAL/MOL
REMARK 922        TOTAL FREE ENERGY PREDICTED BY IDOCK:   -6.70 KCAL/MOL
REMARK 923 INTER-LIGAND FREE ENERGY PREDICTED BY IDOCK:   -4.97 KCAL/MOL
REMARK 924 INTRA-LIGAND FREE ENERGY PREDICTED BY IDOCK:   -1.73 KCAL/MOL
REMARK 927      BINDING AFFINITY PREDICTED BY RF-SCORE:    0.00 PKD
ROOT
HETATM    1  O   UNL     1     -10.430   4.438  72.543  1.00  0.00    -0.188 OA 
HETATM    2  C   UNL     1     -10.874   5.643  72.264  1.00  0.00    -0.242 A  
HETATM    3  H   UNL     1      -9.506   4.220  72.510  1.00  0.00     0.000 HD 
HETATM    4  N   UNL     1     -12.142   5.942  72.310  1.00  0.00    -0.201 NA 
HETATM    5  C   UNL     1     -12.193   7.253  71.911  1.00  0.00    -0.313 A  
HETATM    6  C   UNL     1     -13.314   8.071  71.716  1.00  0.00    -0.370 A  
HETATM    7  C   UNL     1     -13.118   9.390  71.290  1.00  0.00    -0.363 A  
HETATM    8  C   UNL     1     -11.835   9.893  71.090  1.00  0.00    -0.472 A  
HETATM    9  C   UNL     1     -10.702   9.096  71.284  1.00  0.00    -0.401 A  
HETATM   10  C   UNL     1     -10.916   7.765  71.663  1.00  0.00    -0.235 A  
HETATM   11  N   UNL     1     -10.092   6.681  71.834  1.00  0.00    -0.182 NA 
ENDROOT
BRANCH  11  12
HETATM   12  C   UNL     1      -8.708   6.524  71.443  1.00  0.00    -0.130 C  
HETATM   13  C   UNL     1      -7.721   7.402  72.206  1.00  0.00    -0.098 C  
HETATM   14  C   UNL     1      -6.316   6.900  71.867  1.00  0.00    -0.048 C  
HETATM   15  N   UNL     1      -6.018   6.920  70.423  1.00  0.00    -0.024 NA 
HETATM   16  C   UNL     1      -7.034   6.204  69.637  1.00  0.00    -0.071 C  
HETATM   17  C   UNL     1      -8.462   6.654  69.936  1.00  0.00    -0.139 C  
BRANCH  15  18
HETATM   18  C   UNL     1      -5.759   8.265  69.891  1.00  0.00    -0.025 C  
BRANCH  18  19
HETATM   19  C   UNL     1      -5.565   8.277  68.373  1.00  0.00    -0.034 C  
BRANCH  19  20
HETATM   20  C   UNL     1      -5.313   9.688  67.838  1.00  0.00    -0.036 C  
BRANCH  20  21
HETATM   21  C   UNL     1      -6.309  10.063  66.763  1.00  0.00    -0.069 C  
HETATM   22  O   UNL     1      -6.068  10.888  65.885  1.00  0.00    -0.133 OA 
BRANCH  21  23
HETATM   23  C   UNL     1      -7.652   9.424  66.808  1.00  0.00    -0.097 A  
HETATM   24  C   UNL     1      -8.575   9.907  67.747  1.00  0.00    -0.121 A  
HETATM   25  C   UNL     1      -9.837   9.322  67.848  1.00  0.00    -0.200 A  
HETATM   26  C   UNL     1     -10.176   8.271  67.006  1.00  0.00    -0.310 A  
HETATM   27  C   UNL     1      -9.275   7.793  66.061  1.00  0.00    -0.139 A  
HETATM   28  F   UNL     1     -11.387   7.710  67.105  1.00  0.00    -0.225 F  
HETATM   29  C   UNL     1      -8.006   8.368  65.958  1.00  0.00    -0.101 A  
ENDBRANCH  21  23
ENDBRANCH  20  21
ENDBRANCH  19  20
ENDBRANCH  18  19
ENDBRANCH  15  18
ENDBRANCH  11  12
TORSDOF 6
ENDMDL
MODEL      212
REMARK 921   NORMALIZED FREE ENERGY PREDICTED BY IDOCK:   -3.98 KCAL/MOL
REMARK 922        TOTAL FREE ENERGY PREDICTED BY IDOCK:   -6.68 KCAL/MOL
REMARK 923 INTER-LIGAND FREE ENERGY PREDICTED BY IDOCK:   -7.08 KCAL/MOL
REMARK 924 INTRA-LIGAND FREE ENERGY PREDICTED BY IDOCK:    0.39 KCAL/MOL
REMARK 927      BINDING AFFINITY PREDICTED BY RF-SCORE:    0.00 PKD
ROOT
HETATM    1  O   UNL     1     -11.165  13.069  63.559  1.00  0.00    -0.582 OA 
HETATM    2  C   UNL     1     -10.938  13.901  64.550  1.00  0.00    -0.369 A  
HETATM    3  H   UNL     1     -11.032  12.132  63.646  1.00  0.00     0.000 HD 
HETATM    4  N   UNL     1     -11.120  15.186  64.431  1.00  0.00    -0.208 NA 
HETATM    5  C   UNL     1     -10.732  15.695  65.644  1.00  0.00    -0.364 A  
HETATM    6  C   UNL     1     -10.660  17.032  66.056  1.00  0.00    -0.208 A  
HETATM    7  C   UNL     1     -10.219  17.314  67.354  1.00  0.00    -0.325 A  
HETATM    8  C   UNL     1      -9.883  16.287  68.232  1.00  0.00    -0.227 A  
HETATM    9  C   UNL     1      -9.953  14.945  67.844  1.00  0.00    -0.219 A  
HETATM   10  C   UNL     1     -10.350  14.682  66.528  1.00  0.00    -0.282 A  
HETATM   11  N   UNL     1     -10.429  13.541  65.769  1.00  0.00    -0.286 NA 
ENDROOT
BRANCH  11  12
HETATM   12  C   UNL     1      -9.890  12.228  66.048  1.00  0.00    -0.248 C  
HETATM   13  C   UNL     1     -10.640  11.072  65.392  1.00  0.00    -0.270 C  
HETATM   14  C   UNL     1      -9.776   9.821  65.561  1.00  0.00    -0.312 C  
HETATM   15  N   UNL     1      -9.467   9.505  66.967  1.00  0.00    -0.150 NA 
HETATM   16  C   UNL     1      -8.875  10.650  67.676  1.00  0.00    -0.131 C  
HETATM   17  C   UNL     1      -9.687  11.935  67.539  1.00  0.00    -0.185 C  
BRANCH  15  18
HETATM   18  C   UNL     1     -10.599   8.928  67.706  1.00  0.00    -0.202 C  
BRANCH  18  19
HETATM   19  C   UNL     1     -10.481   9.120  69.220  1.00  0.00    -0.231 C  
BRANCH  19  20
HETATM   20  C   UNL     1     -11.020   7.916  69.994  1.00  0.00    -0.208 C  
BRANCH  20  21
HETATM   21  C   UNL     1     -10.798   8.066  71.483  1.00  0.00    -0.232 C  
HETATM   22  O   UNL     1     -10.796   9.155  72.053  1.00  0.00    -0.352 OA 
BRANCH  21  23
HETATM   23  C   UNL     1     -10.532   6.834  72.273  1.00  0.00    -0.233 A  
HETATM   24  C   UNL     1      -9.309   6.743  72.953  1.00  0.00    -0.151 A  
HETATM   25  C   UNL     1      -9.000   5.596  73.683  1.00  0.00    -0.124 A  
HETATM   26  C   UNL     1      -9.916   4.554  73.744  1.00  0.00    -0.153 A  
HETATM   27  C   UNL     1     -11.139   4.638  73.087  1.00  0.00    -0.371 A  
HETATM   28  F   UNL     1      -9.618   3.453  74.443  1.00  0.00    -0.108 F  
HETATM   29  C   UNL     1     -11.452   5.780  72.347  1.00  0.00    -0.343 A  
ENDBRANCH  21  23
ENDBRANCH  20  21
ENDBRANCH  19  20
ENDBRANCH  18  19
ENDBRANCH  15  18
ENDBRANCH  11  12
TORSDOF 6
ENDMDL
MODEL      213
REMARK 921   NORMALIZED FREE ENERGY PREDICTED BY IDOCK:   -3.95 KCAL/MOL
REMARK 922        TOTAL FREE ENERGY PREDICTED BY IDOCK:   -6.65 KCAL/MOL
REMARK 923 INTER-LIGAND FREE ENERGY PREDICTED BY IDOCK:   -6.70 KCAL/MOL
REMARK 924 INTRA-LIGAND FREE ENERGY PREDICTED BY IDOCK:    0.05 KCAL/MOL
REMARK 927      BINDING AFFINITY PREDICTED BY RF-SCORE:    0.00 PKD
ROOT
HETATM    1  O   UNL     1      -8.148   9.697  70.849  1.00  0.00    -0.312 OA 
HETATM    2  C   UNL     1      -8.835   8.679  71.315  1.00  0.00    -0.207 A  
HETATM    3  H   UNL     1      -8.541  10.357  70.290  1.00  0.00     0.000 HD 
HETATM    4  N   UNL     1      -8.297   7.773  72.082  1.00  0.00    -0.110 NA 
HETATM    5  C   UNL     1      -9.310   6.876  72.306  1.00  0.00    -0.137 A  
HETATM    6  C   UNL     1      -9.276   5.668  73.015  1.00  0.00    -0.137 A  
HETATM    7  C   UNL     1     -10.446   4.905  73.101  1.00  0.00    -0.254 A  
HETATM    8  C   UNL     1     -11.631   5.347  72.517  1.00  0.00    -0.225 A  
HETATM    9  C   UNL     1     -11.689   6.552  71.809  1.00  0.00    -0.373 A  
HETATM   10  C   UNL     1     -10.499   7.280  71.692  1.00  0.00    -0.198 A  
HETATM   11  N   UNL     1     -10.141   8.413  71.003  1.00  0.00    -0.190 NA 
ENDROOT
BRANCH  11  12
HETATM   12  C   UNL     1     -10.868   9.109  69.965  1.00  0.00    -0.234 C  
HETATM   13  C   UNL     1     -10.198   9.099  68.594  1.00  0.00    -0.225 C  
HETATM   14  C   UNL     1     -11.226   9.619  67.587  1.00  0.00     0.177 C  
HETATM   15  N   UNL     1     -11.733  10.966  67.905  1.00  0.00    -0.574 NA 
HETATM   16  C   UNL     1     -12.255  11.052  69.278  1.00  0.00    -0.210 C  
HETATM   17  C   UNL     1     -11.277  10.539  70.333  1.00  0.00    -0.378 C  
BRANCH  15  18
HETATM   18  C   UNL     1     -10.774  12.042  67.614  1.00  0.00    -0.217 C  
BRANCH  18  19
HETATM   19  C   UNL     1     -11.263  13.416  68.082  1.00  0.00    -0.304 C  
BRANCH  19  20
HETATM   20  C   UNL     1     -11.588  14.339  66.908  1.00  0.00    -0.405 C  
BRANCH  20  21
HETATM   21  C   UNL     1     -10.349  14.684  66.111  1.00  0.00    -0.300 C  
HETATM   22  O   UNL     1     -10.235  14.440  64.912  1.00  0.00    -0.417 OA 
BRANCH  21  23
HETATM   23  C   UNL     1      -9.211  15.312  66.834  1.00  0.00    -0.255 A  
HETATM   24  C   UNL     1      -8.572  16.403  66.228  1.00  0.00    -0.375 A  
HETATM   25  C   UNL     1      -7.481  17.008  66.851  1.00  0.00    -0.248 A  
HETATM   26  C   UNL     1      -7.043  16.531  68.080  1.00  0.00    -0.145 A  
HETATM   27  C   UNL     1      -7.677  15.459  68.699  1.00  0.00    -0.143 A  
HETATM   28  F   UNL     1      -5.995  17.110  68.677  1.00  0.00    -0.138 F  
HETATM   29  C   UNL     1      -8.766  14.843  68.077  1.00  0.00    -0.165 A  
ENDBRANCH  21  23
ENDBRANCH  20  21
ENDBRANCH  19  20
ENDBRANCH  18  19
ENDBRANCH  15  18
ENDBRANCH  11  12
TORSDOF 6
ENDMDL
MODEL      214
REMARK 921   NORMALIZED FREE ENERGY PREDICTED BY IDOCK:   -3.93 KCAL/MOL
REMARK 922        TOTAL FREE ENERGY PREDICTED BY IDOCK:   -6.61 KCAL/MOL
REMARK 923 INTER-LIGAND FREE ENERGY PREDICTED BY IDOCK:   -5.69 KCAL/MOL
REMARK 924 INTRA-LIGAND FREE ENERGY PREDICTED BY IDOCK:   -0.92 KCAL/MOL
REMARK 927      BINDING AFFINITY PREDICTED BY RF-SCORE:    0.00 PKD
ROOT
HETATM    1  O   UNL     1     -10.705   6.720  66.393  1.00  0.00    -0.490 OA 
HETATM    2  C   UNL     1      -9.885   7.204  67.298  1.00  0.00    -0.167 A  
HETATM    3  H   UNL     1     -11.121   7.272  65.741  1.00  0.00     0.000 HD 
HETATM    4  N   UNL     1      -9.315   6.447  68.193  1.00  0.00    -0.110 NA 
HETATM    5  C   UNL     1      -8.592   7.322  68.963  1.00  0.00    -0.129 A  
HETATM    6  C   UNL     1      -7.831   7.062  70.110  1.00  0.00    -0.109 A  
HETATM    7  C   UNL     1      -7.181   8.129  70.742  1.00  0.00    -0.050 A  
HETATM    8  C   UNL     1      -7.265   9.421  70.228  1.00  0.00    -0.104 A  
HETATM    9  C   UNL     1      -8.015   9.701  69.081  1.00  0.00    -0.099 A  
HETATM   10  C   UNL     1      -8.697   8.632  68.489  1.00  0.00    -0.139 A  
HETATM   11  N   UNL     1      -9.594   8.533  67.454  1.00  0.00    -0.153 NA 
ENDROOT
BRANCH  11  12
HETATM   12  C   UNL     1     -10.307   9.588  66.769  1.00  0.00    -0.228 C  
HETATM   13  C   UNL     1      -9.694  10.021  65.440  1.00  0.00    -0.368 C  
HETATM   14  C   UNL     1     -10.719  10.918  64.743  1.00  0.00    -0.178 C  
HETATM   15  N   UNL     1     -11.110  12.095  65.540  1.00  0.00    -0.307 NA 
HETATM   16  C   UNL     1     -11.569  11.724  66.888  1.00  0.00    -0.234 C  
HETATM   17  C   UNL     1     -10.593  10.820  67.635  1.00  0.00    -0.271 C  
BRANCH  15  18
HETATM   18  C   UNL     1     -10.086  13.148  65.580  1.00  0.00    -0.261 C  
BRANCH  18  19
HETATM   19  C   UNL     1     -10.677  14.556  65.467  1.00  0.00    -0.350 C  
BRANCH  19  20
HETATM   20  C   UNL     1      -9.656  15.637  65.824  1.00  0.00    -0.361 C  
BRANCH  20  21
HETATM   21  C   UNL     1      -9.664  15.945  67.305  1.00  0.00    -0.224 C  
HETATM   22  O   UNL     1     -10.599  16.512  67.865  1.00  0.00    -0.308 OA 
BRANCH  21  23
HETATM   23  C   UNL     1      -8.462  15.573  68.098  1.00  0.00    -0.147 A  
HETATM   24  C   UNL     1      -8.095  14.220  68.137  1.00  0.00    -0.144 A  
HETATM   25  C   UNL     1      -6.994  13.816  68.890  1.00  0.00    -0.111 A  
HETATM   26  C   UNL     1      -6.256  14.764  69.588  1.00  0.00    -0.133 A  
HETATM   27  C   UNL     1      -6.600  16.111  69.547  1.00  0.00    -0.200 A  
HETATM   28  F   UNL     1      -5.200  14.376  70.313  1.00  0.00    -0.093 F  
HETATM   29  C   UNL     1      -7.707  16.522  68.800  1.00  0.00    -0.226 A  
ENDBRANCH  21  23
ENDBRANCH  20  21
ENDBRANCH  19  20
ENDBRANCH  18  19
ENDBRANCH  15  18
ENDBRANCH  11  12
TORSDOF 6
ENDMDL
MODEL      215
REMARK 921   NORMALIZED FREE ENERGY PREDICTED BY IDOCK:   -3.91 KCAL/MOL
REMARK 922        TOTAL FREE ENERGY PREDICTED BY IDOCK:   -6.59 KCAL/MOL
REMARK 923 INTER-LIGAND FREE ENERGY PREDICTED BY IDOCK:   -5.72 KCAL/MOL
REMARK 924 INTRA-LIGAND FREE ENERGY PREDICTED BY IDOCK:   -0.87 KCAL/MOL
REMARK 927      BINDING AFFINITY PREDICTED BY RF-SCORE:    0.00 PKD
ROOT
HETATM    1  O   UNL     1     -10.578   6.773  71.301  1.00  0.00    -0.216 OA 
HETATM    2  C   UNL     1     -10.288   6.349  70.092  1.00  0.00    -0.198 A  
HETATM    3  H   UNL     1     -10.654   7.697  71.507  1.00  0.00     0.000 HD 
HETATM    4  N   UNL     1     -10.185   5.081  69.808  1.00  0.00    -0.277 NA 
HETATM    5  C   UNL     1      -9.830   5.059  68.484  1.00  0.00    -0.151 A  
HETATM    6  C   UNL     1      -9.525   3.959  67.672  1.00  0.00    -0.233 A  
HETATM    7  C   UNL     1      -9.173   4.185  66.336  1.00  0.00    -0.161 A  
HETATM    8  C   UNL     1      -9.154   5.476  65.812  1.00  0.00    -0.152 A  
HETATM    9  C   UNL     1      -9.460   6.588  66.603  1.00  0.00    -0.193 A  
HETATM   10  C   UNL     1      -9.762   6.349  67.949  1.00  0.00    -0.121 A  
HETATM   11  N   UNL     1      -9.997   7.162  69.030  1.00  0.00    -0.170 NA 
ENDROOT
BRANCH  11  12
HETATM   12  C   UNL     1      -9.777   8.586  69.157  1.00  0.00    -0.170 C  
HETATM   13  C   UNL     1     -10.681   9.456  68.289  1.00  0.00    -0.220 C  
HETATM   14  C   UNL     1     -10.505  10.900  68.762  1.00  0.00    -0.200 C  
HETATM   15  N   UNL     1      -9.111  11.375  68.695  1.00  0.00    -0.165 NA 
HETATM   16  C   UNL     1      -8.185  10.476  69.401  1.00  0.00    -0.119 C  
HETATM   17  C   UNL     1      -8.316   9.015  68.979  1.00  0.00    -0.124 C  
BRANCH  15  18
HETATM   18  C   UNL     1      -8.654  11.675  67.331  1.00  0.00    -0.149 C  
BRANCH  18  19
HETATM   19  C   UNL     1      -7.951  13.032  67.224  1.00  0.00    -0.143 C  
BRANCH  19  20
HETATM   20  C   UNL     1      -8.764  14.151  67.876  1.00  0.00    -0.182 C  
BRANCH  20  21
HETATM   21  C   UNL     1      -8.881  15.356  66.969  1.00  0.00    -0.228 C  
HETATM   22  O   UNL     1      -9.339  15.294  65.831  1.00  0.00    -0.326 OA 
BRANCH  21  23
HETATM   23  C   UNL     1      -8.378  16.660  67.478  1.00  0.00    -0.189 A  
HETATM   24  C   UNL     1      -7.365  16.638  68.447  1.00  0.00    -0.190 A  
HETATM   25  C   UNL     1      -6.881  17.833  68.977  1.00  0.00    -0.244 A  
HETATM   26  C   UNL     1      -7.398  19.042  68.529  1.00  0.00    -0.306 A  
HETATM   27  C   UNL     1      -8.392  19.078  67.558  1.00  0.00    -0.303 A  
HETATM   28  F   UNL     1      -6.934  20.188  69.040  1.00  0.00    -0.336 F  
HETATM   29  C   UNL     1      -8.888  17.885  67.027  1.00  0.00    -0.256 A  
ENDBRANCH  21  23
ENDBRANCH  20  21
ENDBRANCH  19  20
ENDBRANCH  18  19
ENDBRANCH  15  18
ENDBRANCH  11  12
TORSDOF 6
ENDMDL
MODEL      216
REMARK 921   NORMALIZED FREE ENERGY PREDICTED BY IDOCK:   -3.91 KCAL/MOL
REMARK 922        TOTAL FREE ENERGY PREDICTED BY IDOCK:   -6.59 KCAL/MOL
REMARK 923 INTER-LIGAND FREE ENERGY PREDICTED BY IDOCK:   -6.73 KCAL/MOL
REMARK 924 INTRA-LIGAND FREE ENERGY PREDICTED BY IDOCK:    0.15 KCAL/MOL
REMARK 927      BINDING AFFINITY PREDICTED BY RF-SCORE:    0.00 PKD
ROOT
HETATM    1  O   UNL     1      -8.798  10.261  70.056  1.00  0.00    -0.378 OA 
HETATM    2  C   UNL     1      -8.341   9.412  69.163  1.00  0.00    -0.125 A  
HETATM    3  H   UNL     1      -9.267   9.975  70.831  1.00  0.00     0.000 HD 
HETATM    4  N   UNL     1      -7.697   9.804  68.100  1.00  0.00    -0.082 NA 
HETATM    5  C   UNL     1      -7.440   8.644  67.415  1.00  0.00    -0.089 A  
HETATM    6  C   UNL     1      -6.825   8.477  66.167  1.00  0.00    -0.072 A  
HETATM    7  C   UNL     1      -6.680   7.181  65.657  1.00  0.00    -0.052 A  
HETATM    8  C   UNL     1      -7.111   6.075  66.385  1.00  0.00    -0.068 A  
HETATM    9  C   UNL     1      -7.722   6.219  67.635  1.00  0.00    -0.098 A  
HETATM   10  C   UNL     1      -7.903   7.524  68.109  1.00  0.00    -0.122 A  
HETATM   11  N   UNL     1      -8.541   8.059  69.202  1.00  0.00    -0.136 NA 
ENDROOT
BRANCH  11  12
HETATM   12  C   UNL     1      -9.451   7.415  70.124  1.00  0.00    -0.165 C  
HETATM   13  C   UNL     1     -10.930   7.600  69.801  1.00  0.00    -0.178 C  
HETATM   14  C   UNL     1     -11.710   6.633  70.694  1.00  0.00    -0.394 C  
HETATM   15  N   UNL     1     -11.466   6.836  72.134  1.00  0.00    -0.271 NA 
HETATM   16  C   UNL     1     -10.032   6.811  72.462  1.00  0.00    -0.169 C  
HETATM   17  C   UNL     1      -9.195   7.751  71.597  1.00  0.00    -0.168 C  
BRANCH  15  18
HETATM   18  C   UNL     1     -12.135   8.022  72.686  1.00  0.00    -0.227 C  
BRANCH  18  19
HETATM   19  C   UNL     1     -11.874   9.288  71.864  1.00  0.00    -0.426 C  
BRANCH  19  20
HETATM   20  C   UNL     1     -13.172   9.984  71.454  1.00  0.00    -0.486 C  
BRANCH  20  21
HETATM   21  C   UNL     1     -13.025  11.489  71.466  1.00  0.00    -0.380 C  
HETATM   22  O   UNL     1     -13.459  12.197  72.373  1.00  0.00    -0.425 OA 
BRANCH  21  23
HETATM   23  C   UNL     1     -12.359  12.131  70.302  1.00  0.00    -0.269 A  
HETATM   24  C   UNL     1     -12.131  11.347  69.163  1.00  0.00    -0.331 A  
HETATM   25  C   UNL     1     -11.483  11.894  68.056  1.00  0.00    -0.389 A  
HETATM   26  C   UNL     1     -11.080  13.223  68.085  1.00  0.00    -0.259 A  
HETATM   27  C   UNL     1     -11.313  14.016  69.203  1.00  0.00    -0.323 A  
HETATM   28  F   UNL     1     -10.457  13.747  67.023  1.00  0.00    -0.264 F  
HETATM   29  C   UNL     1     -11.954  13.473  70.319  1.00  0.00    -0.386 A  
ENDBRANCH  21  23
ENDBRANCH  20  21
ENDBRANCH  19  20
ENDBRANCH  18  19
ENDBRANCH  15  18
ENDBRANCH  11  12
TORSDOF 6
ENDMDL
MODEL      217
REMARK 921   NORMALIZED FREE ENERGY PREDICTED BY IDOCK:   -3.89 KCAL/MOL
REMARK 922        TOTAL FREE ENERGY PREDICTED BY IDOCK:   -6.56 KCAL/MOL
REMARK 923 INTER-LIGAND FREE ENERGY PREDICTED BY IDOCK:   -6.36 KCAL/MOL
REMARK 924 INTRA-LIGAND FREE ENERGY PREDICTED BY IDOCK:   -0.20 KCAL/MOL
REMARK 927      BINDING AFFINITY PREDICTED BY RF-SCORE:    0.00 PKD
ROOT
HETATM    1  O   UNL     1      -8.036  10.215  69.564  1.00  0.00    -0.144 OA 
HETATM    2  C   UNL     1      -8.312   8.963  69.850  1.00  0.00    -0.128 A  
HETATM    3  H   UNL     1      -8.679  10.908  69.663  1.00  0.00     0.000 HD 
HETATM    4  N   UNL     1      -7.431   8.012  69.715  1.00  0.00    -0.087 NA 
HETATM    5  C   UNL     1      -8.110   6.871  70.061  1.00  0.00    -0.125 A  
HETATM    6  C   UNL     1      -7.668   5.542  70.038  1.00  0.00    -0.078 A  
HETATM    7  C   UNL     1      -8.554   4.532  70.431  1.00  0.00    -0.104 A  
HETATM    8  C   UNL     1      -9.842   4.840  70.862  1.00  0.00    -0.279 A  
HETATM    9  C   UNL     1     -10.302   6.161  70.898  1.00  0.00    -0.267 A  
HETATM   10  C   UNL     1      -9.420   7.154  70.457  1.00  0.00    -0.162 A  
HETATM   11  N   UNL     1      -9.540   8.505  70.244  1.00  0.00    -0.164 NA 
ENDROOT
BRANCH  11  12
HETATM   12  C   UNL     1     -10.739   9.313  70.203  1.00  0.00    -0.235 C  
HETATM   13  C   UNL     1     -10.761  10.376  69.108  1.00  0.00    -0.266 C  
HETATM   14  C   UNL     1     -12.189  10.921  69.038  1.00  0.00    -0.042 C  
HETATM   15  N   UNL     1     -12.669  11.481  70.314  1.00  0.00    -0.080 NA 
HETATM   16  C   UNL     1     -12.525  10.530  71.427  1.00  0.00    -0.411 C  
HETATM   17  C   UNL     1     -11.121   9.942  71.547  1.00  0.00    -0.068 C  
BRANCH  15  18
HETATM   18  C   UNL     1     -12.092  12.794  70.636  1.00  0.00    -0.228 C  
BRANCH  18  19
HETATM   19  C   UNL     1     -11.796  13.635  69.391  1.00  0.00    -0.392 C  
BRANCH  19  20
HETATM   20  C   UNL     1     -10.937  14.858  69.716  1.00  0.00    -0.280 C  
BRANCH  20  21
HETATM   21  C   UNL     1     -10.846  15.803  68.539  1.00  0.00    -0.290 C  
HETATM   22  O   UNL     1     -11.554  15.699  67.540  1.00  0.00    -0.206 OA 
BRANCH  21  23
HETATM   23  C   UNL     1      -9.820  16.880  68.590  1.00  0.00    -0.270 A  
HETATM   24  C   UNL     1     -10.264  18.209  68.575  1.00  0.00    -0.399 A  
HETATM   25  C   UNL     1      -9.341  19.254  68.592  1.00  0.00    -0.446 A  
HETATM   26  C   UNL     1      -7.982  18.968  68.638  1.00  0.00    -0.352 A  
HETATM   27  C   UNL     1      -7.529  17.654  68.669  1.00  0.00    -0.273 A  
HETATM   28  F   UNL     1      -7.097  19.971  68.653  1.00  0.00    -0.335 F  
HETATM   29  C   UNL     1      -8.447  16.602  68.644  1.00  0.00    -0.253 A  
ENDBRANCH  21  23
ENDBRANCH  20  21
ENDBRANCH  19  20
ENDBRANCH  18  19
ENDBRANCH  15  18
ENDBRANCH  11  12
TORSDOF 6
ENDMDL
MODEL      218
REMARK 921   NORMALIZED FREE ENERGY PREDICTED BY IDOCK:   -3.86 KCAL/MOL
REMARK 922        TOTAL FREE ENERGY PREDICTED BY IDOCK:   -6.52 KCAL/MOL
REMARK 923 INTER-LIGAND FREE ENERGY PREDICTED BY IDOCK:   -6.18 KCAL/MOL
REMARK 924 INTRA-LIGAND FREE ENERGY PREDICTED BY IDOCK:   -0.34 KCAL/MOL
REMARK 927      BINDING AFFINITY PREDICTED BY RF-SCORE:    0.00 PKD
ROOT
HETATM    1  O   UNL     1      -8.900  11.674  65.065  1.00  0.00    -0.391 OA 
HETATM    2  C   UNL     1      -9.648  11.956  66.108  1.00  0.00    -0.234 A  
HETATM    3  H   UNL     1      -8.484  10.827  64.957  1.00  0.00     0.000 HD 
HETATM    4  N   UNL     1     -10.220  13.118  66.257  1.00  0.00    -0.287 NA 
HETATM    5  C   UNL     1     -10.854  13.028  67.470  1.00  0.00    -0.247 A  
HETATM    6  C   UNL     1     -11.576  14.010  68.160  1.00  0.00    -0.369 A  
HETATM    7  C   UNL     1     -12.132  13.687  69.403  1.00  0.00    -0.364 A  
HETATM    8  C   UNL     1     -11.997  12.406  69.935  1.00  0.00    -0.369 A  
HETATM    9  C   UNL     1     -11.286  11.409  69.260  1.00  0.00    -0.342 A  
HETATM   10  C   UNL     1     -10.695  11.762  68.041  1.00  0.00    -0.208 A  
HETATM   11  N   UNL     1      -9.854  11.115  67.169  1.00  0.00    -0.185 NA 
ENDROOT
BRANCH  11  12
HETATM   12  C   UNL     1      -9.113   9.889  67.367  1.00  0.00    -0.134 C  
HETATM   13  C   UNL     1      -9.971   8.651  67.607  1.00  0.00    -0.248 C  
HETATM   14  C   UNL     1      -9.047   7.436  67.508  1.00  0.00    -0.125 C  
HETATM   15  N   UNL     1      -7.919   7.476  68.457  1.00  0.00    -0.122 NA 
HETATM   16  C   UNL     1      -7.152   8.727  68.355  1.00  0.00    -0.077 C  
HETATM   17  C   UNL     1      -8.021   9.980  68.438  1.00  0.00    -0.097 C  
BRANCH  15  18
HETATM   18  C   UNL     1      -8.303   7.179  69.844  1.00  0.00    -0.135 C  
BRANCH  18  19
HETATM   19  C   UNL     1      -7.856   8.262  70.830  1.00  0.00    -0.091 C  
BRANCH  19  20
HETATM   20  C   UNL     1      -8.166   7.883  72.278  1.00  0.00    -0.167 C  
BRANCH  20  21
HETATM   21  C   UNL     1      -9.623   7.518  72.458  1.00  0.00    -0.165 C  
HETATM   22  O   UNL     1     -10.539   8.323  72.306  1.00  0.00    -0.273 OA 
BRANCH  21  23
HETATM   23  C   UNL     1      -9.944   6.127  72.878  1.00  0.00    -0.184 A  
HETATM   24  C   UNL     1     -10.033   5.146  71.880  1.00  0.00    -0.239 A  
HETATM   25  C   UNL     1     -10.360   3.833  72.219  1.00  0.00    -0.155 A  
HETATM   26  C   UNL     1     -10.582   3.504  73.550  1.00  0.00    -0.197 A  
HETATM   27  C   UNL     1     -10.481   4.464  74.551  1.00  0.00    -0.295 A  
HETATM   28  F   UNL     1     -10.897   2.244  73.874  1.00  0.00    -0.185 F  
HETATM   29  C   UNL     1     -10.162   5.782  74.218  1.00  0.00    -0.294 A  
ENDBRANCH  21  23
ENDBRANCH  20  21
ENDBRANCH  19  20
ENDBRANCH  18  19
ENDBRANCH  15  18
ENDBRANCH  11  12
TORSDOF 6
ENDMDL
MODEL      219
REMARK 921   NORMALIZED FREE ENERGY PREDICTED BY IDOCK:   -3.80 KCAL/MOL
REMARK 922        TOTAL FREE ENERGY PREDICTED BY IDOCK:   -6.45 KCAL/MOL
REMARK 923 INTER-LIGAND FREE ENERGY PREDICTED BY IDOCK:   -6.75 KCAL/MOL
REMARK 924 INTRA-LIGAND FREE ENERGY PREDICTED BY IDOCK:    0.30 KCAL/MOL
REMARK 927      BINDING AFFINITY PREDICTED BY RF-SCORE:    0.00 PKD
ROOT
HETATM    1  O   UNL     1      -8.056   5.842  69.064  1.00  0.00    -0.099 OA 
HETATM    2  C   UNL     1      -8.700   5.357  70.102  1.00  0.00    -0.126 A  
HETATM    3  H   UNL     1      -7.956   6.776  68.923  1.00  0.00     0.000 HD 
HETATM    4  N   UNL     1      -8.837   4.076  70.295  1.00  0.00    -0.081 NA 
HETATM    5  C   UNL     1      -9.596   3.986  71.434  1.00  0.00    -0.171 A  
HETATM    6  C   UNL     1     -10.100   2.844  72.069  1.00  0.00    -0.184 A  
HETATM    7  C   UNL     1     -10.868   3.001  73.229  1.00  0.00    -0.284 A  
HETATM    8  C   UNL     1     -11.105   4.267  73.761  1.00  0.00    -0.314 A  
HETATM    9  C   UNL     1     -10.607   5.421  73.146  1.00  0.00    -0.278 A  
HETATM   10  C   UNL     1      -9.882   5.249  71.962  1.00  0.00    -0.174 A  
HETATM   11  N   UNL     1      -9.347   6.115  71.040  1.00  0.00    -0.163 NA 
ENDROOT
BRANCH  11  12
HETATM   12  C   UNL     1      -9.572   7.536  70.896  1.00  0.00    -0.165 C  
HETATM   13  C   UNL     1     -10.986   8.001  71.234  1.00  0.00    -0.269 C  
HETATM   14  C   UNL     1     -10.953   9.529  71.302  1.00  0.00    -0.370 C  
HETATM   15  N   UNL     1     -10.484  10.164  70.057  1.00  0.00    -0.277 NA 
HETATM   16  C   UNL     1      -9.184   9.631  69.619  1.00  0.00    -0.211 C  
HETATM   17  C   UNL     1      -9.148   8.107  69.538  1.00  0.00    -0.151 C  
BRANCH  15  18
HETATM   18  C   UNL     1     -11.478  10.146  68.974  1.00  0.00    -0.078 C  
BRANCH  18  19
HETATM   19  C   UNL     1     -10.856  10.375  67.593  1.00  0.00    -0.361 C  
BRANCH  19  20
HETATM   20  C   UNL     1     -11.198  11.756  67.033  1.00  0.00    -0.382 C  
BRANCH  20  21
HETATM   21  C   UNL     1      -9.959  12.604  66.846  1.00  0.00    -0.230 C  
HETATM   22  O   UNL     1      -8.826  12.131  66.795  1.00  0.00    -0.197 OA 
BRANCH  21  23
HETATM   23  C   UNL     1     -10.133  14.079  66.761  1.00  0.00    -0.264 A  
HETATM   24  C   UNL     1     -10.155  14.806  67.960  1.00  0.00    -0.218 A  
HETATM   25  C   UNL     1     -10.345  16.187  67.936  1.00  0.00    -0.277 A  
HETATM   26  C   UNL     1     -10.498  16.836  66.717  1.00  0.00    -0.258 A  
HETATM   27  C   UNL     1     -10.464  16.130  65.520  1.00  0.00    -0.407 A  
HETATM   28  F   UNL     1     -10.682  18.161  66.695  1.00  0.00    -0.355 F  
HETATM   29  C   UNL     1     -10.281  14.745  65.537  1.00  0.00    -0.400 A  
ENDBRANCH  21  23
ENDBRANCH  20  21
ENDBRANCH  19  20
ENDBRANCH  18  19
ENDBRANCH  15  18
ENDBRANCH  11  12
TORSDOF 6
ENDMDL
MODEL      220
REMARK 921   NORMALIZED FREE ENERGY PREDICTED BY IDOCK:   -3.80 KCAL/MOL
REMARK 922        TOTAL FREE ENERGY PREDICTED BY IDOCK:   -6.44 KCAL/MOL
REMARK 923 INTER-LIGAND FREE ENERGY PREDICTED BY IDOCK:   -5.68 KCAL/MOL
REMARK 924 INTRA-LIGAND FREE ENERGY PREDICTED BY IDOCK:   -0.76 KCAL/MOL
REMARK 927      BINDING AFFINITY PREDICTED BY RF-SCORE:    0.00 PKD
ROOT
HETATM    1  O   UNL     1     -10.461  13.605  69.009  1.00  0.00    -0.376 OA 
HETATM    2  C   UNL     1     -10.796  13.435  67.750  1.00  0.00    -0.252 A  
HETATM    3  H   UNL     1      -9.963  12.955  69.491  1.00  0.00     0.000 HD 
HETATM    4  N   UNL     1     -11.480  14.326  67.088  1.00  0.00    -0.341 NA 
HETATM    5  C   UNL     1     -11.661  13.761  65.851  1.00  0.00    -0.352 A  
HETATM    6  C   UNL     1     -12.382  14.254  64.756  1.00  0.00    -0.440 A  
HETATM    7  C   UNL     1     -12.437  13.487  63.587  1.00  0.00    -0.278 A  
HETATM    8  C   UNL     1     -11.766  12.269  63.500  1.00  0.00    -0.584 A  
HETATM    9  C   UNL     1     -11.036  11.761  64.579  1.00  0.00    -0.382 A  
HETATM   10  C   UNL     1     -11.031  12.517  65.757  1.00  0.00    -0.292 A  
HETATM   11  N   UNL     1     -10.539  12.305  67.021  1.00  0.00    -0.220 NA 
ENDROOT
BRANCH  11  12
HETATM   12  C   UNL     1     -10.043  11.078  67.605  1.00  0.00    -0.182 C  
HETATM   13  C   UNL     1      -8.534  10.879  67.496  1.00  0.00    -0.123 C  
HETATM   14  C   UNL     1      -8.169   9.701  68.400  1.00  0.00    -0.106 C  
HETATM   15  N   UNL     1      -8.882   8.455  68.062  1.00  0.00    -0.141 NA 
HETATM   16  C   UNL     1     -10.339   8.647  68.013  1.00  0.00    -0.223 C  
HETATM   17  C   UNL     1     -10.770   9.816  67.131  1.00  0.00    -0.273 C  
BRANCH  15  18
HETATM   18  C   UNL     1      -8.374   7.795  66.851  1.00  0.00    -0.124 C  
BRANCH  18  19
HETATM   19  C   UNL     1      -7.496   6.579  67.161  1.00  0.00    -0.088 C  
BRANCH  19  20
HETATM   20  C   UNL     1      -8.173   5.617  68.138  1.00  0.00    -0.096 C  
BRANCH  20  21
HETATM   21  C   UNL     1      -7.237   5.205  69.253  1.00  0.00    -0.057 C  
HETATM   22  O   UNL     1      -6.107   4.766  69.050  1.00  0.00    -0.027 OA 
BRANCH  21  23
HETATM   23  C   UNL     1      -7.736   5.303  70.651  1.00  0.00    -0.084 A  
HETATM   24  C   UNL     1      -8.020   4.111  71.331  1.00  0.00    -0.077 A  
HETATM   25  C   UNL     1      -8.518   4.151  72.632  1.00  0.00    -0.101 A  
HETATM   26  C   UNL     1      -8.717   5.377  73.253  1.00  0.00    -0.116 A  
HETATM   27  C   UNL     1      -8.426   6.567  72.595  1.00  0.00    -0.121 A  
HETATM   28  F   UNL     1      -9.196   5.415  74.502  1.00  0.00    -0.118 F  
HETATM   29  C   UNL     1      -7.934   6.536  71.288  1.00  0.00    -0.108 A  
ENDBRANCH  21  23
ENDBRANCH  20  21
ENDBRANCH  19  20
ENDBRANCH  18  19
ENDBRANCH  15  18
ENDBRANCH  11  12
TORSDOF 6
ENDMDL
MODEL      221
REMARK 921   NORMALIZED FREE ENERGY PREDICTED BY IDOCK:   -3.79 KCAL/MOL
REMARK 922        TOTAL FREE ENERGY PREDICTED BY IDOCK:   -6.43 KCAL/MOL
REMARK 923 INTER-LIGAND FREE ENERGY PREDICTED BY IDOCK:   -6.51 KCAL/MOL
REMARK 924 INTRA-LIGAND FREE ENERGY PREDICTED BY IDOCK:    0.07 KCAL/MOL
REMARK 927      BINDING AFFINITY PREDICTED BY RF-SCORE:    0.00 PKD
ROOT
HETATM    1  O   UNL     1      -5.158  16.178  71.472  1.00  0.00    -0.206 OA 
HETATM    2  C   UNL     1      -5.555  16.795  70.382  1.00  0.00    -0.166 A  
HETATM    3  H   UNL     1      -4.922  15.258  71.474  1.00  0.00     0.000 HD 
HETATM    4  N   UNL     1      -5.878  18.058  70.379  1.00  0.00    -0.158 NA 
HETATM    5  C   UNL     1      -6.276  18.301  69.090  1.00  0.00    -0.244 A  
HETATM    6  C   UNL     1      -6.788  19.481  68.534  1.00  0.00    -0.330 A  
HETATM    7  C   UNL     1      -7.141  19.489  67.179  1.00  0.00    -0.225 A  
HETATM    8  C   UNL     1      -6.963  18.356  66.389  1.00  0.00    -0.264 A  
HETATM    9  C   UNL     1      -6.448  17.169  66.922  1.00  0.00    -0.239 A  
HETATM   10  C   UNL     1      -6.145  17.163  68.288  1.00  0.00    -0.143 A  
HETATM   11  N   UNL     1      -5.742  16.190  69.169  1.00  0.00    -0.113 NA 
ENDROOT
BRANCH  11  12
HETATM   12  C   UNL     1      -5.717  14.755  68.984  1.00  0.00    -0.092 C  
HETATM   13  C   UNL     1      -6.300  14.268  67.661  1.00  0.00    -0.126 C  
HETATM   14  C   UNL     1      -5.931  12.789  67.524  1.00  0.00    -0.143 C  
HETATM   15  N   UNL     1      -6.415  11.957  68.641  1.00  0.00    -0.057 NA 
HETATM   16  C   UNL     1      -5.993  12.483  69.948  1.00  0.00    -0.144 C  
HETATM   17  C   UNL     1      -6.325  13.960  70.144  1.00  0.00    -0.083 C  
BRANCH  15  18
HETATM   18  C   UNL     1      -7.859  11.690  68.596  1.00  0.00    -0.132 C  
BRANCH  18  19
HETATM   19  C   UNL     1      -8.216  10.495  67.707  1.00  0.00    -0.107 C  
BRANCH  19  20
HETATM   20  C   UNL     1      -8.244  10.872  66.225  1.00  0.00    -0.165 C  
BRANCH  20  21
HETATM   21  C   UNL     1      -9.602  10.617  65.611  1.00  0.00    -0.218 C  
HETATM   22  O   UNL     1     -10.034   9.489  65.387  1.00  0.00    -0.284 OA 
BRANCH  21  23
HETATM   23  C   UNL     1     -10.424  11.797  65.229  1.00  0.00    -0.320 A  
HETATM   24  C   UNL     1     -11.120  11.744  64.013  1.00  0.00    -0.461 A  
HETATM   25  C   UNL     1     -11.881  12.836  63.596  1.00  0.00    -0.603 A  
HETATM   26  C   UNL     1     -11.954  13.967  64.399  1.00  0.00    -0.450 A  
HETATM   27  C   UNL     1     -11.280  14.026  65.614  1.00  0.00    -0.310 A  
HETATM   28  F   UNL     1     -12.682  15.015  63.998  1.00  0.00    -0.432 F  
HETATM   29  C   UNL     1     -10.510  12.940  66.035  1.00  0.00    -0.290 A  
ENDBRANCH  21  23
ENDBRANCH  20  21
ENDBRANCH  19  20
ENDBRANCH  18  19
ENDBRANCH  15  18
ENDBRANCH  11  12
TORSDOF 6
ENDMDL
MODEL      222
REMARK 921   NORMALIZED FREE ENERGY PREDICTED BY IDOCK:   -3.78 KCAL/MOL
REMARK 922        TOTAL FREE ENERGY PREDICTED BY IDOCK:   -6.41 KCAL/MOL
REMARK 923 INTER-LIGAND FREE ENERGY PREDICTED BY IDOCK:   -5.73 KCAL/MOL
REMARK 924 INTRA-LIGAND FREE ENERGY PREDICTED BY IDOCK:   -0.69 KCAL/MOL
REMARK 927      BINDING AFFINITY PREDICTED BY RF-SCORE:    0.00 PKD
ROOT
HETATM    1  O   UNL     1     -10.753   5.428  70.944  1.00  0.00    -0.238 OA 
HETATM    2  C   UNL     1     -11.175   6.668  71.044  1.00  0.00    -0.300 A  
HETATM    3  H   UNL     1     -10.208   5.137  70.223  1.00  0.00     0.000 HD 
HETATM    4  N   UNL     1     -11.922   7.068  72.034  1.00  0.00    -0.299 NA 
HETATM    5  C   UNL     1     -12.183   8.384  71.749  1.00  0.00    -0.330 A  
HETATM    6  C   UNL     1     -12.991   9.292  72.446  1.00  0.00    -0.450 A  
HETATM    7  C   UNL     1     -13.116  10.597  71.953  1.00  0.00    -0.563 A  
HETATM    8  C   UNL     1     -12.429  10.997  70.810  1.00  0.00    -0.491 A  
HETATM    9  C   UNL     1     -11.612  10.108  70.102  1.00  0.00    -0.350 A  
HETATM   10  C   UNL     1     -11.536   8.795  70.580  1.00  0.00    -0.231 A  
HETATM   11  N   UNL     1     -10.949   7.645  70.112  1.00  0.00    -0.256 NA 
ENDROOT
BRANCH  11  12
HETATM   12  C   UNL     1     -10.387   7.383  68.805  1.00  0.00    -0.199 C  
HETATM   13  C   UNL     1     -11.073   6.266  68.023  1.00  0.00    -0.365 C  
HETATM   14  C   UNL     1     -10.541   6.328  66.590  1.00  0.00    -0.198 C  
HETATM   15  N   UNL     1      -9.075   6.198  66.500  1.00  0.00    -0.144 NA 
HETATM   16  C   UNL     1      -8.379   7.168  67.360  1.00  0.00    -0.119 C  
HETATM   17  C   UNL     1      -8.871   7.162  68.805  1.00  0.00    -0.130 C  
BRANCH  15  18
HETATM   18  C   UNL     1      -8.590   4.827  66.713  1.00  0.00    -0.108 C  
BRANCH  18  19
HETATM   19  C   UNL     1      -8.761   3.938  65.479  1.00  0.00    -0.116 C  
BRANCH  19  20
HETATM   20  C   UNL     1      -8.591   4.724  64.178  1.00  0.00    -0.137 C  
BRANCH  20  21
HETATM   21  C   UNL     1      -7.161   5.179  63.985  1.00  0.00    -0.050 C  
HETATM   22  O   UNL     1      -6.201   4.417  64.055  1.00  0.00    -0.024 OA 
BRANCH  21  23
HETATM   23  C   UNL     1      -6.921   6.626  63.738  1.00  0.00    -0.052 A  
HETATM   24  C   UNL     1      -7.830   7.311  62.919  1.00  0.00    -0.128 A  
HETATM   25  C   UNL     1      -7.632   8.661  62.633  1.00  0.00    -0.114 A  
HETATM   26  C   UNL     1      -6.539   9.324  63.177  1.00  0.00    -0.091 A  
HETATM   27  C   UNL     1      -5.638   8.661  64.003  1.00  0.00    -0.065 A  
HETATM   28  F   UNL     1      -6.349  10.620  62.901  1.00  0.00    -0.142 F  
HETATM   29  C   UNL     1      -5.825   7.306  64.287  1.00  0.00    -0.037 A  
ENDBRANCH  21  23
ENDBRANCH  20  21
ENDBRANCH  19  20
ENDBRANCH  18  19
ENDBRANCH  15  18
ENDBRANCH  11  12
TORSDOF 6
ENDMDL
MODEL      223
REMARK 921   NORMALIZED FREE ENERGY PREDICTED BY IDOCK:   -3.73 KCAL/MOL
REMARK 922        TOTAL FREE ENERGY PREDICTED BY IDOCK:   -6.35 KCAL/MOL
REMARK 923 INTER-LIGAND FREE ENERGY PREDICTED BY IDOCK:   -5.58 KCAL/MOL
REMARK 924 INTRA-LIGAND FREE ENERGY PREDICTED BY IDOCK:   -0.77 KCAL/MOL
REMARK 927      BINDING AFFINITY PREDICTED BY RF-SCORE:    0.00 PKD
ROOT
HETATM    1  O   UNL     1      -7.338   4.303  64.992  1.00  0.00    -0.070 OA 
HETATM    2  C   UNL     1      -7.103   4.306  66.284  1.00  0.00    -0.067 A  
HETATM    3  H   UNL     1      -7.869   4.971  64.574  1.00  0.00     0.000 HD 
HETATM    4  N   UNL     1      -6.375   3.390  66.858  1.00  0.00    -0.035 NA 
HETATM    5  C   UNL     1      -6.413   3.715  68.190  1.00  0.00    -0.037 A  
HETATM    6  C   UNL     1      -5.852   3.034  69.279  1.00  0.00    -0.023 A  
HETATM    7  C   UNL     1      -6.033   3.557  70.565  1.00  0.00    -0.018 A  
HETATM    8  C   UNL     1      -6.732   4.745  70.760  1.00  0.00    -0.036 A  
HETATM    9  C   UNL     1      -7.296   5.444  69.687  1.00  0.00    -0.065 A  
HETATM   10  C   UNL     1      -7.147   4.883  68.413  1.00  0.00    -0.061 A  
HETATM   11  N   UNL     1      -7.637   5.202  67.171  1.00  0.00    -0.091 NA 
ENDROOT
BRANCH  11  12
HETATM   12  C   UNL     1      -8.684   6.137  66.823  1.00  0.00    -0.116 C  
HETATM   13  C   UNL     1      -8.234   7.589  66.697  1.00  0.00    -0.125 C  
HETATM   14  C   UNL     1      -9.387   8.364  66.056  1.00  0.00    -0.177 C  
HETATM   15  N   UNL     1     -10.648   8.277  66.816  1.00  0.00    -0.262 NA 
HETATM   16  C   UNL     1     -11.038   6.884  67.085  1.00  0.00    -0.292 C  
HETATM   17  C   UNL     1      -9.925   6.053  67.718  1.00  0.00    -0.149 C  
BRANCH  15  18
HETATM   18  C   UNL     1     -10.661   9.096  68.036  1.00  0.00    -0.197 C  
BRANCH  18  19
HETATM   19  C   UNL     1     -10.725  10.598  67.742  1.00  0.00    -0.302 C  
BRANCH  19  20
HETATM   20  C   UNL     1     -11.904  11.270  68.446  1.00  0.00    -0.331 C  
BRANCH  20  21
HETATM   21  C   UNL     1     -11.659  12.748  68.656  1.00  0.00    -0.314 C  
HETATM   22  O   UNL     1     -11.595  13.263  69.770  1.00  0.00    -0.276 OA 
BRANCH  21  23
HETATM   23  C   UNL     1     -11.532  13.609  67.450  1.00  0.00    -0.365 A  
HETATM   24  C   UNL     1     -10.528  14.588  67.447  1.00  0.00    -0.264 A  
HETATM   25  C   UNL     1     -10.387  15.440  66.353  1.00  0.00    -0.303 A  
HETATM   26  C   UNL     1     -11.237  15.303  65.263  1.00  0.00    -0.336 A  
HETATM   27  C   UNL     1     -12.227  14.327  65.247  1.00  0.00    -0.414 A  
HETATM   28  F   UNL     1     -11.102  16.122  64.214  1.00  0.00    -0.443 F  
HETATM   29  C   UNL     1     -12.380  13.475  66.343  1.00  0.00    -0.413 A  
ENDBRANCH  21  23
ENDBRANCH  20  21
ENDBRANCH  19  20
ENDBRANCH  18  19
ENDBRANCH  15  18
ENDBRANCH  11  12
TORSDOF 6
ENDMDL
MODEL      224
REMARK 921   NORMALIZED FREE ENERGY PREDICTED BY IDOCK:   -3.72 KCAL/MOL
REMARK 922        TOTAL FREE ENERGY PREDICTED BY IDOCK:   -6.33 KCAL/MOL
REMARK 923 INTER-LIGAND FREE ENERGY PREDICTED BY IDOCK:   -5.86 KCAL/MOL
REMARK 924 INTRA-LIGAND FREE ENERGY PREDICTED BY IDOCK:   -0.46 KCAL/MOL
REMARK 927      BINDING AFFINITY PREDICTED BY RF-SCORE:    0.00 PKD
ROOT
HETATM    1  O   UNL     1     -11.930  13.152  62.993  1.00  0.00    -0.835 OA 
HETATM    2  C   UNL     1     -11.002  12.350  63.462  1.00  0.00    -0.450 A  
HETATM    3  H   UNL     1     -12.188  13.946  63.448  1.00  0.00     0.000 HD 
HETATM    4  N   UNL     1     -10.648  11.261  62.839  1.00  0.00    -0.043 NA 
HETATM    5  C   UNL     1      -9.709  10.692  63.661  1.00  0.00    -0.330 A  
HETATM    6  C   UNL     1      -9.035   9.473  63.515  1.00  0.00    -0.205 A  
HETATM    7  C   UNL     1      -8.117   9.090  64.500  1.00  0.00    -0.143 A  
HETATM    8  C   UNL     1      -7.855   9.915  65.591  1.00  0.00    -0.127 A  
HETATM    9  C   UNL     1      -8.513  11.139  65.754  1.00  0.00    -0.076 A  
HETATM   10  C   UNL     1      -9.462  11.485  64.785  1.00  0.00    -0.108 A  
HETATM   11  N   UNL     1     -10.363  12.514  64.661  1.00  0.00    -0.310 NA 
ENDROOT
BRANCH  11  12
HETATM   12  C   UNL     1     -10.772  13.484  65.654  1.00  0.00    -0.281 C  
HETATM   13  C   UNL     1      -9.913  14.743  65.714  1.00  0.00    -0.375 C  
HETATM   14  C   UNL     1     -10.653  15.750  66.598  1.00  0.00    -0.307 C  
HETATM   15  N   UNL     1     -10.932  15.248  67.955  1.00  0.00    -0.288 NA 
HETATM   16  C   UNL     1     -11.634  13.955  67.935  1.00  0.00    -0.342 C  
HETATM   17  C   UNL     1     -10.949  12.906  67.062  1.00  0.00    -0.290 C  
BRANCH  15  18
HETATM   18  C   UNL     1      -9.751  15.218  68.829  1.00  0.00    -0.212 C  
BRANCH  18  19
HETATM   19  C   UNL     1      -8.537  14.562  68.165  1.00  0.00    -0.169 C  
BRANCH  19  20
HETATM   20  C   UNL     1      -7.565  13.981  69.194  1.00  0.00     0.030 C  
BRANCH  20  21
HETATM   21  C   UNL     1      -6.892  12.729  68.679  1.00  0.00    -0.099 C  
HETATM   22  O   UNL     1      -6.067  12.739  67.768  1.00  0.00    -0.102 OA 
BRANCH  21  23
HETATM   23  C   UNL     1      -7.285  11.429  69.286  1.00  0.00    -0.075 A  
HETATM   24  C   UNL     1      -6.327  10.746  70.048  1.00  0.00    -0.137 A  
HETATM   25  C   UNL     1      -6.637   9.509  70.614  1.00  0.00    -0.103 A  
HETATM   26  C   UNL     1      -7.903   8.969  70.428  1.00  0.00    -0.116 A  
HETATM   27  C   UNL     1      -8.867   9.643  69.688  1.00  0.00    -0.212 A  
HETATM   28  F   UNL     1      -8.199   7.782  70.970  1.00  0.00    -0.096 F  
HETATM   29  C   UNL     1      -8.562  10.879  69.111  1.00  0.00    -0.060 A  
ENDBRANCH  21  23
ENDBRANCH  20  21
ENDBRANCH  19  20
ENDBRANCH  18  19
ENDBRANCH  15  18
ENDBRANCH  11  12
TORSDOF 6
ENDMDL
MODEL      225
REMARK 921   NORMALIZED FREE ENERGY PREDICTED BY IDOCK:   -3.71 KCAL/MOL
REMARK 922        TOTAL FREE ENERGY PREDICTED BY IDOCK:   -6.32 KCAL/MOL
REMARK 923 INTER-LIGAND FREE ENERGY PREDICTED BY IDOCK:   -4.77 KCAL/MOL
REMARK 924 INTRA-LIGAND FREE ENERGY PREDICTED BY IDOCK:   -1.56 KCAL/MOL
REMARK 927      BINDING AFFINITY PREDICTED BY RF-SCORE:    0.00 PKD
ROOT
HETATM    1  O   UNL     1      -9.531  10.746  68.126  1.00  0.00    -0.150 OA 
HETATM    2  C   UNL     1      -8.803   9.666  67.953  1.00  0.00    -0.119 A  
HETATM    3  H   UNL     1      -9.801  11.039  68.988  1.00  0.00     0.000 HD 
HETATM    4  N   UNL     1      -8.431   9.262  66.771  1.00  0.00    -0.126 NA 
HETATM    5  C   UNL     1      -7.745   8.099  67.012  1.00  0.00    -0.096 A  
HETATM    6  C   UNL     1      -7.175   7.207  66.094  1.00  0.00    -0.074 A  
HETATM    7  C   UNL     1      -6.526   6.066  66.580  1.00  0.00    -0.046 A  
HETATM    8  C   UNL     1      -6.421   5.833  67.949  1.00  0.00    -0.043 A  
HETATM    9  C   UNL     1      -6.978   6.713  68.883  1.00  0.00    -0.079 A  
HETATM   10  C   UNL     1      -7.665   7.824  68.380  1.00  0.00    -0.119 A  
HETATM   11  N   UNL     1      -8.417   8.818  68.956  1.00  0.00    -0.129 NA 
ENDROOT
BRANCH  11  12
HETATM   12  C   UNL     1      -8.931   8.897  70.306  1.00  0.00    -0.183 C  
HETATM   13  C   UNL     1      -8.104   8.158  71.353  1.00  0.00    -0.132 C  
HETATM   14  C   UNL     1      -8.628   8.586  72.725  1.00  0.00    -0.098 C  
HETATM   15  N   UNL     1     -10.066   8.317  72.916  1.00  0.00    -0.273 NA 
HETATM   16  C   UNL     1     -10.885   8.893  71.839  1.00  0.00    -0.363 C  
HETATM   17  C   UNL     1     -10.408   8.509  70.441  1.00  0.00    -0.222 C  
BRANCH  15  18
HETATM   18  C   UNL     1     -10.376   6.899  73.144  1.00  0.00    -0.266 C  
BRANCH  18  19
HETATM   19  C   UNL     1     -11.481   6.377  72.222  1.00  0.00    -0.339 C  
BRANCH  19  20
HETATM   20  C   UNL     1     -11.277   4.905  71.860  1.00  0.00     0.230 C  
BRANCH  20  21
HETATM   21  C   UNL     1      -9.967   4.685  71.136  1.00  0.00    -0.195 C  
HETATM   22  O   UNL     1      -8.897   4.531  71.721  1.00  0.00    -0.114 OA 
BRANCH  21  23
HETATM   23  C   UNL     1      -9.984   4.698  69.649  1.00  0.00    -0.281 A  
HETATM   24  C   UNL     1     -10.691   5.727  69.011  1.00  0.00    -0.354 A  
HETATM   25  C   UNL     1     -10.762   5.767  67.619  1.00  0.00    -0.313 A  
HETATM   26  C   UNL     1     -10.117   4.789  66.871  1.00  0.00    -0.210 A  
HETATM   27  C   UNL     1      -9.400   3.772  67.491  1.00  0.00    -0.238 A  
HETATM   28  F   UNL     1     -10.187   4.827  65.536  1.00  0.00    -0.202 F  
HETATM   29  C   UNL     1      -9.331   3.721  68.885  1.00  0.00    -0.234 A  
ENDBRANCH  21  23
ENDBRANCH  20  21
ENDBRANCH  19  20
ENDBRANCH  18  19
ENDBRANCH  15  18
ENDBRANCH  11  12
TORSDOF 6
ENDMDL
MODEL      226
REMARK 921   NORMALIZED FREE ENERGY PREDICTED BY IDOCK:   -3.69 KCAL/MOL
REMARK 922        TOTAL FREE ENERGY PREDICTED BY IDOCK:   -6.30 KCAL/MOL
REMARK 923 INTER-LIGAND FREE ENERGY PREDICTED BY IDOCK:   -6.34 KCAL/MOL
REMARK 924 INTRA-LIGAND FREE ENERGY PREDICTED BY IDOCK:    0.05 KCAL/MOL
REMARK 927      BINDING AFFINITY PREDICTED BY RF-SCORE:    0.00 PKD
ROOT
HETATM    1  O   UNL     1      -9.700   4.260  73.077  1.00  0.00    -0.124 OA 
HETATM    2  C   UNL     1      -9.112   3.807  71.993  1.00  0.00    -0.116 A  
HETATM    3  H   UNL     1     -10.424   4.874  73.039  1.00  0.00     0.000 HD 
HETATM    4  N   UNL     1      -8.118   2.966  72.045  1.00  0.00    -0.058 NA 
HETATM    5  C   UNL     1      -7.762   2.783  70.733  1.00  0.00    -0.042 A  
HETATM    6  C   UNL     1      -6.710   2.025  70.203  1.00  0.00    -0.033 A  
HETATM    7  C   UNL     1      -6.533   1.997  68.815  1.00  0.00    -0.029 A  
HETATM    8  C   UNL     1      -7.402   2.685  67.971  1.00  0.00    -0.052 A  
HETATM    9  C   UNL     1      -8.462   3.444  68.478  1.00  0.00    -0.105 A  
HETATM   10  C   UNL     1      -8.596   3.501  69.870  1.00  0.00    -0.058 A  
HETATM   11  N   UNL     1      -9.413   4.205  70.719  1.00  0.00    -0.157 NA 
ENDROOT
BRANCH  11  12
HETATM   12  C   UNL     1     -10.281   5.323  70.420  1.00  0.00    -0.268 C  
HETATM   13  C   UNL     1      -9.580   6.538  69.820  1.00  0.00    -0.161 C  
HETATM   14  C   UNL     1     -10.672   7.484  69.315  1.00  0.00    -0.176 C  
HETATM   15  N   UNL     1     -11.623   7.899  70.363  1.00  0.00    -0.153 NA 
HETATM   16  C   UNL     1     -12.210   6.748  71.066  1.00  0.00    -0.352 C  
HETATM   17  C   UNL     1     -11.171   5.760  71.589  1.00  0.00    -0.258 C  
BRANCH  15  18
HETATM   18  C   UNL     1     -11.075   8.892  71.298  1.00  0.00    -0.297 C  
BRANCH  18  19
HETATM   19  C   UNL     1     -11.912  10.172  71.364  1.00  0.00    -0.447 C  
BRANCH  19  20
HETATM   20  C   UNL     1     -12.354  10.640  69.977  1.00  0.00    -0.341 C  
BRANCH  20  21
HETATM   21  C   UNL     1     -11.962  12.079  69.723  1.00  0.00    -0.300 C  
HETATM   22  O   UNL     1     -11.839  12.908  70.622  1.00  0.00    -0.215 OA 
BRANCH  21  23
HETATM   23  C   UNL     1     -11.757  12.505  68.312  1.00  0.00    -0.390 A  
HETATM   24  C   UNL     1     -11.406  11.522  67.376  1.00  0.00    -0.367 A  
HETATM   25  C   UNL     1     -11.175  11.875  66.047  1.00  0.00    -0.377 A  
HETATM   26  C   UNL     1     -11.307  13.201  65.657  1.00  0.00    -0.303 A  
HETATM   27  C   UNL     1     -11.669  14.184  66.572  1.00  0.00    -0.414 A  
HETATM   28  F   UNL     1     -11.083  13.540  64.382  1.00  0.00    -0.341 F  
HETATM   29  C   UNL     1     -11.895  13.839  67.907  1.00  0.00    -0.413 A  
ENDBRANCH  21  23
ENDBRANCH  20  21
ENDBRANCH  19  20
ENDBRANCH  18  19
ENDBRANCH  15  18
ENDBRANCH  11  12
TORSDOF 6
ENDMDL
MODEL      227
REMARK 921   NORMALIZED FREE ENERGY PREDICTED BY IDOCK:   -3.68 KCAL/MOL
REMARK 922        TOTAL FREE ENERGY PREDICTED BY IDOCK:   -6.28 KCAL/MOL
REMARK 923 INTER-LIGAND FREE ENERGY PREDICTED BY IDOCK:   -4.60 KCAL/MOL
REMARK 924 INTRA-LIGAND FREE ENERGY PREDICTED BY IDOCK:   -1.68 KCAL/MOL
REMARK 927      BINDING AFFINITY PREDICTED BY RF-SCORE:    0.00 PKD
ROOT
HETATM    1  O   UNL     1      -8.490  10.612  69.478  1.00  0.00    -0.344 OA 
HETATM    2  C   UNL     1      -8.929   9.472  68.993  1.00  0.00    -0.144 A  
HETATM    3  H   UNL     1      -8.241  10.710  70.389  1.00  0.00     0.000 HD 
HETATM    4  N   UNL     1      -9.271   9.337  67.743  1.00  0.00    -0.129 NA 
HETATM    5  C   UNL     1      -9.712   8.041  67.653  1.00  0.00    -0.158 A  
HETATM    6  C   UNL     1     -10.257   7.371  66.550  1.00  0.00    -0.149 A  
HETATM    7  C   UNL     1     -10.651   6.037  66.700  1.00  0.00    -0.312 A  
HETATM    8  C   UNL     1     -10.480   5.375  67.913  1.00  0.00    -0.202 A  
HETATM    9  C   UNL     1      -9.933   6.022  69.026  1.00  0.00    -0.199 A  
HETATM   10  C   UNL     1      -9.588   7.370  68.873  1.00  0.00    -0.148 A  
HETATM   11  N   UNL     1      -9.144   8.342  69.735  1.00  0.00    -0.146 NA 
ENDROOT
BRANCH  11  12
HETATM   12  C   UNL     1      -9.104   8.320  71.181  1.00  0.00    -0.162 C  
HETATM   13  C   UNL     1      -7.816   7.762  71.779  1.00  0.00    -0.098 C  
HETATM   14  C   UNL     1      -7.840   8.080  73.275  1.00  0.00    -0.167 C  
HETATM   15  N   UNL     1      -9.016   7.531  73.975  1.00  0.00    -0.240 NA 
HETATM   16  C   UNL     1     -10.279   7.931  73.334  1.00  0.00    -0.146 C  
HETATM   17  C   UNL     1     -10.315   7.647  71.834  1.00  0.00    -0.240 C  
BRANCH  15  18
HETATM   18  C   UNL     1      -8.948   6.080  74.196  1.00  0.00    -0.128 C  
BRANCH  18  19
HETATM   19  C   UNL     1     -10.310   5.465  74.530  1.00  0.00    -0.272 C  
BRANCH  19  20
HETATM   20  C   UNL     1     -10.645   4.284  73.617  1.00  0.00    -0.304 C  
BRANCH  20  21
HETATM   21  C   UNL     1      -9.450   3.379  73.416  1.00  0.00    -0.103 C  
HETATM   22  O   UNL     1      -8.827   2.876  74.349  1.00  0.00    -0.078 OA 
BRANCH  21  23
HETATM   23  C   UNL     1      -8.997   3.126  72.023  1.00  0.00    -0.137 A  
HETATM   24  C   UNL     1      -7.982   3.943  71.505  1.00  0.00    -0.065 A  
HETATM   25  C   UNL     1      -7.543   3.766  70.194  1.00  0.00    -0.048 A  
HETATM   26  C   UNL     1      -8.106   2.766  69.411  1.00  0.00    -0.047 A  
HETATM   27  C   UNL     1      -9.103   1.938  69.917  1.00  0.00    -0.159 A  
HETATM   28  F   UNL     1      -7.685   2.597  68.153  1.00  0.00    -0.054 F  
HETATM   29  C   UNL     1      -9.553   2.115  71.227  1.00  0.00    -0.216 A  
ENDBRANCH  21  23
ENDBRANCH  20  21
ENDBRANCH  19  20
ENDBRANCH  18  19
ENDBRANCH  15  18
ENDBRANCH  11  12
TORSDOF 6
ENDMDL
MODEL      228
REMARK 921   NORMALIZED FREE ENERGY PREDICTED BY IDOCK:   -3.64 KCAL/MOL
REMARK 922        TOTAL FREE ENERGY PREDICTED BY IDOCK:   -6.22 KCAL/MOL
REMARK 923 INTER-LIGAND FREE ENERGY PREDICTED BY IDOCK:   -6.54 KCAL/MOL
REMARK 924 INTRA-LIGAND FREE ENERGY PREDICTED BY IDOCK:    0.32 KCAL/MOL
REMARK 927      BINDING AFFINITY PREDICTED BY RF-SCORE:    0.00 PKD
ROOT
HETATM    1  O   UNL     1     -10.131   6.232  70.772  1.00  0.00    -0.184 OA 
HETATM    2  C   UNL     1      -9.932   5.330  69.837  1.00  0.00    -0.239 A  
HETATM    3  H   UNL     1     -10.167   7.161  70.577  1.00  0.00     0.000 HD 
HETATM    4  N   UNL     1      -9.883   4.055  70.104  1.00  0.00    -0.194 NA 
HETATM    5  C   UNL     1      -9.615   3.468  68.894  1.00  0.00    -0.070 A  
HETATM    6  C   UNL     1      -9.395   2.115  68.602  1.00  0.00    -0.235 A  
HETATM    7  C   UNL     1      -9.125   1.749  67.278  1.00  0.00    -0.141 A  
HETATM    8  C   UNL     1      -9.104   2.703  66.263  1.00  0.00    -0.118 A  
HETATM    9  C   UNL     1      -9.327   4.057  66.532  1.00  0.00    -0.192 A  
HETATM   10  C   UNL     1      -9.548   4.414  67.867  1.00  0.00    -0.152 A  
HETATM   11  N   UNL     1      -9.689   5.613  68.521  1.00  0.00    -0.129 NA 
ENDROOT
BRANCH  11  12
HETATM   12  C   UNL     1      -9.421   6.948  68.031  1.00  0.00    -0.124 C  
HETATM   13  C   UNL     1      -8.298   7.685  68.754  1.00  0.00    -0.129 C  
HETATM   14  C   UNL     1      -7.975   8.933  67.931  1.00  0.00    -0.102 C  
HETATM   15  N   UNL     1      -9.134   9.823  67.731  1.00  0.00    -0.131 NA 
HETATM   16  C   UNL     1     -10.291   9.109  67.169  1.00  0.00    -0.267 C  
HETATM   17  C   UNL     1     -10.660   7.846  67.943  1.00  0.00    -0.215 C  
BRANCH  15  18
HETATM   18  C   UNL     1      -9.495  10.599  68.926  1.00  0.00    -0.192 C  
BRANCH  18  19
HETATM   19  C   UNL     1     -10.881  10.243  69.470  1.00  0.00    -0.292 C  
BRANCH  19  20
HETATM   20  C   UNL     1     -11.981  11.098  68.840  1.00  0.00    -0.367 C  
BRANCH  20  21
HETATM   21  C   UNL     1     -11.680  12.575  68.966  1.00  0.00    -0.318 C  
HETATM   22  O   UNL     1     -11.558  13.143  70.049  1.00  0.00    -0.238 OA 
BRANCH  21  23
HETATM   23  C   UNL     1     -11.569  13.371  67.714  1.00  0.00    -0.375 A  
HETATM   24  C   UNL     1     -11.033  14.663  67.804  1.00  0.00    -0.291 A  
HETATM   25  C   UNL     1     -10.935  15.460  66.664  1.00  0.00    -0.275 A  
HETATM   26  C   UNL     1     -11.359  14.959  65.440  1.00  0.00    -0.346 A  
HETATM   27  C   UNL     1     -11.879  13.674  65.333  1.00  0.00    -0.370 A  
HETATM   28  F   UNL     1     -11.267  15.725  64.346  1.00  0.00    -0.411 F  
HETATM   29  C   UNL     1     -11.987  12.873  66.473  1.00  0.00    -0.447 A  
ENDBRANCH  21  23
ENDBRANCH  20  21
ENDBRANCH  19  20
ENDBRANCH  18  19
ENDBRANCH  15  18
ENDBRANCH  11  12
TORSDOF 6
ENDMDL
MODEL      229
REMARK 921   NORMALIZED FREE ENERGY PREDICTED BY IDOCK:   -3.60 KCAL/MOL
REMARK 922        TOTAL FREE ENERGY PREDICTED BY IDOCK:   -6.17 KCAL/MOL
REMARK 923 INTER-LIGAND FREE ENERGY PREDICTED BY IDOCK:   -5.35 KCAL/MOL
REMARK 924 INTRA-LIGAND FREE ENERGY PREDICTED BY IDOCK:   -0.82 KCAL/MOL
REMARK 927      BINDING AFFINITY PREDICTED BY RF-SCORE:    0.00 PKD
ROOT
HETATM    1  O   UNL     1      -8.592   5.249  66.605  1.00  0.00    -0.111 OA 
HETATM    2  C   UNL     1      -8.532   5.547  67.884  1.00  0.00    -0.098 A  
HETATM    3  H   UNL     1      -8.576   5.917  65.930  1.00  0.00     0.000 HD 
HETATM    4  N   UNL     1      -8.552   4.631  68.810  1.00  0.00    -0.084 NA 
HETATM    5  C   UNL     1      -8.522   5.339  69.985  1.00  0.00    -0.101 A  
HETATM    6  C   UNL     1      -8.588   4.864  71.301  1.00  0.00    -0.132 A  
HETATM    7  C   UNL     1      -8.551   5.788  72.352  1.00  0.00    -0.121 A  
HETATM    8  C   UNL     1      -8.422   7.152  72.100  1.00  0.00    -0.118 A  
HETATM    9  C   UNL     1      -8.349   7.647  70.794  1.00  0.00    -0.117 A  
HETATM   10  C   UNL     1      -8.436   6.715  69.753  1.00  0.00    -0.132 A  
HETATM   11  N   UNL     1      -8.513   6.820  68.386  1.00  0.00    -0.122 NA 
ENDROOT
BRANCH  11  12
HETATM   12  C   UNL     1      -8.760   7.996  67.581  1.00  0.00    -0.126 C  
HETATM   13  C   UNL     1      -7.645   9.038  67.607  1.00  0.00    -0.093 C  
HETATM   14  C   UNL     1      -7.947  10.049  66.499  1.00  0.00    -0.115 C  
HETATM   15  N   UNL     1      -9.265  10.696  66.636  1.00  0.00    -0.162 NA 
HETATM   16  C   UNL     1     -10.354   9.716  66.762  1.00  0.00    -0.222 C  
HETATM   17  C   UNL     1     -10.109   8.672  67.849  1.00  0.00    -0.254 C  
BRANCH  15  18
HETATM   18  C   UNL     1      -9.315  11.713  67.696  1.00  0.00    -0.178 C  
BRANCH  18  19
HETATM   19  C   UNL     1     -10.097  12.964  67.283  1.00  0.00    -0.231 C  
BRANCH  19  20
HETATM   20  C   UNL     1      -9.332  13.806  66.261  1.00  0.00    -0.166 C  
BRANCH  20  21
HETATM   21  C   UNL     1      -9.981  15.156  66.055  1.00  0.00    -0.311 C  
HETATM   22  O   UNL     1     -10.972  15.322  65.346  1.00  0.00    -0.338 OA 
BRANCH  21  23
HETATM   23  C   UNL     1      -9.358  16.335  66.714  1.00  0.00    -0.258 A  
HETATM   24  C   UNL     1      -8.073  16.713  66.301  1.00  0.00    -0.361 A  
HETATM   25  C   UNL     1      -7.433  17.792  66.909  1.00  0.00    -0.230 A  
HETATM   26  C   UNL     1      -8.082  18.497  67.915  1.00  0.00    -0.256 A  
HETATM   27  C   UNL     1      -9.363  18.141  68.324  1.00  0.00    -0.312 A  
HETATM   28  F   UNL     1      -7.467  19.531  68.499  1.00  0.00    -0.317 F  
HETATM   29  C   UNL     1     -10.007  17.056  67.725  1.00  0.00    -0.280 A  
ENDBRANCH  21  23
ENDBRANCH  20  21
ENDBRANCH  19  20
ENDBRANCH  18  19
ENDBRANCH  15  18
ENDBRANCH  11  12
TORSDOF 6
ENDMDL
MODEL      230
REMARK 921   NORMALIZED FREE ENERGY PREDICTED BY IDOCK:   -3.60 KCAL/MOL
REMARK 922        TOTAL FREE ENERGY PREDICTED BY IDOCK:   -6.17 KCAL/MOL
REMARK 923 INTER-LIGAND FREE ENERGY PREDICTED BY IDOCK:   -4.86 KCAL/MOL
REMARK 924 INTRA-LIGAND FREE ENERGY PREDICTED BY IDOCK:   -1.30 KCAL/MOL
REMARK 927      BINDING AFFINITY PREDICTED BY RF-SCORE:    0.00 PKD
ROOT
HETATM    1  O   UNL     1      -5.524   9.060  66.458  1.00  0.00    -0.037 OA 
HETATM    2  C   UNL     1      -6.574   8.978  67.244  1.00  0.00    -0.061 A  
HETATM    3  H   UNL     1      -4.834   9.696  66.603  1.00  0.00     0.000 HD 
HETATM    4  N   UNL     1      -7.521   8.105  67.045  1.00  0.00    -0.087 NA 
HETATM    5  C   UNL     1      -8.437   8.372  68.031  1.00  0.00    -0.132 A  
HETATM    6  C   UNL     1      -9.686   7.778  68.257  1.00  0.00    -0.169 A  
HETATM    7  C   UNL     1     -10.461   8.228  69.332  1.00  0.00    -0.224 A  
HETATM    8  C   UNL     1      -9.991   9.228  70.181  1.00  0.00    -0.251 A  
HETATM    9  C   UNL     1      -8.746   9.831  69.977  1.00  0.00    -0.237 A  
HETATM   10  C   UNL     1      -8.004   9.403  68.869  1.00  0.00    -0.087 A  
HETATM   11  N   UNL     1      -6.829   9.819  68.294  1.00  0.00    -0.067 NA 
ENDROOT
BRANCH  11  12
HETATM   12  C   UNL     1      -6.076  11.027  68.545  1.00  0.00    -0.042 C  
HETATM   13  C   UNL     1      -6.275  11.633  69.931  1.00  0.00    -0.144 C  
HETATM   14  C   UNL     1      -5.205  12.712  70.109  1.00  0.00    -0.100 C  
HETATM   15  N   UNL     1      -5.249  13.761  69.075  1.00  0.00    -0.070 NA 
HETATM   16  C   UNL     1      -5.208  13.202  67.715  1.00  0.00    -0.089 C  
HETATM   17  C   UNL     1      -6.248  12.111  67.475  1.00  0.00    -0.130 C  
BRANCH  15  18
HETATM   18  C   UNL     1      -6.358  14.711  69.244  1.00  0.00    -0.116 C  
BRANCH  18  19
HETATM   19  C   UNL     1      -6.650  15.517  67.975  1.00  0.00    -0.156 C  
BRANCH  19  20
HETATM   20  C   UNL     1      -8.059  16.111  67.985  1.00  0.00    -0.149 C  
BRANCH  20  21
HETATM   21  C   UNL     1      -8.904  15.560  66.857  1.00  0.00    -0.255 C  
HETATM   22  O   UNL     1      -8.948  16.073  65.742  1.00  0.00    -0.335 OA 
BRANCH  21  23
HETATM   23  C   UNL     1      -9.744  14.365  67.139  1.00  0.00    -0.248 A  
HETATM   24  C   UNL     1     -11.093  14.574  67.457  1.00  0.00    -0.316 A  
HETATM   25  C   UNL     1     -11.916  13.489  67.758  1.00  0.00    -0.369 A  
HETATM   26  C   UNL     1     -11.392  12.202  67.727  1.00  0.00    -0.307 A  
HETATM   27  C   UNL     1     -10.060  11.980  67.398  1.00  0.00    -0.206 A  
HETATM   28  F   UNL     1     -12.181  11.161  68.018  1.00  0.00    -0.249 F  
HETATM   29  C   UNL     1      -9.228  13.063  67.103  1.00  0.00    -0.226 A  
ENDBRANCH  21  23
ENDBRANCH  20  21
ENDBRANCH  19  20
ENDBRANCH  18  19
ENDBRANCH  15  18
ENDBRANCH  11  12
TORSDOF 6
ENDMDL
MODEL      231
REMARK 921   NORMALIZED FREE ENERGY PREDICTED BY IDOCK:   -3.53 KCAL/MOL
REMARK 922        TOTAL FREE ENERGY PREDICTED BY IDOCK:   -6.07 KCAL/MOL
REMARK 923 INTER-LIGAND FREE ENERGY PREDICTED BY IDOCK:   -5.37 KCAL/MOL
REMARK 924 INTRA-LIGAND FREE ENERGY PREDICTED BY IDOCK:   -0.71 KCAL/MOL
REMARK 927      BINDING AFFINITY PREDICTED BY RF-SCORE:    0.00 PKD
ROOT
HETATM    1  O   UNL     1      -7.212   2.629  67.296  1.00  0.00    -0.052 OA 
HETATM    2  C   UNL     1      -8.033   2.678  66.271  1.00  0.00    -0.082 A  
HETATM    3  H   UNL     1      -7.098   3.365  67.886  1.00  0.00     0.000 HD 
HETATM    4  N   UNL     1      -8.190   1.670  65.461  1.00  0.00    -0.076 NA 
HETATM    5  C   UNL     1      -9.073   2.130  64.517  1.00  0.00    -0.123 A  
HETATM    6  C   UNL     1      -9.551   1.485  63.369  1.00  0.00    -0.105 A  
HETATM    7  C   UNL     1     -10.449   2.165  62.539  1.00  0.00    -0.112 A  
HETATM    8  C   UNL     1     -10.883   3.449  62.859  1.00  0.00    -0.152 A  
HETATM    9  C   UNL     1     -10.424   4.110  64.003  1.00  0.00    -0.096 A  
HETATM   10  C   UNL     1      -9.490   3.435  64.797  1.00  0.00    -0.155 A  
HETATM   11  N   UNL     1      -8.747   3.785  65.898  1.00  0.00    -0.113 NA 
ENDROOT
BRANCH  11  12
HETATM   12  C   UNL     1      -8.536   5.097  66.467  1.00  0.00    -0.111 C  
HETATM   13  C   UNL     1      -9.667   5.601  67.359  1.00  0.00    -0.138 C  
HETATM   14  C   UNL     1      -9.149   6.845  68.083  1.00  0.00    -0.124 C  
HETATM   15  N   UNL     1      -8.695   7.911  67.171  1.00  0.00    -0.130 NA 
HETATM   16  C   UNL     1      -7.707   7.423  66.196  1.00  0.00    -0.094 C  
HETATM   17  C   UNL     1      -8.161   6.175  65.444  1.00  0.00    -0.145 C  
BRANCH  15  18
HETATM   18  C   UNL     1      -9.794   8.640  66.522  1.00  0.00    -0.278 C  
BRANCH  18  19
HETATM   19  C   UNL     1      -9.317   9.886  65.770  1.00  0.00    -0.259 C  
BRANCH  19  20
HETATM   20  C   UNL     1     -10.479  10.654  65.139  1.00  0.00    -0.271 C  
BRANCH  20  21
HETATM   21  C   UNL     1     -10.299  12.150  65.277  1.00  0.00    -0.277 C  
HETATM   22  O   UNL     1      -9.674  12.826  64.463  1.00  0.00    -0.064 OA 
BRANCH  21  23
HETATM   23  C   UNL     1     -10.876  12.811  66.478  1.00  0.00    -0.280 A  
HETATM   24  C   UNL     1     -11.294  11.994  67.538  1.00  0.00    -0.387 A  
HETATM   25  C   UNL     1     -11.868  12.564  68.674  1.00  0.00    -0.340 A  
HETATM   26  C   UNL     1     -12.010  13.943  68.752  1.00  0.00    -0.358 A  
HETATM   27  C   UNL     1     -11.587  14.766  67.714  1.00  0.00    -0.378 A  
HETATM   28  F   UNL     1     -12.563  14.489  69.841  1.00  0.00    -0.359 F  
HETATM   29  C   UNL     1     -11.017  14.202  66.569  1.00  0.00    -0.309 A  
ENDBRANCH  21  23
ENDBRANCH  20  21
ENDBRANCH  19  20
ENDBRANCH  18  19
ENDBRANCH  15  18
ENDBRANCH  11  12
TORSDOF 6
ENDMDL
MODEL      232
REMARK 921   NORMALIZED FREE ENERGY PREDICTED BY IDOCK:   -3.50 KCAL/MOL
REMARK 922        TOTAL FREE ENERGY PREDICTED BY IDOCK:   -6.04 KCAL/MOL
REMARK 923 INTER-LIGAND FREE ENERGY PREDICTED BY IDOCK:   -4.77 KCAL/MOL
REMARK 924 INTRA-LIGAND FREE ENERGY PREDICTED BY IDOCK:   -1.27 KCAL/MOL
REMARK 927      BINDING AFFINITY PREDICTED BY RF-SCORE:    0.00 PKD
ROOT
HETATM    1  O   UNL     1     -10.275  11.727  67.629  1.00  0.00    -0.195 OA 
HETATM    2  C   UNL     1      -9.856  11.155  66.523  1.00  0.00    -0.208 A  
HETATM    3  H   UNL     1     -10.296  11.267  68.460  1.00  0.00     0.000 HD 
HETATM    4  N   UNL     1      -9.828  11.786  65.384  1.00  0.00    -0.232 NA 
HETATM    5  C   UNL     1      -9.384  10.846  64.489  1.00  0.00    -0.223 A  
HETATM    6  C   UNL     1      -9.223  10.958  63.102  1.00  0.00    -0.314 A  
HETATM    7  C   UNL     1      -8.760   9.847  62.386  1.00  0.00    -0.233 A  
HETATM    8  C   UNL     1      -8.439   8.660  63.040  1.00  0.00    -0.113 A  
HETATM    9  C   UNL     1      -8.588   8.528  64.425  1.00  0.00    -0.033 A  
HETATM   10  C   UNL     1      -9.096   9.632  65.119  1.00  0.00    -0.228 A  
HETATM   11  N   UNL     1      -9.477   9.843  66.421  1.00  0.00    -0.173 NA 
ENDROOT
BRANCH  11  12
HETATM   12  C   UNL     1      -9.680   8.873  67.474  1.00  0.00    -0.170 C  
HETATM   13  C   UNL     1      -8.400   8.302  68.078  1.00  0.00    -0.129 C  
HETATM   14  C   UNL     1      -8.801   7.532  69.338  1.00  0.00    -0.136 C  
HETATM   15  N   UNL     1      -9.779   6.458  69.085  1.00  0.00    -0.135 NA 
HETATM   16  C   UNL     1     -10.967   6.946  68.369  1.00  0.00    -0.132 C  
HETATM   17  C   UNL     1     -10.634   7.732  67.103  1.00  0.00    -0.401 C  
BRANCH  15  18
HETATM   18  C   UNL     1      -9.198   5.271  68.440  1.00  0.00    -0.113 C  
BRANCH  18  19
HETATM   19  C   UNL     1      -7.917   4.789  69.126  1.00  0.00    -0.071 C  
BRANCH  19  20
HETATM   20  C   UNL     1      -8.132   3.483  69.891  1.00  0.00    -0.060 C  
BRANCH  20  21
HETATM   21  C   UNL     1      -7.902   3.661  71.375  1.00  0.00    -0.060 C  
HETATM   22  O   UNL     1      -7.061   3.023  72.003  1.00  0.00    -0.036 OA 
BRANCH  21  23
HETATM   23  C   UNL     1      -8.768   4.629  72.101  1.00  0.00    -0.127 A  
HETATM   24  C   UNL     1      -8.159   5.761  72.660  1.00  0.00    -0.105 A  
HETATM   25  C   UNL     1      -8.922   6.683  73.375  1.00  0.00    -0.140 A  
HETATM   26  C   UNL     1     -10.289   6.479  73.517  1.00  0.00    -0.281 A  
HETATM   27  C   UNL     1     -10.908   5.368  72.954  1.00  0.00    -0.318 A  
HETATM   28  F   UNL     1     -11.020   7.363  74.204  1.00  0.00    -0.155 F  
HETATM   29  C   UNL     1     -10.148   4.436  72.243  1.00  0.00    -0.253 A  
ENDBRANCH  21  23
ENDBRANCH  20  21
ENDBRANCH  19  20
ENDBRANCH  18  19
ENDBRANCH  15  18
ENDBRANCH  11  12
TORSDOF 6
ENDMDL
MODEL      233
REMARK 921   NORMALIZED FREE ENERGY PREDICTED BY IDOCK:   -3.45 KCAL/MOL
REMARK 922        TOTAL FREE ENERGY PREDICTED BY IDOCK:   -5.97 KCAL/MOL
REMARK 923 INTER-LIGAND FREE ENERGY PREDICTED BY IDOCK:   -5.09 KCAL/MOL
REMARK 924 INTRA-LIGAND FREE ENERGY PREDICTED BY IDOCK:   -0.88 KCAL/MOL
REMARK 927      BINDING AFFINITY PREDICTED BY RF-SCORE:    0.00 PKD
ROOT
HETATM    1  O   UNL     1      -6.997   7.130  67.192  1.00  0.00    -0.072 OA 
HETATM    2  C   UNL     1      -7.897   7.483  68.083  1.00  0.00    -0.122 A  
HETATM    3  H   UNL     1      -6.237   7.667  67.003  1.00  0.00     0.000 HD 
HETATM    4  N   UNL     1      -8.940   6.747  68.343  1.00  0.00    -0.125 NA 
HETATM    5  C   UNL     1      -9.641   7.473  69.272  1.00  0.00    -0.158 A  
HETATM    6  C   UNL     1     -10.880   7.187  69.860  1.00  0.00    -0.276 A  
HETATM    7  C   UNL     1     -11.411   8.093  70.786  1.00  0.00    -0.283 A  
HETATM    8  C   UNL     1     -10.711   9.244  71.139  1.00  0.00    -0.403 A  
HETATM    9  C   UNL     1      -9.470   9.546  70.569  1.00  0.00    -0.306 A  
HETATM   10  C   UNL     1      -8.976   8.655  69.609  1.00  0.00    -0.145 A  
HETATM   11  N   UNL     1      -7.887   8.665  68.774  1.00  0.00    -0.104 NA 
ENDROOT
BRANCH  11  12
HETATM   12  C   UNL     1      -6.993   9.759  68.463  1.00  0.00    -0.064 C  
HETATM   13  C   UNL     1      -6.378  10.450  69.677  1.00  0.00    -0.068 C  
HETATM   14  C   UNL     1      -5.268  11.366  69.158  1.00  0.00    -0.043 C  
HETATM   15  N   UNL     1      -5.737  12.362  68.177  1.00  0.00    -0.057 NA 
HETATM   16  C   UNL     1      -6.467  11.740  67.062  1.00  0.00    -0.147 C  
HETATM   17  C   UNL     1      -7.586  10.805  67.514  1.00  0.00    -0.094 C  
BRANCH  15  18
HETATM   18  C   UNL     1      -6.491  13.472  68.777  1.00  0.00    -0.098 C  
BRANCH  18  19
HETATM   19  C   UNL     1      -5.751  14.810  68.689  1.00  0.00    -0.091 C  
BRANCH  19  20
HETATM   20  C   UNL     1      -6.100  15.736  69.855  1.00  0.00    -0.166 C  
BRANCH  20  21
HETATM   21  C   UNL     1      -6.410  17.138  69.379  1.00  0.00    -0.238 C  
HETATM   22  O   UNL     1      -5.828  18.133  69.806  1.00  0.00    -0.227 OA 
BRANCH  21  23
HETATM   23  C   UNL     1      -7.498  17.307  68.379  1.00  0.00    -0.234 A  
HETATM   24  C   UNL     1      -8.808  17.012  68.781  1.00  0.00    -0.244 A  
HETATM   25  C   UNL     1      -9.860  17.127  67.872  1.00  0.00    -0.283 A  
HETATM   26  C   UNL     1      -9.601  17.548  66.574  1.00  0.00    -0.285 A  
HETATM   27  C   UNL     1      -8.308  17.859  66.167  1.00  0.00    -0.163 A  
HETATM   28  F   UNL     1     -10.610  17.656  65.702  1.00  0.00    -0.386 F  
HETATM   29  C   UNL     1      -7.249  17.739  67.070  1.00  0.00    -0.209 A  
ENDBRANCH  21  23
ENDBRANCH  20  21
ENDBRANCH  19  20
ENDBRANCH  18  19
ENDBRANCH  15  18
ENDBRANCH  11  12
TORSDOF 6
ENDMDL
MODEL      234
REMARK 921   NORMALIZED FREE ENERGY PREDICTED BY IDOCK:   -3.40 KCAL/MOL
REMARK 922        TOTAL FREE ENERGY PREDICTED BY IDOCK:   -5.90 KCAL/MOL
REMARK 923 INTER-LIGAND FREE ENERGY PREDICTED BY IDOCK:   -5.07 KCAL/MOL
REMARK 924 INTRA-LIGAND FREE ENERGY PREDICTED BY IDOCK:   -0.82 KCAL/MOL
REMARK 927      BINDING AFFINITY PREDICTED BY RF-SCORE:    0.00 PKD
ROOT
HETATM    1  O   UNL     1     -10.681  11.659  69.442  1.00  0.00    -0.407 OA 
HETATM    2  C   UNL     1     -10.226  10.602  68.809  1.00  0.00    -0.190 A  
HETATM    3  H   UNL     1     -10.357  12.534  69.262  1.00  0.00     0.000 HD 
HETATM    4  N   UNL     1     -10.670   9.402  69.056  1.00  0.00    -0.214 NA 
HETATM    5  C   UNL     1      -9.922   8.591  68.241  1.00  0.00    -0.184 A  
HETATM    6  C   UNL     1      -9.933   7.194  68.139  1.00  0.00    -0.172 A  
HETATM    7  C   UNL     1      -9.062   6.578  67.232  1.00  0.00    -0.117 A  
HETATM    8  C   UNL     1      -8.219   7.338  66.424  1.00  0.00    -0.120 A  
HETATM    9  C   UNL     1      -8.196   8.734  66.506  1.00  0.00    -0.111 A  
HETATM   10  C   UNL     1      -9.038   9.332  67.451  1.00  0.00    -0.126 A  
HETATM   11  N   UNL     1      -9.210  10.621  67.891  1.00  0.00    -0.147 NA 
ENDROOT
BRANCH  11  12
HETATM   12  C   UNL     1      -8.377  11.778  67.652  1.00  0.00    -0.145 C  
HETATM   13  C   UNL     1      -7.391  12.103  68.770  1.00  0.00    -0.090 C  
HETATM   14  C   UNL     1      -6.423  13.156  68.225  1.00  0.00    -0.096 C  
HETATM   15  N   UNL     1      -7.092  14.382  67.752  1.00  0.00    -0.161 NA 
HETATM   16  C   UNL     1      -8.155  14.092  66.777  1.00  0.00     0.274 C  
HETATM   17  C   UNL     1      -9.152  13.041  67.258  1.00  0.00    -0.209 C  
BRANCH  15  18
HETATM   18  C   UNL     1      -7.565  15.253  68.838  1.00  0.00    -0.152 C  
BRANCH  18  19
HETATM   19  C   UNL     1      -7.423  16.742  68.509  1.00  0.00    -0.213 C  
BRANCH  19  20
HETATM   20  C   UNL     1      -8.741  17.496  68.686  1.00  0.00    -0.258 C  
BRANCH  20  21
HETATM   21  C   UNL     1      -9.890  16.776  68.016  1.00  0.00    -0.265 C  
HETATM   22  O   UNL     1     -10.142  16.886  66.818  1.00  0.00    -0.275 OA 
BRANCH  21  23
HETATM   23  C   UNL     1     -10.770  15.930  68.866  1.00  0.00    -0.254 A  
HETATM   24  C   UNL     1     -11.744  15.149  68.228  1.00  0.00    -0.336 A  
HETATM   25  C   UNL     1     -12.612  14.362  68.982  1.00  0.00     0.235 A  
HETATM   26  C   UNL     1     -12.496  14.346  70.366  1.00  0.00    -0.357 A  
HETATM   27  C   UNL     1     -11.525  15.104  71.011  1.00  0.00    -0.372 A  
HETATM   28  F   UNL     1     -13.332  13.592  71.090  1.00  0.00    -0.351 F  
HETATM   29  C   UNL     1     -10.656  15.901  70.263  1.00  0.00    -0.260 A  
ENDBRANCH  21  23
ENDBRANCH  20  21
ENDBRANCH  19  20
ENDBRANCH  18  19
ENDBRANCH  15  18
ENDBRANCH  11  12
TORSDOF 6
ENDMDL
MODEL      235
REMARK 921   NORMALIZED FREE ENERGY PREDICTED BY IDOCK:   -3.39 KCAL/MOL
REMARK 922        TOTAL FREE ENERGY PREDICTED BY IDOCK:   -5.88 KCAL/MOL
REMARK 923 INTER-LIGAND FREE ENERGY PREDICTED BY IDOCK:   -4.46 KCAL/MOL
REMARK 924 INTRA-LIGAND FREE ENERGY PREDICTED BY IDOCK:   -1.42 KCAL/MOL
REMARK 927      BINDING AFFINITY PREDICTED BY RF-SCORE:    0.00 PKD
ROOT
HETATM    1  O   UNL     1     -10.518  10.300  71.181  1.00  0.00    -0.075 OA 
HETATM    2  C   UNL     1     -10.547   9.217  70.437  1.00  0.00    -0.230 A  
HETATM    3  H   UNL     1     -10.557  11.171  70.804  1.00  0.00     0.000 HD 
HETATM    4  N   UNL     1     -10.494   8.021  70.953  1.00  0.00    -0.201 NA 
HETATM    5  C   UNL     1     -10.498   7.184  69.866  1.00  0.00    -0.223 A  
HETATM    6  C   UNL     1     -10.393   5.788  69.829  1.00  0.00    -0.332 A  
HETATM    7  C   UNL     1     -10.409   5.144  68.586  1.00  0.00    -0.148 A  
HETATM    8  C   UNL     1     -10.556   5.872  67.408  1.00  0.00    -0.356 A  
HETATM    9  C   UNL     1     -10.668   7.266  67.422  1.00  0.00    -0.358 A  
HETATM   10  C   UNL     1     -10.601   7.898  68.669  1.00  0.00    -0.111 A  
HETATM   11  N   UNL     1     -10.562   9.211  69.069  1.00  0.00    -0.220 NA 
ENDROOT
BRANCH  11  12
HETATM   12  C   UNL     1     -10.347  10.396  68.267  1.00  0.00    -0.171 C  
HETATM   13  C   UNL     1     -11.526  10.799  67.387  1.00  0.00    -0.113 C  
HETATM   14  C   UNL     1     -11.227  12.199  66.847  1.00  0.00    -0.320 C  
HETATM   15  N   UNL     1      -9.964  12.281  66.091  1.00  0.00    -0.238 NA 
HETATM   16  C   UNL     1      -8.823  11.761  66.859  1.00  0.00    -0.191 C  
HETATM   17  C   UNL     1      -9.061  10.367  67.433  1.00  0.00    -0.144 C  
BRANCH  15  18
HETATM   18  C   UNL     1     -10.040  11.686  64.749  1.00  0.00    -0.260 C  
BRANCH  18  19
HETATM   19  C   UNL     1      -8.712  11.076  64.294  1.00  0.00     0.084 C  
BRANCH  19  20
HETATM   20  C   UNL     1      -8.876   9.628  63.829  1.00  0.00    -0.257 C  
BRANCH  20  21
HETATM   21  C   UNL     1      -7.571   9.055  63.320  1.00  0.00    -0.106 C  
HETATM   22  O   UNL     1      -6.845   9.646  62.525  1.00  0.00    -0.099 OA 
BRANCH  21  23
HETATM   23  C   UNL     1      -7.184   7.695  63.782  1.00  0.00    -0.085 A  
HETATM   24  C   UNL     1      -7.648   7.272  65.036  1.00  0.00    -0.107 A  
HETATM   25  C   UNL     1      -7.288   6.018  65.527  1.00  0.00    -0.076 A  
HETATM   26  C   UNL     1      -6.479   5.188  64.760  1.00  0.00    -0.035 A  
HETATM   27  C   UNL     1      -6.024   5.589  63.509  1.00  0.00    -0.021 A  
HETATM   28  F   UNL     1      -6.133   3.985  65.233  1.00  0.00    -0.021 F  
HETATM   29  C   UNL     1      -6.374   6.847  63.014  1.00  0.00    -0.043 A  
ENDBRANCH  21  23
ENDBRANCH  20  21
ENDBRANCH  19  20
ENDBRANCH  18  19
ENDBRANCH  15  18
ENDBRANCH  11  12
TORSDOF 6
ENDMDL
MODEL      236
REMARK 921   NORMALIZED FREE ENERGY PREDICTED BY IDOCK:   -3.37 KCAL/MOL
REMARK 922        TOTAL FREE ENERGY PREDICTED BY IDOCK:   -5.86 KCAL/MOL
REMARK 923 INTER-LIGAND FREE ENERGY PREDICTED BY IDOCK:   -4.65 KCAL/MOL
REMARK 924 INTRA-LIGAND FREE ENERGY PREDICTED BY IDOCK:   -1.22 KCAL/MOL
REMARK 927      BINDING AFFINITY PREDICTED BY RF-SCORE:    0.00 PKD
ROOT
HETATM    1  O   UNL     1      -9.404  11.839  64.487  1.00  0.00    -0.424 OA 
HETATM    2  C   UNL     1      -9.015  10.585  64.544  1.00  0.00    -0.209 A  
HETATM    3  H   UNL     1      -9.605  12.341  65.267  1.00  0.00     0.000 HD 
HETATM    4  N   UNL     1      -8.739   9.896  63.473  1.00  0.00    -0.194 NA 
HETATM    5  C   UNL     1      -8.428   8.647  63.947  1.00  0.00    -0.062 A  
HETATM    6  C   UNL     1      -8.112   7.486  63.229  1.00  0.00    -0.031 A  
HETATM    7  C   UNL     1      -7.838   6.311  63.937  1.00  0.00    -0.112 A  
HETATM    8  C   UNL     1      -7.850   6.297  65.330  1.00  0.00    -0.107 A  
HETATM    9  C   UNL     1      -8.157   7.446  66.067  1.00  0.00    -0.124 A  
HETATM   10  C   UNL     1      -8.476   8.601  65.343  1.00  0.00    -0.172 A  
HETATM   11  N   UNL     1      -8.925   9.850  65.695  1.00  0.00    -0.161 NA 
ENDROOT
BRANCH  11  12
HETATM   12  C   UNL     1      -9.438  10.302  66.969  1.00  0.00    -0.163 C  
HETATM   13  C   UNL     1      -8.730   9.720  68.190  1.00  0.00    -0.119 C  
HETATM   14  C   UNL     1      -9.205  10.515  69.407  1.00  0.00    -0.107 C  
HETATM   15  N   UNL     1     -10.668  10.488  69.594  1.00  0.00    -0.251 NA 
HETATM   16  C   UNL     1     -11.389  10.904  68.382  1.00  0.00    -0.304 C  
HETATM   17  C   UNL     1     -10.954  10.152  67.127  1.00  0.00    -0.204 C  
BRANCH  15  18
HETATM   18  C   UNL     1     -11.172   9.212  70.122  1.00  0.00    -0.187 C  
BRANCH  18  19
HETATM   19  C   UNL     1     -11.092   9.128  71.649  1.00  0.00    -0.445 C  
BRANCH  19  20
HETATM   20  C   UNL     1     -10.867   7.695  72.134  1.00  0.00    -0.293 C  
BRANCH  20  21
HETATM   21  C   UNL     1      -9.429   7.463  72.539  1.00  0.00    -0.152 C  
HETATM   22  O   UNL     1      -8.907   8.018  73.504  1.00  0.00    -0.242 OA 
BRANCH  21  23
HETATM   23  C   UNL     1      -8.609   6.548  71.700  1.00  0.00    -0.128 A  
HETATM   24  C   UNL     1      -7.776   5.630  72.353  1.00  0.00    -0.102 A  
HETATM   25  C   UNL     1      -6.966   4.771  71.611  1.00  0.00    -0.052 A  
HETATM   26  C   UNL     1      -7.002   4.823  70.223  1.00  0.00    -0.048 A  
HETATM   27  C   UNL     1      -7.836   5.719  69.562  1.00  0.00    -0.093 A  
HETATM   28  F   UNL     1      -6.223   4.000  69.511  1.00  0.00    -0.024 F  
HETATM   29  C   UNL     1      -8.644   6.588  70.299  1.00  0.00    -0.136 A  
ENDBRANCH  21  23
ENDBRANCH  20  21
ENDBRANCH  19  20
ENDBRANCH  18  19
ENDBRANCH  15  18
ENDBRANCH  11  12
TORSDOF 6
ENDMDL
MODEL      237
REMARK 921   NORMALIZED FREE ENERGY PREDICTED BY IDOCK:   -3.34 KCAL/MOL
REMARK 922        TOTAL FREE ENERGY PREDICTED BY IDOCK:   -5.82 KCAL/MOL
REMARK 923 INTER-LIGAND FREE ENERGY PREDICTED BY IDOCK:   -5.66 KCAL/MOL
REMARK 924 INTRA-LIGAND FREE ENERGY PREDICTED BY IDOCK:   -0.16 KCAL/MOL
REMARK 927      BINDING AFFINITY PREDICTED BY RF-SCORE:    0.00 PKD
ROOT
HETATM    1  O   UNL     1     -10.669   5.882  71.928  1.00  0.00    -0.223 OA 
HETATM    2  C   UNL     1     -10.291   5.486  70.733  1.00  0.00    -0.251 A  
HETATM    3  H   UNL     1     -10.857   6.793  72.121  1.00  0.00     0.000 HD 
HETATM    4  N   UNL     1     -10.033   4.236  70.468  1.00  0.00    -0.195 NA 
HETATM    5  C   UNL     1      -9.633   4.247  69.156  1.00  0.00    -0.179 A  
HETATM    6  C   UNL     1      -9.175   3.183  68.366  1.00  0.00    -0.235 A  
HETATM    7  C   UNL     1      -8.808   3.439  67.040  1.00  0.00    -0.148 A  
HETATM    8  C   UNL     1      -8.920   4.720  66.503  1.00  0.00    -0.112 A  
HETATM    9  C   UNL     1      -9.379   5.795  67.271  1.00  0.00    -0.113 A  
HETATM   10  C   UNL     1      -9.697   5.532  68.609  1.00  0.00    -0.142 A  
HETATM   11  N   UNL     1     -10.060   6.320  69.673  1.00  0.00    -0.167 NA 
ENDROOT
BRANCH  11  12
HETATM   12  C   UNL     1     -10.010   7.761  69.791  1.00  0.00    -0.189 C  
HETATM   13  C   UNL     1     -11.177   8.499  69.143  1.00  0.00     0.315 C  
HETATM   14  C   UNL     1     -11.104   9.955  69.609  1.00  0.00    -0.241 C  
HETATM   15  N   UNL     1      -9.827  10.614  69.281  1.00  0.00    -0.208 NA 
HETATM   16  C   UNL     1      -8.667   9.850  69.765  1.00  0.00    -0.212 C  
HETATM   17  C   UNL     1      -8.685   8.384  69.339  1.00  0.00    -0.137 C  
BRANCH  15  18
HETATM   18  C   UNL     1      -9.695  10.972  67.861  1.00  0.00    -0.172 C  
BRANCH  18  19
HETATM   19  C   UNL     1     -11.009  11.463  67.248  1.00  0.00    -0.336 C  
BRANCH  19  20
HETATM   20  C   UNL     1     -10.793  12.640  66.295  1.00  0.00    -0.300 C  
BRANCH  20  21
HETATM   21  C   UNL     1      -9.563  13.437  66.665  1.00  0.00    -0.270 C  
HETATM   22  O   UNL     1      -8.425  12.977  66.608  1.00  0.00    -0.062 OA 
BRANCH  21  23
HETATM   23  C   UNL     1      -9.758  14.828  67.157  1.00  0.00    -0.234 A  
HETATM   24  C   UNL     1     -10.077  15.006  68.510  1.00  0.00    -0.225 A  
HETATM   25  C   UNL     1     -10.299  16.287  69.013  1.00  0.00    -0.264 A  
HETATM   26  C   UNL     1     -10.188  17.384  68.168  1.00  0.00    -0.350 A  
HETATM   27  C   UNL     1      -9.858  17.223  66.827  1.00  0.00    -0.296 A  
HETATM   28  F   UNL     1     -10.403  18.613  68.651  1.00  0.00    -0.375 F  
HETATM   29  C   UNL     1      -9.642  15.942  66.314  1.00  0.00    -0.345 A  
ENDBRANCH  21  23
ENDBRANCH  20  21
ENDBRANCH  19  20
ENDBRANCH  18  19
ENDBRANCH  15  18
ENDBRANCH  11  12
TORSDOF 6
ENDMDL
MODEL      238
REMARK 921   NORMALIZED FREE ENERGY PREDICTED BY IDOCK:   -3.34 KCAL/MOL
REMARK 922        TOTAL FREE ENERGY PREDICTED BY IDOCK:   -5.82 KCAL/MOL
REMARK 923 INTER-LIGAND FREE ENERGY PREDICTED BY IDOCK:   -4.60 KCAL/MOL
REMARK 924 INTRA-LIGAND FREE ENERGY PREDICTED BY IDOCK:   -1.21 KCAL/MOL
REMARK 927      BINDING AFFINITY PREDICTED BY RF-SCORE:    0.00 PKD
ROOT
HETATM    1  O   UNL     1      -5.810   2.796  66.640  1.00  0.00    -0.021 OA 
HETATM    2  C   UNL     1      -6.979   2.997  66.075  1.00  0.00    -0.057 A  
HETATM    3  H   UNL     1      -5.569   3.207  67.461  1.00  0.00     0.000 HD 
HETATM    4  N   UNL     1      -7.310   2.432  64.948  1.00  0.00    -0.061 NA 
HETATM    5  C   UNL     1      -8.561   2.927  64.678  1.00  0.00    -0.100 A  
HETATM    6  C   UNL     1      -9.373   2.705  63.558  1.00  0.00    -0.099 A  
HETATM    7  C   UNL     1     -10.622   3.333  63.497  1.00  0.00    -0.257 A  
HETATM    8  C   UNL     1     -11.066   4.142  64.540  1.00  0.00     0.083 A  
HETATM    9  C   UNL     1     -10.274   4.373  65.671  1.00  0.00    -0.259 A  
HETATM   10  C   UNL     1      -9.008   3.776  65.694  1.00  0.00    -0.136 A  
HETATM   11  N   UNL     1      -7.936   3.854  66.548  1.00  0.00    -0.096 NA 
ENDROOT
BRANCH  11  12
HETATM   12  C   UNL     1      -7.699   4.795  67.621  1.00  0.00    -0.086 C  
HETATM   13  C   UNL     1      -8.792   4.844  68.685  1.00  0.00    -0.116 C  
HETATM   14  C   UNL     1      -8.243   5.662  69.856  1.00  0.00    -0.109 C  
HETATM   15  N   UNL     1      -7.827   7.025  69.478  1.00  0.00    -0.117 NA 
HETATM   16  C   UNL     1      -6.881   7.023  68.351  1.00  0.00    -0.074 C  
HETATM   17  C   UNL     1      -7.368   6.215  67.151  1.00  0.00    -0.076 C  
BRANCH  15  18
HETATM   18  C   UNL     1      -8.951   7.944  69.250  1.00  0.00    -0.145 C  
BRANCH  18  19
HETATM   19  C   UNL     1      -8.833   9.239  70.059  1.00  0.00    -0.212 C  
BRANCH  19  20
HETATM   20  C   UNL     1      -9.805   9.269  71.239  1.00  0.00    -0.318 C  
BRANCH  20  21
HETATM   21  C   UNL     1      -9.304   8.430  72.394  1.00  0.00    -0.285 C  
HETATM   22  O   UNL     1      -8.321   8.734  73.066  1.00  0.00    -0.412 OA 
BRANCH  21  23
HETATM   23  C   UNL     1     -10.022   7.162  72.694  1.00  0.00    -0.208 A  
HETATM   24  C   UNL     1      -9.395   6.239  73.542  1.00  0.00    -0.139 A  
HETATM   25  C   UNL     1     -10.014   5.023  73.830  1.00  0.00    -0.195 A  
HETATM   26  C   UNL     1     -11.258   4.740  73.282  1.00  0.00    -0.340 A  
HETATM   27  C   UNL     1     -11.898   5.653  72.451  1.00  0.00    -0.181 A  
HETATM   28  F   UNL     1     -11.851   3.572  73.558  1.00  0.00    -0.293 F  
HETATM   29  C   UNL     1     -11.281   6.870  72.152  1.00  0.00    -0.293 A  
ENDBRANCH  21  23
ENDBRANCH  20  21
ENDBRANCH  19  20
ENDBRANCH  18  19
ENDBRANCH  15  18
ENDBRANCH  11  12
TORSDOF 6
ENDMDL
MODEL      239
REMARK 921   NORMALIZED FREE ENERGY PREDICTED BY IDOCK:   -3.31 KCAL/MOL
REMARK 922        TOTAL FREE ENERGY PREDICTED BY IDOCK:   -5.77 KCAL/MOL
REMARK 923 INTER-LIGAND FREE ENERGY PREDICTED BY IDOCK:   -4.70 KCAL/MOL
REMARK 924 INTRA-LIGAND FREE ENERGY PREDICTED BY IDOCK:   -1.08 KCAL/MOL
REMARK 927      BINDING AFFINITY PREDICTED BY RF-SCORE:    0.00 PKD
ROOT
HETATM    1  O   UNL     1      -8.925  11.731  64.908  1.00  0.00    -0.398 OA 
HETATM    2  C   UNL     1      -9.629  11.696  66.017  1.00  0.00    -0.228 A  
HETATM    3  H   UNL     1      -8.153  11.191  64.783  1.00  0.00     0.000 HD 
HETATM    4  N   UNL     1     -10.688  12.436  66.189  1.00  0.00    -0.254 NA 
HETATM    5  C   UNL     1     -11.097  12.148  67.466  1.00  0.00    -0.275 A  
HETATM    6  C   UNL     1     -12.154  12.704  68.198  1.00  0.00    -0.128 A  
HETATM    7  C   UNL     1     -12.376  12.255  69.505  1.00  0.00    -0.009 A  
HETATM    8  C   UNL     1     -11.582  11.254  70.061  1.00  0.00    -0.404 A  
HETATM    9  C   UNL     1     -10.525  10.681  69.345  1.00  0.00    -0.252 A  
HETATM   10  C   UNL     1     -10.286  11.176  68.058  1.00  0.00    -0.185 A  
HETATM   11  N   UNL     1      -9.307  10.954  67.121  1.00  0.00    -0.159 NA 
ENDROOT
BRANCH  11  12
HETATM   12  C   UNL     1      -8.042  10.270  67.278  1.00  0.00    -0.120 C  
HETATM   13  C   UNL     1      -8.140   8.750  67.358  1.00  0.00    -0.105 C  
HETATM   14  C   UNL     1      -6.717   8.200  67.233  1.00  0.00    -0.066 C  
HETATM   15  N   UNL     1      -5.795   8.715  68.261  1.00  0.00    -0.041 NA 
HETATM   16  C   UNL     1      -5.786  10.185  68.313  1.00  0.00    -0.041 C  
HETATM   17  C   UNL     1      -7.180  10.797  68.429  1.00  0.00    -0.085 C  
BRANCH  15  18
HETATM   18  C   UNL     1      -6.000   8.120  69.590  1.00  0.00    -0.029 C  
BRANCH  18  19
HETATM   19  C   UNL     1      -5.789   9.122  70.729  1.00  0.00    -0.042 C  
BRANCH  19  20
HETATM   20  C   UNL     1      -5.662   8.429  72.086  1.00  0.00    -0.047 C  
BRANCH  20  21
HETATM   21  C   UNL     1      -7.005   8.290  72.768  1.00  0.00    -0.097 C  
HETATM   22  O   UNL     1      -7.244   8.763  73.877  1.00  0.00    -0.379 OA 
BRANCH  21  23
HETATM   23  C   UNL     1      -8.061   7.509  72.070  1.00  0.00    -0.109 A  
HETATM   24  C   UNL     1      -9.257   8.166  71.748  1.00  0.00    -0.232 A  
HETATM   25  C   UNL     1     -10.289   7.470  71.120  1.00  0.00    -0.208 A  
HETATM   26  C   UNL     1     -10.118   6.128  70.804  1.00  0.00    -0.193 A  
HETATM   27  C   UNL     1      -8.931   5.468  71.104  1.00  0.00    -0.153 A  
HETATM   28  F   UNL     1     -11.109   5.460  70.203  1.00  0.00    -0.355 F  
HETATM   29  C   UNL     1      -7.896   6.157  71.741  1.00  0.00    -0.102 A  
ENDBRANCH  21  23
ENDBRANCH  20  21
ENDBRANCH  19  20
ENDBRANCH  18  19
ENDBRANCH  15  18
ENDBRANCH  11  12
TORSDOF 6
ENDMDL
MODEL      240
REMARK 921   NORMALIZED FREE ENERGY PREDICTED BY IDOCK:   -3.27 KCAL/MOL
REMARK 922        TOTAL FREE ENERGY PREDICTED BY IDOCK:   -5.72 KCAL/MOL
REMARK 923 INTER-LIGAND FREE ENERGY PREDICTED BY IDOCK:   -6.56 KCAL/MOL
REMARK 924 INTRA-LIGAND FREE ENERGY PREDICTED BY IDOCK:    0.84 KCAL/MOL
REMARK 927      BINDING AFFINITY PREDICTED BY RF-SCORE:    0.00 PKD
ROOT
HETATM    1  O   UNL     1     -10.026  13.926  64.473  1.00  0.00    -0.648 OA 
HETATM    2  C   UNL     1     -10.464  13.533  65.648  1.00  0.00    -0.293 A  
HETATM    3  H   UNL     1      -9.514  13.357  63.910  1.00  0.00     0.000 HD 
HETATM    4  N   UNL     1     -11.167  14.312  66.421  1.00  0.00    -0.329 NA 
HETATM    5  C   UNL     1     -11.381  13.563  67.550  1.00  0.00    -0.308 A  
HETATM    6  C   UNL     1     -12.029  13.927  68.738  1.00  0.00    -0.393 A  
HETATM    7  C   UNL     1     -12.117  12.986  69.771  1.00  0.00    -0.325 A  
HETATM    8  C   UNL     1     -11.597  11.704  69.615  1.00  0.00    -0.401 A  
HETATM    9  C   UNL     1     -10.951  11.318  68.435  1.00  0.00    -0.268 A  
HETATM   10  C   UNL     1     -10.829  12.285  67.431  1.00  0.00    -0.239 A  
HETATM   11  N   UNL     1     -10.185  12.320  66.218  1.00  0.00    -0.224 NA 
ENDROOT
BRANCH  11  12
HETATM   12  C   UNL     1      -9.208  11.398  65.685  1.00  0.00    -0.193 C  
HETATM   13  C   UNL     1      -9.745  10.006  65.364  1.00  0.00    -0.368 C  
HETATM   14  C   UNL     1      -8.665   9.280  64.561  1.00  0.00    -0.187 C  
HETATM   15  N   UNL     1      -7.372   9.186  65.263  1.00  0.00    -0.091 NA 
HETATM   16  C   UNL     1      -6.892  10.500  65.719  1.00  0.00    -0.127 C  
HETATM   17  C   UNL     1      -7.930  11.281  66.522  1.00  0.00    -0.145 C  
BRANCH  15  18
HETATM   18  C   UNL     1      -7.358   8.191  66.345  1.00  0.00    -0.080 C  
BRANCH  18  19
HETATM   19  C   UNL     1      -7.888   8.746  67.670  1.00  0.00    -0.102 C  
BRANCH  19  20
HETATM   20  C   UNL     1      -7.218   8.087  68.876  1.00  0.00    -0.075 C  
BRANCH  20  21
HETATM   21  C   UNL     1      -7.771   6.702  69.133  1.00  0.00    -0.106 C  
HETATM   22  O   UNL     1      -7.428   6.011  70.089  1.00  0.00    -0.084 OA 
BRANCH  21  23
HETATM   23  C   UNL     1      -8.744   6.150  68.153  1.00  0.00    -0.114 A  
HETATM   24  C   UNL     1      -8.365   5.017  67.421  1.00  0.00    -0.106 A  
HETATM   25  C   UNL     1      -9.230   4.479  66.468  1.00  0.00    -0.138 A  
HETATM   26  C   UNL     1     -10.472   5.065  66.261  1.00  0.00    -0.303 A  
HETATM   27  C   UNL     1     -10.867   6.181  66.991  1.00  0.00    -0.435 A  
HETATM   28  F   UNL     1     -11.301   4.550  65.346  1.00  0.00    -0.317 F  
HETATM   29  C   UNL     1     -10.002   6.730  67.941  1.00  0.00    -0.164 A  
ENDBRANCH  21  23
ENDBRANCH  20  21
ENDBRANCH  19  20
ENDBRANCH  18  19
ENDBRANCH  15  18
ENDBRANCH  11  12
TORSDOF 6
ENDMDL
MODEL      241
REMARK 921   NORMALIZED FREE ENERGY PREDICTED BY IDOCK:   -3.24 KCAL/MOL
REMARK 922        TOTAL FREE ENERGY PREDICTED BY IDOCK:   -5.69 KCAL/MOL
REMARK 923 INTER-LIGAND FREE ENERGY PREDICTED BY IDOCK:   -5.88 KCAL/MOL
REMARK 924 INTRA-LIGAND FREE ENERGY PREDICTED BY IDOCK:    0.19 KCAL/MOL
REMARK 927      BINDING AFFINITY PREDICTED BY RF-SCORE:    0.00 PKD
ROOT
HETATM    1  O   UNL     1     -12.831  14.252  71.456  1.00  0.00    -0.311 OA 
HETATM    2  C   UNL     1     -12.275  13.397  70.628  1.00  0.00    -0.350 A  
HETATM    3  H   UNL     1     -12.634  15.181  71.430  1.00  0.00     0.000 HD 
HETATM    4  N   UNL     1     -12.545  12.122  70.663  1.00  0.00    -0.225 NA 
HETATM    5  C   UNL     1     -11.740  11.580  69.693  1.00  0.00    -0.351 A  
HETATM    6  C   UNL     1     -11.574  10.236  69.337  1.00  0.00    -0.213 A  
HETATM    7  C   UNL     1     -10.677   9.917  68.311  1.00  0.00    -0.276 A  
HETATM    8  C   UNL     1      -9.982  10.917  67.635  1.00  0.00    -0.197 A  
HETATM    9  C   UNL     1     -10.137  12.266  67.970  1.00  0.00    -0.206 A  
HETATM   10  C   UNL     1     -11.001  12.564  69.030  1.00  0.00    -0.188 A  
HETATM   11  N   UNL     1     -11.318  13.718  69.703  1.00  0.00    -0.218 NA 
ENDROOT
BRANCH  11  12
HETATM   12  C   UNL     1     -10.656  15.003  69.659  1.00  0.00    -0.238 C  
HETATM   13  C   UNL     1     -11.513  16.150  69.130  1.00  0.00    -0.311 C  
HETATM   14  C   UNL     1     -10.758  17.448  69.422  1.00  0.00     0.127 C  
HETATM   15  N   UNL     1      -9.410  17.492  68.826  1.00  0.00    -0.268 NA 
HETATM   16  C   UNL     1      -8.601  16.320  69.198  1.00  0.00    -0.212 C  
HETATM   17  C   UNL     1      -9.303  14.990  68.938  1.00  0.00    -0.208 C  
BRANCH  15  18
HETATM   18  C   UNL     1      -9.413  17.719  67.374  1.00  0.00    -0.254 C  
BRANCH  18  19
HETATM   19  C   UNL     1      -8.307  16.947  66.649  1.00  0.00    -0.289 C  
BRANCH  19  20
HETATM   20  C   UNL     1      -8.833  16.216  65.413  1.00  0.00     1.029 C  
BRANCH  20  21
HETATM   21  C   UNL     1     -10.323  15.971  65.503  1.00  0.00    -0.390 C  
HETATM   22  O   UNL     1     -11.097  16.749  66.055  1.00  0.00     0.048 OA 
BRANCH  21  23
HETATM   23  C   UNL     1     -10.855  14.707  64.926  1.00  0.00    -0.436 A  
HETATM   24  C   UNL     1      -9.950  13.662  64.693  1.00  0.00    -0.077 A  
HETATM   25  C   UNL     1     -10.393  12.468  64.126  1.00  0.00    -0.416 A  
HETATM   26  C   UNL     1     -11.737  12.317  63.809  1.00  0.00    -0.478 A  
HETATM   27  C   UNL     1     -12.648  13.340  64.049  1.00  0.00    -0.219 A  
HETATM   28  F   UNL     1     -12.162  11.171  63.264  1.00  0.00    -0.277 F  
HETATM   29  C   UNL     1     -12.210  14.542  64.609  1.00  0.00    -0.474 A  
ENDBRANCH  21  23
ENDBRANCH  20  21
ENDBRANCH  19  20
ENDBRANCH  18  19
ENDBRANCH  15  18
ENDBRANCH  11  12
TORSDOF 6
ENDMDL
MODEL      242
REMARK 921   NORMALIZED FREE ENERGY PREDICTED BY IDOCK:   -3.22 KCAL/MOL
REMARK 922        TOTAL FREE ENERGY PREDICTED BY IDOCK:   -5.66 KCAL/MOL
REMARK 923 INTER-LIGAND FREE ENERGY PREDICTED BY IDOCK:   -4.85 KCAL/MOL
REMARK 924 INTRA-LIGAND FREE ENERGY PREDICTED BY IDOCK:   -0.81 KCAL/MOL
REMARK 927      BINDING AFFINITY PREDICTED BY RF-SCORE:    0.00 PKD
ROOT
HETATM    1  O   UNL     1      -5.814   2.882  66.064  1.00  0.00    -0.021 OA 
HETATM    2  C   UNL     1      -6.919   3.044  65.373  1.00  0.00    -0.053 A  
HETATM    3  H   UNL     1      -5.741   3.154  66.971  1.00  0.00     0.000 HD 
HETATM    4  N   UNL     1      -7.019   2.670  64.128  1.00  0.00    -0.040 NA 
HETATM    5  C   UNL     1      -8.285   3.051  63.763  1.00  0.00    -0.086 A  
HETATM    6  C   UNL     1      -8.908   2.951  62.512  1.00  0.00    -0.078 A  
HETATM    7  C   UNL     1     -10.218   3.423  62.373  1.00  0.00    -0.130 A  
HETATM    8  C   UNL     1     -10.904   3.956  63.461  1.00  0.00    -0.101 A  
HETATM    9  C   UNL     1     -10.304   4.060  64.721  1.00  0.00    -0.212 A  
HETATM   10  C   UNL     1      -8.977   3.628  64.831  1.00  0.00    -0.126 A  
HETATM   11  N   UNL     1      -8.044   3.671  65.838  1.00  0.00    -0.093 NA 
ENDROOT
BRANCH  11  12
HETATM   12  C   UNL     1      -8.085   4.410  67.080  1.00  0.00    -0.101 C  
HETATM   13  C   UNL     1      -9.277   4.092  67.978  1.00  0.00    -0.200 C  
HETATM   14  C   UNL     1      -9.002   4.738  69.337  1.00  0.00    -0.094 C  
HETATM   15  N   UNL     1      -8.784   6.195  69.263  1.00  0.00    -0.122 NA 
HETATM   16  C   UNL     1      -7.737   6.550  68.292  1.00  0.00    -0.105 C  
HETATM   17  C   UNL     1      -7.949   5.928  66.915  1.00  0.00    -0.102 C  
BRANCH  15  18
HETATM   18  C   UNL     1     -10.017   6.966  69.048  1.00  0.00    -0.158 C  
BRANCH  18  19
HETATM   19  C   UNL     1     -10.452   7.749  70.290  1.00  0.00    -0.225 C  
BRANCH  19  20
HETATM   20  C   UNL     1      -9.901   9.175  70.292  1.00  0.00    -0.245 C  
BRANCH  20  21
HETATM   21  C   UNL     1     -11.011  10.202  70.328  1.00  0.00    -0.317 C  
HETATM   22  O   UNL     1     -11.975  10.119  71.085  1.00  0.00    -0.335 OA 
BRANCH  21  23
HETATM   23  C   UNL     1     -10.938  11.337  69.370  1.00  0.00    -0.282 A  
HETATM   24  C   UNL     1      -9.807  11.428  68.547  1.00  0.00    -0.200 A  
HETATM   25  C   UNL     1      -9.678  12.490  67.652  1.00  0.00    -0.196 A  
HETATM   26  C   UNL     1     -10.682  13.447  67.574  1.00  0.00    -0.254 A  
HETATM   27  C   UNL     1     -11.816  13.360  68.374  1.00  0.00    -0.401 A  
HETATM   28  F   UNL     1     -10.556  14.466  66.717  1.00  0.00    -0.272 F  
HETATM   29  C   UNL     1     -11.949  12.303  69.278  1.00  0.00    -0.308 A  
ENDBRANCH  21  23
ENDBRANCH  20  21
ENDBRANCH  19  20
ENDBRANCH  18  19
ENDBRANCH  15  18
ENDBRANCH  11  12
TORSDOF 6
ENDMDL
MODEL      243
REMARK 921   NORMALIZED FREE ENERGY PREDICTED BY IDOCK:   -3.21 KCAL/MOL
REMARK 922        TOTAL FREE ENERGY PREDICTED BY IDOCK:   -5.65 KCAL/MOL
REMARK 923 INTER-LIGAND FREE ENERGY PREDICTED BY IDOCK:   -4.81 KCAL/MOL
REMARK 924 INTRA-LIGAND FREE ENERGY PREDICTED BY IDOCK:   -0.84 KCAL/MOL
REMARK 927      BINDING AFFINITY PREDICTED BY RF-SCORE:    0.00 PKD
ROOT
HETATM    1  O   UNL     1      -5.523   9.507  66.726  1.00  0.00    -0.044 OA 
HETATM    2  C   UNL     1      -6.226   9.113  67.764  1.00  0.00    -0.051 A  
HETATM    3  H   UNL     1      -5.146  10.377  66.673  1.00  0.00     0.000 HD 
HETATM    4  N   UNL     1      -6.744   7.919  67.838  1.00  0.00    -0.066 NA 
HETATM    5  C   UNL     1      -7.427   7.921  69.027  1.00  0.00    -0.097 A  
HETATM    6  C   UNL     1      -8.225   6.914  69.586  1.00  0.00    -0.131 A  
HETATM    7  C   UNL     1      -8.839   7.149  70.821  1.00  0.00    -0.148 A  
HETATM    8  C   UNL     1      -8.642   8.350  71.499  1.00  0.00    -0.215 A  
HETATM    9  C   UNL     1      -7.845   9.367  70.962  1.00  0.00    -0.020 A  
HETATM   10  C   UNL     1      -7.277   9.135  69.704  1.00  0.00    -0.061 A  
HETATM   11  N   UNL     1      -6.552   9.907  68.830  1.00  0.00    -0.045 NA 
ENDROOT
BRANCH  11  12
HETATM   12  C   UNL     1      -6.332  11.336  68.854  1.00  0.00    -0.055 C  
HETATM   13  C   UNL     1      -6.518  11.993  70.218  1.00  0.00     0.259 C  
HETATM   14  C   UNL     1      -5.974  13.419  70.110  1.00  0.00    -0.139 C  
HETATM   15  N   UNL     1      -6.627  14.219  69.057  1.00  0.00    -0.099 NA 
HETATM   16  C   UNL     1      -6.596  13.545  67.749  1.00  0.00    -0.170 C  
HETATM   17  C   UNL     1      -7.120  12.112  67.792  1.00  0.00    -0.109 C  
BRANCH  15  18
HETATM   18  C   UNL     1      -7.980  14.670  69.411  1.00  0.00    -0.003 C  
BRANCH  18  19
HETATM   19  C   UNL     1      -8.818  15.053  68.188  1.00  0.00    -0.167 C  
BRANCH  19  20
HETATM   20  C   UNL     1     -10.318  14.959  68.469  1.00  0.00    -0.237 C  
BRANCH  20  21
HETATM   21  C   UNL     1     -10.817  13.535  68.357  1.00  0.00    -0.267 C  
HETATM   22  O   UNL     1     -10.958  12.797  69.330  1.00  0.00    -0.184 OA 
BRANCH  21  23
HETATM   23  C   UNL     1     -11.110  13.006  66.998  1.00  0.00    -0.311 A  
HETATM   24  C   UNL     1     -12.177  13.575  66.290  1.00  0.00    -0.468 A  
HETATM   25  C   UNL     1     -12.510  13.094  65.024  1.00  0.00    -0.516 A  
HETATM   26  C   UNL     1     -11.769  12.059  64.467  1.00  0.00    -0.305 A  
HETATM   27  C   UNL     1     -10.699  11.496  65.153  1.00  0.00    -0.348 A  
HETATM   28  F   UNL     1     -12.090  11.597  63.253  1.00  0.00    -0.567 F  
HETATM   29  C   UNL     1     -10.364  11.967  66.424  1.00  0.00    -0.246 A  
ENDBRANCH  21  23
ENDBRANCH  20  21
ENDBRANCH  19  20
ENDBRANCH  18  19
ENDBRANCH  15  18
ENDBRANCH  11  12
TORSDOF 6
ENDMDL
MODEL      244
REMARK 921   NORMALIZED FREE ENERGY PREDICTED BY IDOCK:   -3.15 KCAL/MOL
REMARK 922        TOTAL FREE ENERGY PREDICTED BY IDOCK:   -5.56 KCAL/MOL
REMARK 923 INTER-LIGAND FREE ENERGY PREDICTED BY IDOCK:   -4.41 KCAL/MOL
REMARK 924 INTRA-LIGAND FREE ENERGY PREDICTED BY IDOCK:   -1.16 KCAL/MOL
REMARK 927      BINDING AFFINITY PREDICTED BY RF-SCORE:    0.00 PKD
ROOT
HETATM    1  O   UNL     1      -6.154   2.162  65.773  1.00  0.00    -0.021 OA 
HETATM    2  C   UNL     1      -7.275   2.327  65.108  1.00  0.00    -0.058 A  
HETATM    3  H   UNL     1      -5.878   2.764  66.453  1.00  0.00     0.000 HD 
HETATM    4  N   UNL     1      -7.655   1.501  64.174  1.00  0.00    -0.057 NA 
HETATM    5  C   UNL     1      -8.825   2.041  63.702  1.00  0.00    -0.089 A  
HETATM    6  C   UNL     1      -9.636   1.600  62.649  1.00  0.00    -0.089 A  
HETATM    7  C   UNL     1     -10.791   2.328  62.339  1.00  0.00    -0.161 A  
HETATM    8  C   UNL     1     -11.146   3.453  63.079  1.00  0.00     0.025 A  
HETATM    9  C   UNL     1     -10.354   3.908  64.138  1.00  0.00    -0.238 A  
HETATM   10  C   UNL     1      -9.177   3.197  64.405  1.00  0.00    -0.135 A  
HETATM   11  N   UNL     1      -8.121   3.393  65.260  1.00  0.00    -0.093 NA 
ENDROOT
BRANCH  11  12
HETATM   12  C   UNL     1      -7.785   4.571  66.028  1.00  0.00    -0.094 C  
HETATM   13  C   UNL     1      -8.684   4.831  67.233  1.00  0.00    -0.103 C  
HETATM   14  C   UNL     1      -8.015   5.925  68.067  1.00  0.00    -0.105 C  
HETATM   15  N   UNL     1      -7.778   7.173  67.319  1.00  0.00    -0.107 NA 
HETATM   16  C   UNL     1      -7.037   6.939  66.070  1.00  0.00    -0.073 C  
HETATM   17  C   UNL     1      -7.651   5.850  65.194  1.00  0.00    -0.088 C  
BRANCH  15  18
HETATM   18  C   UNL     1      -8.994   7.967  67.096  1.00  0.00    -0.135 C  
BRANCH  18  19
HETATM   19  C   UNL     1      -8.905   9.373  67.696  1.00  0.00    -0.118 C  
BRANCH  19  20
HETATM   20  C   UNL     1      -9.867   9.557  68.871  1.00  0.00    -0.179 C  
BRANCH  20  21
HETATM   21  C   UNL     1      -9.224   9.168  70.184  1.00  0.00    -0.206 C  
HETATM   22  O   UNL     1      -8.174   9.663  70.587  1.00  0.00    -0.234 OA 
BRANCH  21  23
HETATM   23  C   UNL     1      -9.884   8.109  70.993  1.00  0.00    -0.212 A  
HETATM   24  C   UNL     1     -10.802   7.269  70.349  1.00  0.00    -0.265 A  
HETATM   25  C   UNL     1     -11.470   6.280  71.071  1.00  0.00    -0.370 A  
HETATM   26  C   UNL     1     -11.207   6.125  72.426  1.00  0.00    -0.287 A  
HETATM   27  C   UNL     1     -10.288   6.942  73.074  1.00  0.00    -0.269 A  
HETATM   28  F   UNL     1     -11.849   5.177  73.118  1.00  0.00    -0.373 F  
HETATM   29  C   UNL     1      -9.621   7.941  72.360  1.00  0.00    -0.270 A  
ENDBRANCH  21  23
ENDBRANCH  20  21
ENDBRANCH  19  20
ENDBRANCH  18  19
ENDBRANCH  15  18
ENDBRANCH  11  12
TORSDOF 6
ENDMDL
MODEL      245
REMARK 921   NORMALIZED FREE ENERGY PREDICTED BY IDOCK:   -3.02 KCAL/MOL
REMARK 922        TOTAL FREE ENERGY PREDICTED BY IDOCK:   -5.38 KCAL/MOL
REMARK 923 INTER-LIGAND FREE ENERGY PREDICTED BY IDOCK:   -5.60 KCAL/MOL
REMARK 924 INTRA-LIGAND FREE ENERGY PREDICTED BY IDOCK:    0.22 KCAL/MOL
REMARK 927      BINDING AFFINITY PREDICTED BY RF-SCORE:    0.00 PKD
ROOT
HETATM    1  O   UNL     1      -7.922  11.537  68.181  1.00  0.00    -0.121 OA 
HETATM    2  C   UNL     1      -7.332  10.471  67.690  1.00  0.00    -0.087 A  
HETATM    3  H   UNL     1      -8.514  11.489  68.922  1.00  0.00     0.000 HD 
HETATM    4  N   UNL     1      -6.518  10.535  66.673  1.00  0.00    -0.079 NA 
HETATM    5  C   UNL     1      -6.162   9.231  66.443  1.00  0.00    -0.065 A  
HETATM    6  C   UNL     1      -5.352   8.705  65.428  1.00  0.00    -0.035 A  
HETATM    7  C   UNL     1      -5.136   7.323  65.387  1.00  0.00    -0.024 A  
HETATM    8  C   UNL     1      -5.690   6.485  66.352  1.00  0.00    -0.014 A  
HETATM    9  C   UNL     1      -6.497   6.989  67.378  1.00  0.00    -0.054 A  
HETATM   10  C   UNL     1      -6.743   8.367  67.376  1.00  0.00    -0.063 A  
HETATM   11  N   UNL     1      -7.547   9.191  68.125  1.00  0.00    -0.084 NA 
ENDROOT
BRANCH  11  12
HETATM   12  C   UNL     1      -8.601   8.832  69.048  1.00  0.00    -0.132 C  
HETATM   13  C   UNL     1      -9.990   8.723  68.426  1.00  0.00    -0.200 C  
HETATM   14  C   UNL     1     -10.900   8.069  69.468  1.00  0.00    -0.129 C  
HETATM   15  N   UNL     1     -10.960   8.807  70.743  1.00  0.00    -0.238 NA 
HETATM   16  C   UNL     1      -9.623   9.061  71.300  1.00  0.00    -0.291 C  
HETATM   17  C   UNL     1      -8.662   9.706  70.305  1.00  0.00    -0.248 C  
BRANCH  15  18
HETATM   18  C   UNL     1     -11.770  10.032  70.678  1.00  0.00    -0.337 C  
BRANCH  18  19
HETATM   19  C   UNL     1     -11.657  10.749  69.329  1.00  0.00    -0.376 C  
BRANCH  19  20
HETATM   20  C   UNL     1     -11.512  12.262  69.494  1.00  0.00    -0.318 C  
BRANCH  20  21
HETATM   21  C   UNL     1     -11.640  12.982  68.170  1.00  0.00    -0.341 C  
HETATM   22  O   UNL     1     -12.272  12.527  67.220  1.00  0.00    -0.454 OA 
BRANCH  21  23
HETATM   23  C   UNL     1     -10.929  14.279  68.014  1.00  0.00    -0.261 A  
HETATM   24  C   UNL     1      -9.705  14.277  67.329  1.00  0.00    -0.234 A  
HETATM   25  C   UNL     1      -8.986  15.463  67.182  1.00  0.00    -0.236 A  
HETATM   26  C   UNL     1      -9.496  16.644  67.704  1.00  0.00    -0.226 A  
HETATM   27  C   UNL     1     -10.716  16.663  68.372  1.00  0.00    -0.353 A  
HETATM   28  F   UNL     1      -8.805  17.781  67.564  1.00  0.00    -0.235 F  
HETATM   29  C   UNL     1     -11.439  15.478  68.531  1.00  0.00    -0.369 A  
ENDBRANCH  21  23
ENDBRANCH  20  21
ENDBRANCH  19  20
ENDBRANCH  18  19
ENDBRANCH  15  18
ENDBRANCH  11  12
TORSDOF 6
ENDMDL
MODEL      246
REMARK 921   NORMALIZED FREE ENERGY PREDICTED BY IDOCK:   -2.98 KCAL/MOL
REMARK 922        TOTAL FREE ENERGY PREDICTED BY IDOCK:   -5.33 KCAL/MOL
REMARK 923 INTER-LIGAND FREE ENERGY PREDICTED BY IDOCK:   -3.93 KCAL/MOL
REMARK 924 INTRA-LIGAND FREE ENERGY PREDICTED BY IDOCK:   -1.40 KCAL/MOL
REMARK 927      BINDING AFFINITY PREDICTED BY RF-SCORE:    0.00 PKD
ROOT
HETATM    1  O   UNL     1      -9.781   2.257  68.254  1.00  0.00    -0.241 OA 
HETATM    2  C   UNL     1      -9.415   3.158  67.371  1.00  0.00    -0.133 A  
HETATM    3  H   UNL     1      -9.988   2.486  69.152  1.00  0.00     0.000 HD 
HETATM    4  N   UNL     1      -9.130   2.844  66.138  1.00  0.00    -0.145 NA 
HETATM    5  C   UNL     1      -8.755   4.033  65.566  1.00  0.00    -0.119 A  
HETATM    6  C   UNL     1      -8.286   4.276  64.268  1.00  0.00    -0.105 A  
HETATM    7  C   UNL     1      -7.950   5.587  63.909  1.00  0.00    -0.116 A  
HETATM    8  C   UNL     1      -8.104   6.636  64.812  1.00  0.00    -0.099 A  
HETATM    9  C   UNL     1      -8.576   6.417  66.110  1.00  0.00    -0.144 A  
HETATM   10  C   UNL     1      -8.862   5.095  66.469  1.00  0.00    -0.117 A  
HETATM   11  N   UNL     1      -9.225   4.486  67.645  1.00  0.00    -0.129 NA 
ENDROOT
BRANCH  11  12
HETATM   12  C   UNL     1      -9.210   5.025  68.987  1.00  0.00    -0.114 C  
HETATM   13  C   UNL     1     -10.255   6.103  69.258  1.00  0.00    -0.251 C  
HETATM   14  C   UNL     1     -10.276   6.340  70.769  1.00  0.00    -0.193 C  
HETATM   15  N   UNL     1      -8.968   6.737  71.321  1.00  0.00    -0.140 NA 
HETATM   16  C   UNL     1      -7.901   5.793  70.953  1.00  0.00    -0.105 C  
HETATM   17  C   UNL     1      -7.832   5.508  69.455  1.00  0.00    -0.087 C  
BRANCH  15  18
HETATM   18  C   UNL     1      -8.598   8.127  71.022  1.00  0.00    -0.137 C  
BRANCH  18  19
HETATM   19  C   UNL     1      -7.285   8.549  71.686  1.00  0.00    -0.110 C  
BRANCH  19  20
HETATM   20  C   UNL     1      -6.282   9.103  70.673  1.00  0.00    -0.051 C  
BRANCH  20  21
HETATM   21  C   UNL     1      -6.719  10.447  70.133  1.00  0.00    -0.150 C  
HETATM   22  O   UNL     1      -6.405  11.513  70.658  1.00  0.00    -0.287 OA 
BRANCH  21  23
HETATM   23  C   UNL     1      -7.602  10.461  68.936  1.00  0.00    -0.103 A  
HETATM   24  C   UNL     1      -8.809  11.169  69.020  1.00  0.00    -0.025 A  
HETATM   25  C   UNL     1      -9.685  11.188  67.935  1.00  0.00    -0.184 A  
HETATM   26  C   UNL     1      -9.346  10.513  66.769  1.00  0.00    -0.157 A  
HETATM   27  C   UNL     1      -8.145   9.819  66.667  1.00  0.00    -0.116 A  
HETATM   28  F   UNL     1     -10.187  10.530  65.729  1.00  0.00    -0.286 F  
HETATM   29  C   UNL     1      -7.266   9.789  67.752  1.00  0.00    -0.088 A  
ENDBRANCH  21  23
ENDBRANCH  20  21
ENDBRANCH  19  20
ENDBRANCH  18  19
ENDBRANCH  15  18
ENDBRANCH  11  12
TORSDOF 6
ENDMDL
MODEL      247
REMARK 921   NORMALIZED FREE ENERGY PREDICTED BY IDOCK:   -2.96 KCAL/MOL
REMARK 922        TOTAL FREE ENERGY PREDICTED BY IDOCK:   -5.31 KCAL/MOL
REMARK 923 INTER-LIGAND FREE ENERGY PREDICTED BY IDOCK:   -4.75 KCAL/MOL
REMARK 924 INTRA-LIGAND FREE ENERGY PREDICTED BY IDOCK:   -0.55 KCAL/MOL
REMARK 927      BINDING AFFINITY PREDICTED BY RF-SCORE:    0.00 PKD
ROOT
HETATM    1  O   UNL     1      -8.232   4.921  69.354  1.00  0.00    -0.080 OA 
HETATM    2  C   UNL     1      -8.049   5.092  68.064  1.00  0.00    -0.093 A  
HETATM    3  H   UNL     1      -8.754   5.521  69.873  1.00  0.00     0.000 HD 
HETATM    4  N   UNL     1      -7.333   4.269  67.350  1.00  0.00    -0.068 NA 
HETATM    5  C   UNL     1      -7.347   4.814  66.092  1.00  0.00    -0.078 A  
HETATM    6  C   UNL     1      -6.687   4.378  64.936  1.00  0.00    -0.045 A  
HETATM    7  C   UNL     1      -6.844   5.111  63.754  1.00  0.00    -0.046 A  
HETATM    8  C   UNL     1      -7.663   6.237  63.716  1.00  0.00    -0.107 A  
HETATM    9  C   UNL     1      -8.336   6.687  64.856  1.00  0.00    -0.037 A  
HETATM   10  C   UNL     1      -8.131   5.971  66.042  1.00  0.00    -0.113 A  
HETATM   11  N   UNL     1      -8.514   6.161  67.346  1.00  0.00    -0.108 NA 
ENDROOT
BRANCH  11  12
HETATM   12  C   UNL     1      -9.094   7.337  67.957  1.00  0.00    -0.133 C  
HETATM   13  C   UNL     1     -10.154   8.041  67.116  1.00  0.00    -0.334 C  
HETATM   14  C   UNL     1     -10.841   9.064  68.023  1.00  0.00    -0.041 C  
HETATM   15  N   UNL     1      -9.912  10.046  68.613  1.00  0.00    -0.159 NA 
HETATM   16  C   UNL     1      -8.790   9.397  69.310  1.00  0.00    -0.150 C  
HETATM   17  C   UNL     1      -8.066   8.357  68.460  1.00  0.00    -0.123 C  
BRANCH  15  18
HETATM   18  C   UNL     1      -9.451  11.068  67.663  1.00  0.00    -0.164 C  
BRANCH  18  19
HETATM   19  C   UNL     1      -8.782  12.261  68.352  1.00  0.00    -0.139 C  
BRANCH  19  20
HETATM   20  C   UNL     1      -7.907  13.063  67.388  1.00  0.00    -0.166 C  
BRANCH  20  21
HETATM   21  C   UNL     1      -8.359  14.504  67.293  1.00  0.00    -0.212 C  
HETATM   22  O   UNL     1      -7.895  15.398  67.996  1.00  0.00    -0.120 OA 
BRANCH  21  23
HETATM   23  C   UNL     1      -9.444  14.829  66.329  1.00  0.00    -0.332 A  
HETATM   24  C   UNL     1      -9.778  16.179  66.149  1.00  0.00    -0.352 A  
HETATM   25  C   UNL     1     -10.807  16.534  65.278  1.00  0.00    -0.233 A  
HETATM   26  C   UNL     1     -11.488  15.543  64.582  1.00  0.00    -0.324 A  
HETATM   27  C   UNL     1     -11.158  14.202  64.740  1.00  0.00    -0.393 A  
HETATM   28  F   UNL     1     -12.478  15.884  63.748  1.00  0.00    -0.290 F  
HETATM   29  C   UNL     1     -10.133  13.838  65.616  1.00  0.00    -0.315 A  
ENDBRANCH  21  23
ENDBRANCH  20  21
ENDBRANCH  19  20
ENDBRANCH  18  19
ENDBRANCH  15  18
ENDBRANCH  11  12
TORSDOF 6
ENDMDL
MODEL      248
REMARK 921   NORMALIZED FREE ENERGY PREDICTED BY IDOCK:   -2.92 KCAL/MOL
REMARK 922        TOTAL FREE ENERGY PREDICTED BY IDOCK:   -5.26 KCAL/MOL
REMARK 923 INTER-LIGAND FREE ENERGY PREDICTED BY IDOCK:   -4.51 KCAL/MOL
REMARK 924 INTRA-LIGAND FREE ENERGY PREDICTED BY IDOCK:   -0.75 KCAL/MOL
REMARK 927      BINDING AFFINITY PREDICTED BY RF-SCORE:    0.00 PKD
ROOT
HETATM    1  O   UNL     1      -8.807  10.899  69.553  1.00  0.00    -0.391 OA 
HETATM    2  C   UNL     1      -8.065  10.564  68.521  1.00  0.00    -0.121 A  
HETATM    3  H   UNL     1      -9.453  10.309  69.923  1.00  0.00     0.000 HD 
HETATM    4  N   UNL     1      -7.178  11.373  68.014  1.00  0.00    -0.080 NA 
HETATM    5  C   UNL     1      -6.665  10.683  66.945  1.00  0.00    -0.091 A  
HETATM    6  C   UNL     1      -5.718  11.100  66.000  1.00  0.00    -0.100 A  
HETATM    7  C   UNL     1      -5.352  10.215  64.979  1.00  0.00    -0.086 A  
HETATM    8  C   UNL     1      -5.895   8.934  64.916  1.00  0.00    -0.063 A  
HETATM    9  C   UNL     1      -6.838   8.495  65.852  1.00  0.00    -0.064 A  
HETATM   10  C   UNL     1      -7.229   9.408  66.838  1.00  0.00    -0.087 A  
HETATM   11  N   UNL     1      -8.179   9.388  67.830  1.00  0.00    -0.114 NA 
ENDROOT
BRANCH  11  12
HETATM   12  C   UNL     1      -9.265   8.453  68.025  1.00  0.00    -0.136 C  
HETATM   13  C   UNL     1      -9.064   7.465  69.171  1.00  0.00    -0.134 C  
HETATM   14  C   UNL     1     -10.405   6.767  69.402  1.00  0.00    -0.199 C  
HETATM   15  N   UNL     1     -10.923   6.075  68.207  1.00  0.00    -0.300 NA 
HETATM   16  C   UNL     1     -10.991   6.965  67.038  1.00  0.00    -0.334 C  
HETATM   17  C   UNL     1      -9.683   7.701  66.757  1.00  0.00    -0.290 C  
BRANCH  15  18
HETATM   18  C   UNL     1     -10.223   4.819  67.902  1.00  0.00    -0.001 C  
BRANCH  18  19
HETATM   19  C   UNL     1      -9.177   4.450  68.958  1.00  0.00    -0.201 C  
BRANCH  19  20
HETATM   20  C   UNL     1      -9.514   3.135  69.662  1.00  0.00    -0.191 C  
BRANCH  20  21
HETATM   21  C   UNL     1      -9.000   3.117  71.085  1.00  0.00    -0.099 C  
HETATM   22  O   UNL     1      -8.507   2.119  71.606  1.00  0.00    -0.057 OA 
BRANCH  21  23
HETATM   23  C   UNL     1      -9.140   4.360  71.890  1.00  0.00    -0.163 A  
HETATM   24  C   UNL     1     -10.413   4.681  72.382  1.00  0.00    -0.250 A  
HETATM   25  C   UNL     1     -10.603   5.851  73.117  1.00  0.00    -0.270 A  
HETATM   26  C   UNL     1      -9.522   6.685  73.369  1.00  0.00    -0.144 A  
HETATM   27  C   UNL     1      -8.251   6.371  72.899  1.00  0.00    -0.113 A  
HETATM   28  F   UNL     1      -9.705   7.808  74.072  1.00  0.00    -0.319 F  
HETATM   29  C   UNL     1      -8.055   5.205  72.155  1.00  0.00    -0.113 A  
ENDBRANCH  21  23
ENDBRANCH  20  21
ENDBRANCH  19  20
ENDBRANCH  18  19
ENDBRANCH  15  18
ENDBRANCH  11  12
TORSDOF 6
ENDMDL
MODEL      249
REMARK 921   NORMALIZED FREE ENERGY PREDICTED BY IDOCK:   -2.86 KCAL/MOL
REMARK 922        TOTAL FREE ENERGY PREDICTED BY IDOCK:   -5.17 KCAL/MOL
REMARK 923 INTER-LIGAND FREE ENERGY PREDICTED BY IDOCK:   -5.79 KCAL/MOL
REMARK 924 INTRA-LIGAND FREE ENERGY PREDICTED BY IDOCK:    0.61 KCAL/MOL
REMARK 927      BINDING AFFINITY PREDICTED BY RF-SCORE:    0.00 PKD
ROOT
HETATM    1  O   UNL     1     -12.252  13.111  62.843  1.00  0.00    -0.752 OA 
HETATM    2  C   UNL     1     -11.342  12.561  63.615  1.00  0.00    -0.485 A  
HETATM    3  H   UNL     1     -12.514  14.019  62.940  1.00  0.00     0.000 HD 
HETATM    4  N   UNL     1     -10.981  11.316  63.482  1.00  0.00    -0.339 NA 
HETATM    5  C   UNL     1     -10.068  11.120  64.487  1.00  0.00    -0.308 A  
HETATM    6  C   UNL     1      -9.400   9.944  64.852  1.00  0.00    -0.329 A  
HETATM    7  C   UNL     1      -8.510   9.984  65.932  1.00  0.00    -0.139 A  
HETATM    8  C   UNL     1      -8.269  11.174  66.615  1.00  0.00    -0.158 A  
HETATM    9  C   UNL     1      -8.920  12.361  66.263  1.00  0.00    -0.041 A  
HETATM   10  C   UNL     1      -9.843  12.294  65.212  1.00  0.00    -0.180 A  
HETATM   11  N   UNL     1     -10.731  13.188  64.668  1.00  0.00    -0.358 NA 
ENDROOT
BRANCH  11  12
HETATM   12  C   UNL     1     -11.158  14.469  65.185  1.00  0.00    -0.370 C  
HETATM   13  C   UNL     1     -10.669  15.678  64.392  1.00  0.00     0.267 C  
HETATM   14  C   UNL     1     -11.439  16.896  64.907  1.00  0.00     0.500 C  
HETATM   15  N   UNL     1     -11.277  17.126  66.354  1.00  0.00     0.452 NA 
HETATM   16  C   UNL     1     -11.600  15.929  67.146  1.00  0.00     0.291 C  
HETATM   17  C   UNL     1     -10.868  14.674  66.676  1.00  0.00    -0.312 C  
BRANCH  15  18
HETATM   18  C   UNL     1      -9.970  17.690  66.720  1.00  0.00    -0.320 C  
BRANCH  18  19
HETATM   19  C   UNL     1      -9.299  16.938  67.873  1.00  0.00    -0.238 C  
BRANCH  19  20
HETATM   20  C   UNL     1     -10.091  17.062  69.175  1.00  0.00    -0.259 C  
BRANCH  20  21
HETATM   21  C   UNL     1      -9.903  15.849  70.059  1.00  0.00     0.043 C  
HETATM   22  O   UNL     1      -8.820  15.288  70.204  1.00  0.00     0.115 OA 
BRANCH  21  23
HETATM   23  C   UNL     1     -11.102  15.298  70.747  1.00  0.00    -0.340 A  
HETATM   24  C   UNL     1     -11.769  16.124  71.662  1.00  0.00    -0.558 A  
HETATM   25  C   UNL     1     -12.880  15.644  72.355  1.00  0.00    -0.519 A  
HETATM   26  C   UNL     1     -13.328  14.350  72.120  1.00  0.00    -0.398 A  
HETATM   27  C   UNL     1     -12.685  13.526  71.203  1.00  0.00    -0.425 A  
HETATM   28  F   UNL     1     -14.393  13.890  72.786  1.00  0.00    -0.456 F  
HETATM   29  C   UNL     1     -11.566  13.997  70.512  1.00  0.00    -0.171 A  
ENDBRANCH  21  23
ENDBRANCH  20  21
ENDBRANCH  19  20
ENDBRANCH  18  19
ENDBRANCH  15  18
ENDBRANCH  11  12
TORSDOF 6
ENDMDL
MODEL      250
REMARK 921   NORMALIZED FREE ENERGY PREDICTED BY IDOCK:   -2.78 KCAL/MOL
REMARK 922        TOTAL FREE ENERGY PREDICTED BY IDOCK:   -5.06 KCAL/MOL
REMARK 923 INTER-LIGAND FREE ENERGY PREDICTED BY IDOCK:   -5.14 KCAL/MOL
REMARK 924 INTRA-LIGAND FREE ENERGY PREDICTED BY IDOCK:    0.07 KCAL/MOL
REMARK 927      BINDING AFFINITY PREDICTED BY RF-SCORE:    0.00 PKD
ROOT
HETATM    1  O   UNL     1     -11.991  11.441  69.657  1.00  0.00    -0.308 OA 
HETATM    2  C   UNL     1     -11.311  11.056  68.601  1.00  0.00    -0.281 A  
HETATM    3  H   UNL     1     -11.765  11.154  70.534  1.00  0.00     0.000 HD 
HETATM    4  N   UNL     1     -11.621  11.450  67.397  1.00  0.00    -0.561 NA 
HETATM    5  C   UNL     1     -10.721  10.801  66.589  1.00  0.00    -0.207 A  
HETATM    6  C   UNL     1     -10.630  10.807  65.191  1.00  0.00    -0.239 A  
HETATM    7  C   UNL     1      -9.624  10.050  64.580  1.00  0.00    -0.346 A  
HETATM    8  C   UNL     1      -8.711   9.327  65.343  1.00  0.00    -0.208 A  
HETATM    9  C   UNL     1      -8.780   9.312  66.740  1.00  0.00    -0.138 A  
HETATM   10  C   UNL     1      -9.821  10.034  67.335  1.00  0.00    -0.185 A  
HETATM   11  N   UNL     1     -10.271  10.166  68.625  1.00  0.00    -0.168 NA 
ENDROOT
BRANCH  11  12
HETATM   12  C   UNL     1      -9.920   9.386  69.791  1.00  0.00    -0.200 C  
HETATM   13  C   UNL     1      -9.213   8.067  69.492  1.00  0.00    -0.152 C  
HETATM   14  C   UNL     1      -8.676   7.533  70.821  1.00  0.00    -0.140 C  
HETATM   15  N   UNL     1      -9.721   7.340  71.844  1.00  0.00    -0.156 NA 
HETATM   16  C   UNL     1     -10.523   8.556  72.053  1.00  0.00    -0.336 C  
HETATM   17  C   UNL     1     -11.083   9.144  70.760  1.00  0.00    -0.336 C  
BRANCH  15  18
HETATM   18  C   UNL     1     -10.564   6.159  71.610  1.00  0.00    -0.230 C  
BRANCH  18  19
HETATM   19  C   UNL     1     -10.201   5.415  70.322  1.00  0.00    -0.338 C  
BRANCH  19  20
HETATM   20  C   UNL     1     -10.039   3.912  70.554  1.00  0.00     0.082 C  
BRANCH  20  21
HETATM   21  C   UNL     1      -9.257   3.257  69.437  1.00  0.00    -0.152 C  
HETATM   22  O   UNL     1      -9.375   2.070  69.145  1.00  0.00    -0.128 OA 
BRANCH  21  23
HETATM   23  C   UNL     1      -8.275   4.092  68.694  1.00  0.00    -0.088 A  
HETATM   24  C   UNL     1      -8.512   4.325  67.332  1.00  0.00    -0.099 A  
HETATM   25  C   UNL     1      -7.606   5.077  66.585  1.00  0.00    -0.088 A  
HETATM   26  C   UNL     1      -6.478   5.603  67.202  1.00  0.00    -0.044 A  
HETATM   27  C   UNL     1      -6.239   5.392  68.556  1.00  0.00    -0.030 A  
HETATM   28  F   UNL     1      -5.608   6.323  66.484  1.00  0.00    -0.011 F  
HETATM   29  C   UNL     1      -7.138   4.634  69.309  1.00  0.00    -0.052 A  
ENDBRANCH  21  23
ENDBRANCH  20  21
ENDBRANCH  19  20
ENDBRANCH  18  19
ENDBRANCH  15  18
ENDBRANCH  11  12
TORSDOF 6
ENDMDL
MODEL      251
REMARK 921   NORMALIZED FREE ENERGY PREDICTED BY IDOCK:   -2.78 KCAL/MOL
REMARK 922        TOTAL FREE ENERGY PREDICTED BY IDOCK:   -5.06 KCAL/MOL
REMARK 923 INTER-LIGAND FREE ENERGY PREDICTED BY IDOCK:   -5.21 KCAL/MOL
REMARK 924 INTRA-LIGAND FREE ENERGY PREDICTED BY IDOCK:    0.15 KCAL/MOL
REMARK 927      BINDING AFFINITY PREDICTED BY RF-SCORE:    0.00 PKD
ROOT
HETATM    1  O   UNL     1      -5.126  16.198  71.456  1.00  0.00    -0.206 OA 
HETATM    2  C   UNL     1      -5.509  16.818  70.362  1.00  0.00    -0.201 A  
HETATM    3  H   UNL     1      -4.932  15.268  71.467  1.00  0.00     0.000 HD 
HETATM    4  N   UNL     1      -5.774  18.094  70.346  1.00  0.00    -0.213 NA 
HETATM    5  C   UNL     1      -6.177  18.338  69.058  1.00  0.00    -0.234 A  
HETATM    6  C   UNL     1      -6.642  19.533  68.493  1.00  0.00    -0.306 A  
HETATM    7  C   UNL     1      -7.011  19.539  67.143  1.00  0.00    -0.218 A  
HETATM    8  C   UNL     1      -6.894  18.389  66.365  1.00  0.00    -0.252 A  
HETATM    9  C   UNL     1      -6.427  17.187  66.908  1.00  0.00    -0.239 A  
HETATM   10  C   UNL     1      -6.108  17.185  68.271  1.00  0.00    -0.143 A  
HETATM   11  N   UNL     1      -5.738  16.206  69.159  1.00  0.00    -0.113 NA 
ENDROOT
BRANCH  11  12
HETATM   12  C   UNL     1      -5.780  14.770  68.994  1.00  0.00    -0.092 C  
HETATM   13  C   UNL     1      -6.401  14.292  67.684  1.00  0.00    -0.126 C  
HETATM   14  C   UNL     1      -6.102  12.797  67.563  1.00  0.00    -0.152 C  
HETATM   15  N   UNL     1      -6.608  12.001  68.697  1.00  0.00    -0.069 NA 
HETATM   16  C   UNL     1      -6.146  12.525  69.992  1.00  0.00    -0.117 C  
HETATM   17  C   UNL     1      -6.409  14.018  70.172  1.00  0.00    -0.107 C  
BRANCH  15  18
HETATM   18  C   UNL     1      -8.064  11.800  68.674  1.00  0.00    -0.104 C  
BRANCH  18  19
HETATM   19  C   UNL     1      -8.569  11.272  67.328  1.00  0.00    -0.143 C  
BRANCH  19  20
HETATM   20  C   UNL     1      -9.865  10.474  67.475  1.00  0.00    -0.196 C  
BRANCH  20  21
HETATM   21  C   UNL     1     -10.067   9.521  66.318  1.00  0.00    -0.257 C  
HETATM   22  O   UNL     1     -10.370   9.895  65.188  1.00  0.00    -0.152 OA 
BRANCH  21  23
HETATM   23  C   UNL     1      -9.927   8.064  66.586  1.00  0.00    -0.326 A  
HETATM   24  C   UNL     1      -8.762   7.425  66.140  1.00  0.00    -0.172 A  
HETATM   25  C   UNL     1      -8.596   6.055  66.340  1.00  0.00    -0.129 A  
HETATM   26  C   UNL     1      -9.586   5.334  66.996  1.00  0.00    -0.142 A  
HETATM   27  C   UNL     1     -10.740   5.958  67.457  1.00  0.00    -0.359 A  
HETATM   28  F   UNL     1      -9.427   4.019  67.186  1.00  0.00    -0.157 F  
HETATM   29  C   UNL     1     -10.916   7.329  67.253  1.00  0.00    -0.284 A  
ENDBRANCH  21  23
ENDBRANCH  20  21
ENDBRANCH  19  20
ENDBRANCH  18  19
ENDBRANCH  15  18
ENDBRANCH  11  12
TORSDOF 6
ENDMDL
MODEL      252
REMARK 921   NORMALIZED FREE ENERGY PREDICTED BY IDOCK:   -2.65 KCAL/MOL
REMARK 922        TOTAL FREE ENERGY PREDICTED BY IDOCK:   -4.88 KCAL/MOL
REMARK 923 INTER-LIGAND FREE ENERGY PREDICTED BY IDOCK:   -5.08 KCAL/MOL
REMARK 924 INTRA-LIGAND FREE ENERGY PREDICTED BY IDOCK:    0.19 KCAL/MOL
REMARK 927      BINDING AFFINITY PREDICTED BY RF-SCORE:    0.00 PKD
ROOT
HETATM    1  O   UNL     1      -5.132  16.197  71.459  1.00  0.00    -0.206 OA 
HETATM    2  C   UNL     1      -5.524  16.809  70.365  1.00  0.00    -0.201 A  
HETATM    3  H   UNL     1      -4.961  15.262  71.481  1.00  0.00     0.000 HD 
HETATM    4  N   UNL     1      -5.758  18.091  70.334  1.00  0.00    -0.211 NA 
HETATM    5  C   UNL     1      -6.184  18.325  69.052  1.00  0.00    -0.234 A  
HETATM    6  C   UNL     1      -6.631  19.523  68.478  1.00  0.00    -0.306 A  
HETATM    7  C   UNL     1      -7.030  19.517  67.136  1.00  0.00    -0.218 A  
HETATM    8  C   UNL     1      -6.959  18.353  66.375  1.00  0.00    -0.264 A  
HETATM    9  C   UNL     1      -6.510  17.148  66.926  1.00  0.00    -0.239 A  
HETATM   10  C   UNL     1      -6.161  17.159  68.281  1.00  0.00    -0.143 A  
HETATM   11  N   UNL     1      -5.795  16.185  69.177  1.00  0.00    -0.118 NA 
ENDROOT
BRANCH  11  12
HETATM   12  C   UNL     1      -5.877  14.748  69.035  1.00  0.00    -0.092 C  
HETATM   13  C   UNL     1      -6.549  14.266  67.753  1.00  0.00    -0.189 C  
HETATM   14  C   UNL     1      -6.289  12.762  67.646  1.00  0.00    -0.153 C  
HETATM   15  N   UNL     1      -6.779  11.996  68.808  1.00  0.00    -0.080 NA 
HETATM   16  C   UNL     1      -6.264  12.528  70.079  1.00  0.00    -0.066 C  
HETATM   17  C   UNL     1      -6.486  14.029  70.244  1.00  0.00    -0.033 C  
BRANCH  15  18
HETATM   18  C   UNL     1      -8.239  11.830  68.832  1.00  0.00     0.057 C  
BRANCH  18  19
HETATM   19  C   UNL     1      -8.711  10.607  68.040  1.00  0.00    -0.126 C  
BRANCH  19  20
HETATM   20  C   UNL     1     -10.044  10.068  68.560  1.00  0.00    -0.187 C  
BRANCH  20  21
HETATM   21  C   UNL     1     -10.238   8.613  68.192  1.00  0.00    -0.205 C  
HETATM   22  O   UNL     1     -10.475   8.238  67.047  1.00  0.00    -0.310 OA 
BRANCH  21  23
HETATM   23  C   UNL     1     -10.176   7.607  69.286  1.00  0.00    -0.210 A  
HETATM   24  C   UNL     1     -11.113   6.565  69.271  1.00  0.00    -0.393 A  
HETATM   25  C   UNL     1     -11.115   5.613  70.290  1.00  0.00    -0.204 A  
HETATM   26  C   UNL     1     -10.175   5.697  71.309  1.00  0.00    -0.220 A  
HETATM   27  C   UNL     1      -9.230   6.717  71.328  1.00  0.00    -0.154 A  
HETATM   28  F   UNL     1     -10.179   4.785  72.288  1.00  0.00    -0.213 F  
HETATM   29  C   UNL     1      -9.227   7.679  70.315  1.00  0.00    -0.157 A  
ENDBRANCH  21  23
ENDBRANCH  20  21
ENDBRANCH  19  20
ENDBRANCH  18  19
ENDBRANCH  15  18
ENDBRANCH  11  12
TORSDOF 6
ENDMDL
MODEL      253
REMARK 921   NORMALIZED FREE ENERGY PREDICTED BY IDOCK:   -2.55 KCAL/MOL
REMARK 922        TOTAL FREE ENERGY PREDICTED BY IDOCK:   -4.75 KCAL/MOL
REMARK 923 INTER-LIGAND FREE ENERGY PREDICTED BY IDOCK:   -5.14 KCAL/MOL
REMARK 924 INTRA-LIGAND FREE ENERGY PREDICTED BY IDOCK:    0.39 KCAL/MOL
REMARK 927      BINDING AFFINITY PREDICTED BY RF-SCORE:    0.00 PKD
ROOT
HETATM    1  O   UNL     1     -10.366   6.146  72.066  1.00  0.00    -0.193 OA 
HETATM    2  C   UNL     1      -9.281   5.485  71.731  1.00  0.00    -0.142 A  
HETATM    3  H   UNL     1     -10.806   6.733  71.462  1.00  0.00     0.000 HD 
HETATM    4  N   UNL     1      -8.677   4.680  72.559  1.00  0.00    -0.114 NA 
HETATM    5  C   UNL     1      -7.584   4.234  71.860  1.00  0.00    -0.071 A  
HETATM    6  C   UNL     1      -6.549   3.392  72.286  1.00  0.00    -0.015 A  
HETATM    7  C   UNL     1      -5.522   3.081  71.388  1.00  0.00    -0.008 A  
HETATM    8  C   UNL     1      -5.539   3.574  70.085  1.00  0.00    -0.016 A  
HETATM    9  C   UNL     1      -6.565   4.412  69.637  1.00  0.00    -0.033 A  
HETATM   10  C   UNL     1      -7.560   4.752  70.561  1.00  0.00    -0.058 A  
HETATM   11  N   UNL     1      -8.632   5.610  70.533  1.00  0.00    -0.127 NA 
ENDROOT
BRANCH  11  12
HETATM   12  C   UNL     1      -8.945   6.635  69.562  1.00  0.00    -0.138 C  
HETATM   13  C   UNL     1      -7.792   7.576  69.226  1.00  0.00    -0.118 C  
HETATM   14  C   UNL     1      -8.217   8.388  68.001  1.00  0.00    -0.127 C  
HETATM   15  N   UNL     1      -9.464   9.148  68.202  1.00  0.00    -0.141 NA 
HETATM   16  C   UNL     1     -10.565   8.293  68.671  1.00  0.00    -0.108 C  
HETATM   17  C   UNL     1     -10.202   7.448  69.889  1.00  0.00    -0.212 C  
BRANCH  15  18
HETATM   18  C   UNL     1      -9.299  10.342  69.043  1.00  0.00    -0.189 C  
BRANCH  18  19
HETATM   19  C   UNL     1      -8.411  11.408  68.395  1.00  0.00    -0.155 C  
BRANCH  19  20
HETATM   20  C   UNL     1      -9.124  12.756  68.282  1.00  0.00    -0.180 C  
BRANCH  20  21
HETATM   21  C   UNL     1     -10.600  12.584  68.002  1.00  0.00    -0.223 C  
HETATM   22  O   UNL     1     -11.424  12.342  68.881  1.00  0.00    -0.262 OA 
BRANCH  21  23
HETATM   23  C   UNL     1     -11.055  12.677  66.589  1.00  0.00    -0.314 A  
HETATM   24  C   UNL     1     -10.798  11.587  65.746  1.00  0.00    -0.319 A  
HETATM   25  C   UNL     1     -11.178  11.636  64.405  1.00  0.00    -0.360 A  
HETATM   26  C   UNL     1     -11.823  12.765  63.916  1.00  0.00    -0.468 A  
HETATM   27  C   UNL     1     -12.097  13.847  64.745  1.00  0.00    -0.443 A  
HETATM   28  F   UNL     1     -12.185  12.813  62.629  1.00  0.00    -0.209 F  
HETATM   29  C   UNL     1     -11.712  13.808  66.087  1.00  0.00    -0.392 A  
ENDBRANCH  21  23
ENDBRANCH  20  21
ENDBRANCH  19  20
ENDBRANCH  18  19
ENDBRANCH  15  18
ENDBRANCH  11  12
TORSDOF 6
ENDMDL
MODEL      254
REMARK 921   NORMALIZED FREE ENERGY PREDICTED BY IDOCK:   -2.32 KCAL/MOL
REMARK 922        TOTAL FREE ENERGY PREDICTED BY IDOCK:   -4.44 KCAL/MOL
REMARK 923 INTER-LIGAND FREE ENERGY PREDICTED BY IDOCK:   -4.05 KCAL/MOL
REMARK 924 INTRA-LIGAND FREE ENERGY PREDICTED BY IDOCK:   -0.39 KCAL/MOL
REMARK 927      BINDING AFFINITY PREDICTED BY RF-SCORE:    0.00 PKD
ROOT
HETATM    1  O   UNL     1     -11.292   5.682  69.286  1.00  0.00    -0.073 OA 
HETATM    2  C   UNL     1     -11.009   6.928  68.980  1.00  0.00    -0.181 A  
HETATM    3  H   UNL     1     -11.441   5.404  70.182  1.00  0.00     0.000 HD 
HETATM    4  N   UNL     1     -10.805   7.310  67.751  1.00  0.00    -0.180 NA 
HETATM    5  C   UNL     1     -10.496   8.642  67.859  1.00  0.00    -0.209 A  
HETATM    6  C   UNL     1     -10.125   9.544  66.853  1.00  0.00    -0.295 A  
HETATM    7  C   UNL     1      -9.843  10.868  67.208  1.00  0.00    -0.202 A  
HETATM    8  C   UNL     1      -9.956  11.292  68.530  1.00  0.00    -0.206 A  
HETATM    9  C   UNL     1     -10.330  10.410  69.549  1.00  0.00    -0.264 A  
HETATM   10  C   UNL     1     -10.562   9.078  69.185  1.00  0.00    -0.203 A  
HETATM   11  N   UNL     1     -10.828   7.932  69.892  1.00  0.00    -0.244 NA 
ENDROOT
BRANCH  11  12
HETATM   12  C   UNL     1     -10.730   7.704  71.317  1.00  0.00    -0.228 C  
HETATM   13  C   UNL     1      -9.350   7.962  71.916  1.00  0.00    -0.204 C  
HETATM   14  C   UNL     1      -9.510   7.949  73.437  1.00  0.00    -0.275 C  
HETATM   15  N   UNL     1     -10.073   6.690  73.959  1.00  0.00    -0.315 NA 
HETATM   16  C   UNL     1     -11.336   6.331  73.296  1.00  0.00     0.110 C  
HETATM   17  C   UNL     1     -11.246   6.334  71.772  1.00  0.00    -0.334 C  
BRANCH  15  18
HETATM   18  C   UNL     1      -9.118   5.572  73.962  1.00  0.00    -0.125 C  
BRANCH  18  19
HETATM   19  C   UNL     1      -9.767   4.237  74.337  1.00  0.00    -0.153 C  
BRANCH  19  20
HETATM   20  C   UNL     1      -9.771   3.253  73.166  1.00  0.00    -0.161 C  
BRANCH  20  21
HETATM   21  C   UNL     1      -8.390   2.693  72.905  1.00  0.00    -0.070 C  
HETATM   22  O   UNL     1      -7.940   1.717  73.500  1.00  0.00    -0.040 OA 
BRANCH  21  23
HETATM   23  C   UNL     1      -7.536   3.390  71.907  1.00  0.00    -0.052 A  
HETATM   24  C   UNL     1      -8.096   3.685  70.656  1.00  0.00    -0.061 A  
HETATM   25  C   UNL     1      -7.327   4.311  69.676  1.00  0.00    -0.050 A  
HETATM   26  C   UNL     1      -6.009   4.653  69.953  1.00  0.00    -0.018 A  
HETATM   27  C   UNL     1      -5.445   4.380  71.194  1.00  0.00    -0.007 A  
HETATM   28  F   UNL     1      -5.271   5.252  69.012  1.00  0.00     0.000 F  
HETATM   29  C   UNL     1      -6.207   3.746  72.178  1.00  0.00    -0.014 A  
ENDBRANCH  21  23
ENDBRANCH  20  21
ENDBRANCH  19  20
ENDBRANCH  18  19
ENDBRANCH  15  18
ENDBRANCH  11  12
TORSDOF 6
ENDMDL
MODEL      255
REMARK 921   NORMALIZED FREE ENERGY PREDICTED BY IDOCK:   -2.09 KCAL/MOL
REMARK 922        TOTAL FREE ENERGY PREDICTED BY IDOCK:   -4.13 KCAL/MOL
REMARK 923 INTER-LIGAND FREE ENERGY PREDICTED BY IDOCK:   -3.21 KCAL/MOL
REMARK 924 INTRA-LIGAND FREE ENERGY PREDICTED BY IDOCK:   -0.93 KCAL/MOL
REMARK 927      BINDING AFFINITY PREDICTED BY RF-SCORE:    0.00 PKD
ROOT
HETATM    1  O   UNL     1      -7.732   2.757  70.775  1.00  0.00    -0.042 OA 
HETATM    2  C   UNL     1      -8.397   3.784  71.254  1.00  0.00    -0.072 A  
HETATM    3  H   UNL     1      -7.511   2.684  69.854  1.00  0.00     0.000 HD 
HETATM    4  N   UNL     1      -8.699   3.885  72.518  1.00  0.00    -0.101 NA 
HETATM    5  C   UNL     1      -9.421   5.048  72.600  1.00  0.00    -0.140 A  
HETATM    6  C   UNL     1     -10.051   5.616  73.715  1.00  0.00    -0.220 A  
HETATM    7  C   UNL     1     -10.748   6.819  73.553  1.00  0.00    -0.319 A  
HETATM    8  C   UNL     1     -10.793   7.457  72.316  1.00  0.00    -0.287 A  
HETATM    9  C   UNL     1     -10.166   6.911  71.191  1.00  0.00    -0.211 A  
HETATM   10  C   UNL     1      -9.514   5.683  71.359  1.00  0.00    -0.147 A  
HETATM   11  N   UNL     1      -8.901   4.807  70.498  1.00  0.00    -0.105 NA 
ENDROOT
BRANCH  11  12
HETATM   12  C   UNL     1      -8.937   4.783  69.052  1.00  0.00    -0.104 C  
HETATM   13  C   UNL     1      -9.385   3.459  68.442  1.00  0.00    -0.238 C  
HETATM   14  C   UNL     1      -9.633   3.710  66.953  1.00  0.00    -0.150 C  
HETATM   15  N   UNL     1      -8.454   4.235  66.241  1.00  0.00    -0.112 NA 
HETATM   16  C   UNL     1      -7.903   5.435  66.890  1.00  0.00    -0.101 C  
HETATM   17  C   UNL     1      -7.641   5.252  68.382  1.00  0.00    -0.080 C  
BRANCH  15  18
HETATM   18  C   UNL     1      -7.419   3.224  65.986  1.00  0.00    -0.073 C  
BRANCH  18  19
HETATM   19  C   UNL     1      -7.618   2.491  64.657  1.00  0.00    -0.072 C  
BRANCH  19  20
HETATM   20  C   UNL     1      -7.925   3.455  63.510  1.00  0.00    -0.083 C  
BRANCH  20  21
HETATM   21  C   UNL     1      -6.708   4.265  63.123  1.00  0.00    -0.035 C  
HETATM   22  O   UNL     1      -5.700   3.764  62.629  1.00  0.00    -0.012 OA 
BRANCH  21  23
HETATM   23  C   UNL     1      -6.732   5.727  63.394  1.00  0.00    -0.036 A  
HETATM   24  C   UNL     1      -5.581   6.310  63.943  1.00  0.00    -0.022 A  
HETATM   25  C   UNL     1      -5.564   7.672  64.244  1.00  0.00    -0.033 A  
HETATM   26  C   UNL     1      -6.687   8.446  63.982  1.00  0.00    -0.075 A  
HETATM   27  C   UNL     1      -7.829   7.884  63.424  1.00  0.00    -0.139 A  
HETATM   28  F   UNL     1      -6.670   9.752  64.272  1.00  0.00    -0.096 F  
HETATM   29  C   UNL     1      -7.857   6.519  63.127  1.00  0.00    -0.099 A  
ENDBRANCH  21  23
ENDBRANCH  20  21
ENDBRANCH  19  20
ENDBRANCH  18  19
ENDBRANCH  15  18
ENDBRANCH  11  12
TORSDOF 6
ENDMDL
MODEL      256
REMARK 921   NORMALIZED FREE ENERGY PREDICTED BY IDOCK:   -2.05 KCAL/MOL
REMARK 922        TOTAL FREE ENERGY PREDICTED BY IDOCK:   -4.07 KCAL/MOL
REMARK 923 INTER-LIGAND FREE ENERGY PREDICTED BY IDOCK:   -3.70 KCAL/MOL
REMARK 924 INTRA-LIGAND FREE ENERGY PREDICTED BY IDOCK:   -0.38 KCAL/MOL
REMARK 927      BINDING AFFINITY PREDICTED BY RF-SCORE:    0.00 PKD
ROOT
HETATM    1  O   UNL     1     -10.755   6.081  69.412  1.00  0.00    -0.262 OA 
HETATM    2  C   UNL     1     -10.324   7.130  68.748  1.00  0.00    -0.192 A  
HETATM    3  H   UNL     1     -10.558   5.952  70.333  1.00  0.00     0.000 HD 
HETATM    4  N   UNL     1     -10.595   7.308  67.485  1.00  0.00    -0.262 NA 
HETATM    5  C   UNL     1      -9.936   8.467  67.160  1.00  0.00    -0.238 A  
HETATM    6  C   UNL     1      -9.828   9.099  65.915  1.00  0.00    -0.305 A  
HETATM    7  C   UNL     1      -9.085  10.281  65.822  1.00  0.00    -0.202 A  
HETATM    8  C   UNL     1      -8.486  10.838  66.949  1.00  0.00    -0.131 A  
HETATM    9  C   UNL     1      -8.585  10.227  68.204  1.00  0.00    -0.119 A  
HETATM   10  C   UNL     1      -9.291   9.020  68.270  1.00  0.00    -0.139 A  
HETATM   11  N   UNL     1      -9.504   8.096  69.264  1.00  0.00    -0.158 NA 
ENDROOT
BRANCH  11  12
HETATM   12  C   UNL     1      -8.848   7.979  70.547  1.00  0.00    -0.137 C  
HETATM   13  C   UNL     1      -7.350   8.272  70.533  1.00  0.00    -0.056 C  
HETATM   14  C   UNL     1      -6.898   8.379  71.990  1.00  0.00    -0.089 C  
HETATM   15  N   UNL     1      -7.182   7.170  72.785  1.00  0.00    -0.072 NA 
HETATM   16  C   UNL     1      -8.596   6.771  72.703  1.00  0.00    -0.122 C  
HETATM   17  C   UNL     1      -9.112   6.654  71.271  1.00  0.00    -0.151 C  
BRANCH  15  18
HETATM   18  C   UNL     1      -6.277   6.048  72.496  1.00  0.00    -0.053 C  
BRANCH  18  19
HETATM   19  C   UNL     1      -6.408   4.904  73.507  1.00  0.00    -0.058 C  
BRANCH  19  20
HETATM   20  C   UNL     1      -7.398   3.836  73.039  1.00  0.00    -0.060 C  
BRANCH  20  21
HETATM   21  C   UNL     1      -6.901   3.120  71.803  1.00  0.00    -0.026 C  
HETATM   22  O   UNL     1      -5.894   2.416  71.796  1.00  0.00    -0.012 OA 
BRANCH  21  23
HETATM   23  C   UNL     1      -7.655   3.317  70.536  1.00  0.00    -0.040 A  
HETATM   24  C   UNL     1      -8.810   2.548  70.334  1.00  0.00    -0.145 A  
HETATM   25  C   UNL     1      -9.535   2.675  69.150  1.00  0.00    -0.148 A  
HETATM   26  C   UNL     1      -9.114   3.577  68.181  1.00  0.00    -0.151 A  
HETATM   27  C   UNL     1      -7.979   4.357  68.375  1.00  0.00    -0.078 A  
HETATM   28  F   UNL     1      -9.809   3.697  67.044  1.00  0.00    -0.241 F  
HETATM   29  C   UNL     1      -7.243   4.230  69.555  1.00  0.00    -0.050 A  
ENDBRANCH  21  23
ENDBRANCH  20  21
ENDBRANCH  19  20
ENDBRANCH  18  19
ENDBRANCH  15  18
ENDBRANCH  11  12
TORSDOF 6
ENDMDL
MODEL      257
REMARK 921   NORMALIZED FREE ENERGY PREDICTED BY IDOCK:   -1.95 KCAL/MOL
REMARK 922        TOTAL FREE ENERGY PREDICTED BY IDOCK:   -3.94 KCAL/MOL
REMARK 923 INTER-LIGAND FREE ENERGY PREDICTED BY IDOCK:   -5.25 KCAL/MOL
REMARK 924 INTRA-LIGAND FREE ENERGY PREDICTED BY IDOCK:    1.31 KCAL/MOL
REMARK 927      BINDING AFFINITY PREDICTED BY RF-SCORE:    0.00 PKD
ROOT
HETATM    1  O   UNL     1      -8.596   4.644  71.646  1.00  0.00    -0.113 OA 
HETATM    2  C   UNL     1      -7.968   5.315  70.707  1.00  0.00    -0.098 A  
HETATM    3  H   UNL     1      -9.537   4.698  71.762  1.00  0.00     0.000 HD 
HETATM    4  N   UNL     1      -6.677   5.240  70.547  1.00  0.00    -0.038 NA 
HETATM    5  C   UNL     1      -6.414   6.108  69.518  1.00  0.00    -0.042 A  
HETATM    6  C   UNL     1      -5.179   6.472  68.967  1.00  0.00    -0.012 A  
HETATM    7  C   UNL     1      -5.157   7.397  67.917  1.00  0.00    -0.024 A  
HETATM    8  C   UNL     1      -6.340   7.927  67.407  1.00  0.00    -0.055 A  
HETATM    9  C   UNL     1      -7.585   7.573  67.938  1.00  0.00    -0.110 A  
HETATM   10  C   UNL     1      -7.586   6.684  69.019  1.00  0.00    -0.101 A  
HETATM   11  N   UNL     1      -8.565   6.203  69.854  1.00  0.00    -0.131 NA 
ENDROOT
BRANCH  11  12
HETATM   12  C   UNL     1      -9.928   6.663  70.010  1.00  0.00    -0.172 C  
HETATM   13  C   UNL     1     -10.107   8.177  69.944  1.00  0.00    -0.195 C  
HETATM   14  C   UNL     1     -11.609   8.449  69.842  1.00  0.00     0.297 C  
HETATM   15  N   UNL     1     -12.387   7.884  70.959  1.00  0.00    -0.222 NA 
HETATM   16  C   UNL     1     -12.125   6.448  71.147  1.00  0.00    -0.147 C  
HETATM   17  C   UNL     1     -10.640   6.109  71.249  1.00  0.00    -0.295 C  
BRANCH  15  18
HETATM   18  C   UNL     1     -12.249   8.636  72.215  1.00  0.00    -0.378 C  
BRANCH  18  19
HETATM   19  C   UNL     1     -12.701  10.093  72.087  1.00  0.00    -0.316 C  
BRANCH  19  20
HETATM   20  C   UNL     1     -12.706  10.567  70.633  1.00  0.00    -0.441 C  
BRANCH  20  21
HETATM   21  C   UNL     1     -12.437  12.052  70.529  1.00  0.00    -0.207 C  
HETATM   22  O   UNL     1     -12.793  12.858  71.386  1.00  0.00    -0.367 OA 
BRANCH  21  23
HETATM   23  C   UNL     1     -11.745  12.549  69.310  1.00  0.00    -0.379 A  
HETATM   24  C   UNL     1     -10.982  11.634  68.571  1.00  0.00    -0.264 A  
HETATM   25  C   UNL     1     -10.290  12.057  67.437  1.00  0.00    -0.226 A  
HETATM   26  C   UNL     1     -10.375  13.385  67.038  1.00  0.00    -0.247 A  
HETATM   27  C   UNL     1     -11.140  14.300  67.753  1.00  0.00    -0.294 A  
HETATM   28  F   UNL     1      -9.709  13.791  65.951  1.00  0.00    -0.282 F  
HETATM   29  C   UNL     1     -11.830  13.885  68.895  1.00  0.00    -0.393 A  
ENDBRANCH  21  23
ENDBRANCH  20  21
ENDBRANCH  19  20
ENDBRANCH  18  19
ENDBRANCH  15  18
ENDBRANCH  11  12
TORSDOF 6
ENDMDL
MODEL      258
REMARK 921   NORMALIZED FREE ENERGY PREDICTED BY IDOCK:   -1.46 KCAL/MOL
REMARK 922        TOTAL FREE ENERGY PREDICTED BY IDOCK:   -3.28 KCAL/MOL
REMARK 923 INTER-LIGAND FREE ENERGY PREDICTED BY IDOCK:   -3.43 KCAL/MOL
REMARK 924 INTRA-LIGAND FREE ENERGY PREDICTED BY IDOCK:    0.15 KCAL/MOL
REMARK 927      BINDING AFFINITY PREDICTED BY RF-SCORE:    0.00 PKD
ROOT
HETATM    1  O   UNL     1     -10.030  10.201  70.090  1.00  0.00    -0.377 OA 
HETATM    2  C   UNL     1      -9.316  10.008  69.005  1.00  0.00    -0.181 A  
HETATM    3  H   UNL     1      -9.807   9.795  70.920  1.00  0.00     0.000 HD 
HETATM    4  N   UNL     1      -9.621  10.564  67.867  1.00  0.00    -0.149 NA 
HETATM    5  C   UNL     1      -8.679  10.082  66.993  1.00  0.00    -0.132 A  
HETATM    6  C   UNL     1      -8.564  10.301  65.614  1.00  0.00    -0.170 A  
HETATM    7  C   UNL     1      -7.514   9.688  64.921  1.00  0.00    -0.118 A  
HETATM    8  C   UNL     1      -6.583   8.897  65.590  1.00  0.00    -0.064 A  
HETATM    9  C   UNL     1      -6.676   8.669  66.967  1.00  0.00    -0.062 A  
HETATM   10  C   UNL     1      -7.759   9.250  67.637  1.00  0.00    -0.092 A  
HETATM   11  N   UNL     1      -8.238   9.168  68.921  1.00  0.00    -0.110 NA 
ENDROOT
BRANCH  11  12
HETATM   12  C   UNL     1      -7.873   8.237  69.966  1.00  0.00    -0.104 C  
HETATM   13  C   UNL     1      -7.335   6.897  69.472  1.00  0.00    -0.091 C  
HETATM   14  C   UNL     1      -6.746   6.174  70.686  1.00  0.00    -0.053 C  
HETATM   15  N   UNL     1      -7.715   5.972  71.778  1.00  0.00    -0.100 NA 
HETATM   16  C   UNL     1      -8.366   7.229  72.181  1.00  0.00    -0.105 C  
HETATM   17  C   UNL     1      -8.968   8.004  71.012  1.00  0.00    -0.160 C  
BRANCH  15  18
HETATM   18  C   UNL     1      -8.694   4.909  71.511  1.00  0.00    -0.130 C  
BRANCH  18  19
HETATM   19  C   UNL     1      -8.692   4.454  70.049  1.00  0.00    -0.111 C  
BRANCH  19  20
HETATM   20  C   UNL     1      -9.525   3.188  69.841  1.00  0.00    -0.203 C  
BRANCH  20  21
HETATM   21  C   UNL     1      -9.326   2.611  68.457  1.00  0.00    -0.190 C  
HETATM   22  O   UNL     1      -9.735   1.499  68.130  1.00  0.00    -0.172 OA 
BRANCH  21  23
HETATM   23  C   UNL     1      -8.564   3.422  67.469  1.00  0.00    -0.117 A  
HETATM   24  C   UNL     1      -7.274   2.994  67.127  1.00  0.00    -0.058 A  
HETATM   25  C   UNL     1      -6.508   3.736  66.228  1.00  0.00    -0.037 A  
HETATM   26  C   UNL     1      -7.038   4.891  65.666  1.00  0.00    -0.067 A  
HETATM   27  C   UNL     1      -8.322   5.318  65.986  1.00  0.00    -0.118 A  
HETATM   28  F   UNL     1      -6.302   5.603  64.805  1.00  0.00    -0.032 F  
HETATM   29  C   UNL     1      -9.092   4.584  66.891  1.00  0.00    -0.130 A  
ENDBRANCH  21  23
ENDBRANCH  20  21
ENDBRANCH  19  20
ENDBRANCH  18  19
ENDBRANCH  15  18
ENDBRANCH  11  12
TORSDOF 6
ENDMDL
MODEL      259
REMARK 921   NORMALIZED FREE ENERGY PREDICTED BY IDOCK:   -0.97 KCAL/MOL
REMARK 922        TOTAL FREE ENERGY PREDICTED BY IDOCK:   -2.62 KCAL/MOL
REMARK 923 INTER-LIGAND FREE ENERGY PREDICTED BY IDOCK:   -3.38 KCAL/MOL
REMARK 924 INTRA-LIGAND FREE ENERGY PREDICTED BY IDOCK:    0.76 KCAL/MOL
REMARK 927      BINDING AFFINITY PREDICTED BY RF-SCORE:    0.00 PKD
ROOT
HETATM    1  O   UNL     1     -10.884   9.936  64.081  1.00  0.00     0.629 OA 
HETATM    2  C   UNL     1      -9.582  10.109  64.105  1.00  0.00    -0.272 A  
HETATM    3  H   UNL     1     -11.373   9.673  64.852  1.00  0.00     0.000 HD 
HETATM    4  N   UNL     1      -8.911  10.471  63.048  1.00  0.00    -0.216 NA 
HETATM    5  C   UNL     1      -7.606  10.492  63.468  1.00  0.00     0.036 A  
HETATM    6  C   UNL     1      -6.447  10.754  62.726  1.00  0.00     0.012 A  
HETATM    7  C   UNL     1      -5.207  10.707  63.375  1.00  0.00    -0.174 A  
HETATM    8  C   UNL     1      -5.126  10.435  64.739  1.00  0.00    -0.129 A  
HETATM    9  C   UNL     1      -6.271  10.176  65.500  1.00  0.00    -0.101 A  
HETATM   10  C   UNL     1      -7.498  10.179  64.826  1.00  0.00    -0.136 A  
HETATM   11  N   UNL     1      -8.785   9.870  65.192  1.00  0.00    -0.154 NA 
ENDROOT
BRANCH  11  12
HETATM   12  C   UNL     1      -9.251   9.206  66.389  1.00  0.00    -0.183 C  
HETATM   13  C   UNL     1     -10.719   9.446  66.727  1.00  0.00    -0.129 C  
HETATM   14  C   UNL     1     -11.095   8.456  67.832  1.00  0.00     0.387 C  
HETATM   15  N   UNL     1     -10.259   8.579  69.040  1.00  0.00    -0.204 NA 
HETATM   16  C   UNL     1      -8.822   8.500  68.731  1.00  0.00    -0.139 C  
HETATM   17  C   UNL     1      -8.384   9.459  67.627  1.00  0.00    -0.119 C  
BRANCH  15  18
HETATM   18  C   UNL     1     -10.579   9.753  69.863  1.00  0.00    -0.265 C  
BRANCH  18  19
HETATM   19  C   UNL     1     -10.549   9.453  71.365  1.00  0.00    -0.381 C  
BRANCH  19  20
HETATM   20  C   UNL     1      -9.338   8.604  71.755  1.00  0.00    -0.343 C  
BRANCH  20  21
HETATM   21  C   UNL     1      -9.741   7.408  72.588  1.00  0.00    -0.167 C  
HETATM   22  O   UNL     1     -10.264   7.509  73.695  1.00  0.00    -0.338 OA 
BRANCH  21  23
HETATM   23  C   UNL     1      -9.449   6.054  72.046  1.00  0.00    -0.161 A  
HETATM   24  C   UNL     1      -9.412   5.900  70.653  1.00  0.00    -0.199 A  
HETATM   25  C   UNL     1      -9.172   4.645  70.095  1.00  0.00    -0.188 A  
HETATM   26  C   UNL     1      -8.955   3.555  70.927  1.00  0.00    -0.096 A  
HETATM   27  C   UNL     1      -8.974   3.696  72.311  1.00  0.00    -0.133 A  
HETATM   28  F   UNL     1      -8.726   2.350  70.392  1.00  0.00    -0.079 F  
HETATM   29  C   UNL     1      -9.223   4.949  72.877  1.00  0.00    -0.141 A  
ENDBRANCH  21  23
ENDBRANCH  20  21
ENDBRANCH  19  20
ENDBRANCH  18  19
ENDBRANCH  15  18
ENDBRANCH  11  12
TORSDOF 6
ENDMDL
MODEL      260
REMARK 921   NORMALIZED FREE ENERGY PREDICTED BY IDOCK:   -0.94 KCAL/MOL
REMARK 922        TOTAL FREE ENERGY PREDICTED BY IDOCK:   -2.57 KCAL/MOL
REMARK 923 INTER-LIGAND FREE ENERGY PREDICTED BY IDOCK:   -1.52 KCAL/MOL
REMARK 924 INTRA-LIGAND FREE ENERGY PREDICTED BY IDOCK:   -1.05 KCAL/MOL
REMARK 927      BINDING AFFINITY PREDICTED BY RF-SCORE:    0.00 PKD
ROOT
HETATM    1  O   UNL     1     -11.257   3.009  72.466  1.00  0.00     0.312 OA 
HETATM    2  C   UNL     1     -11.305   4.321  72.438  1.00  0.00     0.493 A  
HETATM    3  H   UNL     1     -10.435   2.533  72.449  1.00  0.00     0.000 HD 
HETATM    4  N   UNL     1     -12.432   4.974  72.462  1.00  0.00     0.602 NA 
HETATM    5  C   UNL     1     -12.061   6.292  72.370  1.00  0.00    -0.140 A  
HETATM    6  C   UNL     1     -12.872   7.431  72.289  1.00  0.00     0.004 A  
HETATM    7  C   UNL     1     -12.260   8.686  72.189  1.00  0.00    -0.453 A  
HETATM    8  C   UNL     1     -10.873   8.807  72.199  1.00  0.00    -0.400 A  
HETATM    9  C   UNL     1     -10.044   7.683  72.285  1.00  0.00    -0.260 A  
HETATM   10  C   UNL     1     -10.671   6.432  72.335  1.00  0.00    -0.226 A  
HETATM   11  N   UNL     1     -10.213   5.138  72.312  1.00  0.00    -0.195 NA 
ENDROOT
BRANCH  11  12
HETATM   12  C   UNL     1      -8.889   4.651  71.993  1.00  0.00    -0.123 C  
HETATM   13  C   UNL     1      -7.793   5.092  72.958  1.00  0.00    -0.097 C  
HETATM   14  C   UNL     1      -6.547   4.264  72.632  1.00  0.00    -0.041 C  
HETATM   15  N   UNL     1      -6.096   4.405  71.236  1.00  0.00    -0.017 NA 
HETATM   16  C   UNL     1      -7.174   4.130  70.274  1.00  0.00    -0.042 C  
HETATM   17  C   UNL     1      -8.451   4.920  70.549  1.00  0.00    -0.104 C  
BRANCH  15  18
HETATM   18  C   UNL     1      -5.425   5.683  70.958  1.00  0.00    -0.009 C  
BRANCH  18  19
HETATM   19  C   UNL     1      -5.795   6.263  69.590  1.00  0.00    -0.018 C  
BRANCH  19  20
HETATM   20  C   UNL     1      -5.364   7.724  69.452  1.00  0.00    -0.023 C  
BRANCH  20  21
HETATM   21  C   UNL     1      -5.905   8.347  68.184  1.00  0.00    -0.038 C  
HETATM   22  O   UNL     1      -5.184   8.838  67.319  1.00  0.00    -0.033 OA 
BRANCH  21  23
HETATM   23  C   UNL     1      -7.382   8.396  68.011  1.00  0.00    -0.096 A  
HETATM   24  C   UNL     1      -7.882   8.684  66.733  1.00  0.00    -0.094 A  
HETATM   25  C   UNL     1      -9.258   8.771  66.525  1.00  0.00    -0.228 A  
HETATM   26  C   UNL     1     -10.127   8.556  67.587  1.00  0.00    -0.213 A  
HETATM   27  C   UNL     1      -9.644   8.255  68.856  1.00  0.00    -0.153 A  
HETATM   28  F   UNL     1     -11.447   8.641  67.387  1.00  0.00     0.199 F  
HETATM   29  C   UNL     1      -8.267   8.175  69.074  1.00  0.00    -0.127 A  
ENDBRANCH  21  23
ENDBRANCH  20  21
ENDBRANCH  19  20
ENDBRANCH  18  19
ENDBRANCH  15  18
ENDBRANCH  11  12
TORSDOF 6
ENDMDL
MODEL      261
REMARK 921   NORMALIZED FREE ENERGY PREDICTED BY IDOCK:    0.91 KCAL/MOL
REMARK 922        TOTAL FREE ENERGY PREDICTED BY IDOCK:   -0.08 KCAL/MOL
REMARK 923 INTER-LIGAND FREE ENERGY PREDICTED BY IDOCK:   -1.60 KCAL/MOL
REMARK 924 INTRA-LIGAND FREE ENERGY PREDICTED BY IDOCK:    1.52 KCAL/MOL
REMARK 927      BINDING AFFINITY PREDICTED BY RF-SCORE:    0.00 PKD
ROOT
HETATM    1  O   UNL     1      -9.865  10.010  70.512  1.00  0.00    -0.379 OA 
HETATM    2  C   UNL     1      -8.899  10.528  69.787  1.00  0.00     0.179 A  
HETATM    3  H   UNL     1      -9.929   9.076  70.674  1.00  0.00     0.000 HD 
HETATM    4  N   UNL     1      -8.811  11.809  69.565  1.00  0.00     0.904 NA 
HETATM    5  C   UNL     1      -7.720  11.934  68.743  1.00  0.00    -0.074 A  
HETATM    6  C   UNL     1      -7.199  13.086  68.140  1.00  0.00    -0.116 A  
HETATM    7  C   UNL     1      -6.069  12.966  67.322  1.00  0.00     0.008 A  
HETATM    8  C   UNL     1      -5.455  11.730  67.131  1.00  0.00    -0.118 A  
HETATM    9  C   UNL     1      -5.954  10.568  67.728  1.00  0.00    -0.044 A  
HETATM   10  C   UNL     1      -7.112  10.697  68.504  1.00  0.00    -0.069 A  
HETATM   11  N   UNL     1      -7.938   9.802  69.137  1.00  0.00    -0.097 NA 
ENDROOT
BRANCH  11  12
HETATM   12  C   UNL     1      -7.984   8.362  69.003  1.00  0.00    -0.111 C  
HETATM   13  C   UNL     1      -7.352   7.814  67.727  1.00  0.00    -0.095 C  
HETATM   14  C   UNL     1      -7.239   6.298  67.896  1.00  0.00    -0.087 C  
HETATM   15  N   UNL     1      -8.530   5.637  68.159  1.00  0.00    -0.099 NA 
HETATM   16  C   UNL     1      -9.239   6.240  69.299  1.00  0.00    -0.133 C  
HETATM   17  C   UNL     1      -9.378   7.756  69.195  1.00  0.00    -0.151 C  
BRANCH  15  18
HETATM   18  C   UNL     1      -9.391   5.528  66.972  1.00  0.00    -0.118 C  
BRANCH  18  19
HETATM   19  C   UNL     1      -8.944   6.442  65.828  1.00  0.00    -0.068 C  
BRANCH  19  20
HETATM   20  C   UNL     1      -7.980   5.737  64.874  1.00  0.00    -0.123 C  
BRANCH  20  21
HETATM   21  C   UNL     1      -8.089   4.232  64.982  1.00  0.00    -0.098 C  
HETATM   22  O   UNL     1      -7.275   3.544  65.593  1.00  0.00    -0.068 OA 
BRANCH  21  23
HETATM   23  C   UNL     1      -9.218   3.566  64.278  1.00  0.00    -0.131 A  
HETATM   24  C   UNL     1      -9.389   2.188  64.473  1.00  0.00    -0.130 A  
HETATM   25  C   UNL     1     -10.414   1.511  63.813  1.00  0.00    -0.022 A  
HETATM   26  C   UNL     1     -11.270   2.214  62.974  1.00  0.00    -0.222 A  
HETATM   27  C   UNL     1     -11.121   3.583  62.784  1.00  0.00     0.031 A  
HETATM   28  F   UNL     1     -12.252   1.564  62.340  1.00  0.00    -0.174 F  
HETATM   29  C   UNL     1     -10.091   4.266  63.436  1.00  0.00     0.004 A  
ENDBRANCH  21  23
ENDBRANCH  20  21
ENDBRANCH  19  20
ENDBRANCH  18  19
ENDBRANCH  15  18
ENDBRANCH  11  12
TORSDOF 6
ENDMDL
MODEL      262
REMARK 921   NORMALIZED FREE ENERGY PREDICTED BY IDOCK:    2.59 KCAL/MOL
REMARK 922        TOTAL FREE ENERGY PREDICTED BY IDOCK:    2.19 KCAL/MOL
REMARK 923 INTER-LIGAND FREE ENERGY PREDICTED BY IDOCK:   -1.86 KCAL/MOL
REMARK 924 INTRA-LIGAND FREE ENERGY PREDICTED BY IDOCK:    4.05 KCAL/MOL
REMARK 927      BINDING AFFINITY PREDICTED BY RF-SCORE:    0.00 PKD
ROOT
HETATM    1  O   UNL     1      -9.903   5.177  69.748  1.00  0.00    -0.172 OA 
HETATM    2  C   UNL     1      -9.623   4.472  68.675  1.00  0.00    -0.157 A  
HETATM    3  H   UNL     1     -10.096   6.106  69.706  1.00  0.00     0.000 HD 
HETATM    4  N   UNL     1      -9.359   3.197  68.733  1.00  0.00    -0.168 NA 
HETATM    5  C   UNL     1      -9.077   2.853  67.435  1.00  0.00    -0.179 A  
HETATM    6  C   UNL     1      -8.666   1.616  66.922  1.00  0.00    -0.124 A  
HETATM    7  C   UNL     1      -8.424   1.504  65.548  1.00  0.00    -0.097 A  
HETATM    8  C   UNL     1      -8.614   2.591  64.699  1.00  0.00    -0.092 A  
HETATM    9  C   UNL     1      -9.030   3.834  65.189  1.00  0.00    -0.132 A  
HETATM   10  C   UNL     1      -9.221   3.942  66.571  1.00  0.00    -0.166 A  
HETATM   11  N   UNL     1      -9.508   4.989  67.413  1.00  0.00    -0.130 NA 
ENDROOT
BRANCH  11  12
HETATM   12  C   UNL     1      -9.483   6.408  67.134  1.00  0.00    -0.129 C  
HETATM   13  C   UNL     1      -8.130   7.081  67.346  1.00  0.00    -0.116 C  
HETATM   14  C   UNL     1      -8.225   8.482  66.739  1.00  0.00    -0.105 C  
HETATM   15  N   UNL     1      -9.307   9.302  67.314  1.00  0.00    -0.129 NA 
HETATM   16  C   UNL     1     -10.609   8.618  67.260  1.00  0.00    -0.238 C  
HETATM   17  C   UNL     1     -10.580   7.208  67.845  1.00  0.00    -0.269 C  
BRANCH  15  18
HETATM   18  C   UNL     1      -9.010   9.811  68.661  1.00  0.00    -0.130 C  
BRANCH  18  19
HETATM   19  C   UNL     1      -9.236   8.764  69.755  1.00  0.00    -0.155 C  
BRANCH  19  20
HETATM   20  C   UNL     1      -8.696   9.226  71.110  1.00  0.00    -0.113 C  
BRANCH  20  21
HETATM   21  C   UNL     1      -7.356   9.913  70.971  1.00  0.00     0.440 C  
HETATM   22  O   UNL     1      -6.446   9.776  71.785  1.00  0.00    -0.302 OA 
BRANCH  21  23
HETATM   23  C   UNL     1      -7.160  10.825  69.812  1.00  0.00    -0.126 A  
HETATM   24  C   UNL     1      -6.088  10.564  68.947  1.00  0.00    -0.040 A  
HETATM   25  C   UNL     1      -5.844  11.406  67.863  1.00  0.00    -0.044 A  
HETATM   26  C   UNL     1      -6.678  12.494  67.640  1.00  0.00    -0.136 A  
HETATM   27  C   UNL     1      -7.754  12.756  68.481  1.00  0.00    -0.113 A  
HETATM   28  F   UNL     1      -6.442  13.303  66.600  1.00  0.00     0.480 F  
HETATM   29  C   UNL     1      -7.999  11.921  69.574  1.00  0.00     0.787 A  
ENDBRANCH  21  23
ENDBRANCH  20  21
ENDBRANCH  19  20
ENDBRANCH  18  19
ENDBRANCH  15  18
ENDBRANCH  11  12
TORSDOF 6
ENDMDL
MODEL      263
REMARK 921   NORMALIZED FREE ENERGY PREDICTED BY IDOCK:    4.38 KCAL/MOL
REMARK 922        TOTAL FREE ENERGY PREDICTED BY IDOCK:    4.61 KCAL/MOL
REMARK 923 INTER-LIGAND FREE ENERGY PREDICTED BY IDOCK:    5.19 KCAL/MOL
REMARK 924 INTRA-LIGAND FREE ENERGY PREDICTED BY IDOCK:   -0.58 KCAL/MOL
REMARK 927      BINDING AFFINITY PREDICTED BY RF-SCORE:    0.00 PKD
ROOT
HETATM    1  O   UNL     1      -5.131   9.974  68.531  1.00  0.00    -0.036 OA 
HETATM    2  C   UNL     1      -5.801   9.566  69.585  1.00  0.00    -0.033 A  
HETATM    3  H   UNL     1      -4.804  10.863  68.454  1.00  0.00     0.000 HD 
HETATM    4  N   UNL     1      -6.249   8.346  69.691  1.00  0.00    -0.035 NA 
HETATM    5  C   UNL     1      -6.920   8.337  70.887  1.00  0.00    -0.045 A  
HETATM    6  C   UNL     1      -7.653   7.299  71.477  1.00  0.00    -0.086 A  
HETATM    7  C   UNL     1      -8.268   7.528  72.713  1.00  0.00    -0.145 A  
HETATM    8  C   UNL     1      -8.133   8.753  73.362  1.00  0.00     0.277 A  
HETATM    9  C   UNL     1      -7.400   9.801  72.794  1.00  0.00     2.383 A  
HETATM   10  C   UNL     1      -6.832   9.572  71.535  1.00  0.00     0.244 A  
HETATM   11  N   UNL     1      -6.161  10.364  70.637  1.00  0.00    -0.184 NA 
ENDROOT
BRANCH  11  12
HETATM   12  C   UNL     1      -6.022  11.804  70.626  1.00  0.00     0.008 C  
HETATM   13  C   UNL     1      -6.339  12.490  71.951  1.00  0.00     3.071 C  
HETATM   14  C   UNL     1      -5.868  13.941  71.830  1.00  0.00     0.007 C  
HETATM   15  N   UNL     1      -6.488  14.670  70.709  1.00  0.00    -0.022 NA 
HETATM   16  C   UNL     1      -6.329  13.959  69.430  1.00  0.00    -0.110 C  
HETATM   17  C   UNL     1      -6.775  12.500  69.487  1.00  0.00     0.019 C  
BRANCH  15  18
HETATM   18  C   UNL     1      -7.886  15.053  70.954  1.00  0.00     1.988 C  
BRANCH  18  19
HETATM   19  C   UNL     1      -8.581  15.599  69.704  1.00  0.00    -0.079 C  
BRANCH  19  20
HETATM   20  C   UNL     1     -10.096  15.396  69.755  1.00  0.00    -0.266 C  
BRANCH  20  21
HETATM   21  C   UNL     1     -10.513  14.132  69.037  1.00  0.00    -0.183 C  
HETATM   22  O   UNL     1     -10.598  13.042  69.597  1.00  0.00     0.283 OA 
BRANCH  21  23
HETATM   23  C   UNL     1     -10.792  14.221  67.579  1.00  0.00    -0.284 A  
HETATM   24  C   UNL     1     -11.050  13.029  66.887  1.00  0.00    -0.306 A  
HETATM   25  C   UNL     1     -11.288  13.056  65.514  1.00  0.00    -0.330 A  
HETATM   26  C   UNL     1     -11.281  14.271  64.840  1.00  0.00    -0.379 A  
HETATM   27  C   UNL     1     -11.041  15.462  65.517  1.00  0.00    -0.301 A  
HETATM   28  F   UNL     1     -11.507  14.296  63.522  1.00  0.00     0.047 F  
HETATM   29  C   UNL     1     -10.794  15.442  66.891  1.00  0.00    -0.313 A  
ENDBRANCH  21  23
ENDBRANCH  20  21
ENDBRANCH  19  20
ENDBRANCH  18  19
ENDBRANCH  15  18
ENDBRANCH  11  12
TORSDOF 6
ENDMDL
MODEL      264
REMARK 921   NORMALIZED FREE ENERGY PREDICTED BY IDOCK:    6.93 KCAL/MOL
REMARK 922        TOTAL FREE ENERGY PREDICTED BY IDOCK:    8.06 KCAL/MOL
REMARK 923 INTER-LIGAND FREE ENERGY PREDICTED BY IDOCK:    6.17 KCAL/MOL
REMARK 924 INTRA-LIGAND FREE ENERGY PREDICTED BY IDOCK:    1.89 KCAL/MOL
REMARK 927      BINDING AFFINITY PREDICTED BY RF-SCORE:    0.00 PKD
ROOT
HETATM    1  O   UNL     1      -6.583  16.667  71.434  1.00  0.00     2.332 OA 
HETATM    2  C   UNL     1      -7.259  17.250  70.470  1.00  0.00     2.587 A  
HETATM    3  H   UNL     1      -6.259  15.777  71.356  1.00  0.00     0.000 HD 
HETATM    4  N   UNL     1      -7.703  18.471  70.576  1.00  0.00     2.486 NA 
HETATM    5  C   UNL     1      -8.384  18.685  69.405  1.00  0.00     0.346 A  
HETATM    6  C   UNL     1      -9.117  19.810  69.006  1.00  0.00    -0.135 A  
HETATM    7  C   UNL     1      -9.744  19.795  67.754  1.00  0.00    -0.495 A  
HETATM    8  C   UNL     1      -9.619  18.697  66.906  1.00  0.00    -0.324 A  
HETATM    9  C   UNL     1      -8.886  17.566  67.282  1.00  0.00    -0.235 A  
HETATM   10  C   UNL     1      -8.307  17.577  68.556  1.00  0.00    -0.274 A  
HETATM   11  N   UNL     1      -7.632  16.642  69.302  1.00  0.00    -0.194 NA 
ENDROOT
BRANCH  11  12
HETATM   12  C   UNL     1      -7.499  15.221  69.068  1.00  0.00    -0.163 C  
HETATM   13  C   UNL     1      -8.521  14.631  68.100  1.00  0.00    -0.156 C  
HETATM   14  C   UNL     1      -8.055  13.214  67.762  1.00  0.00    -0.165 C  
HETATM   15  N   UNL     1      -7.901  12.347  68.945  1.00  0.00     0.031 NA 
HETATM   16  C   UNL     1      -7.035  12.954  69.968  1.00  0.00     0.695 C  
HETATM   17  C   UNL     1      -7.443  14.376  70.345  1.00  0.00     0.852 C  
BRANCH  15  18
HETATM   18  C   UNL     1      -9.177  11.886  69.510  1.00  0.00     1.241 C  
BRANCH  18  19
HETATM   19  C   UNL     1      -9.992  11.042  68.525  1.00  0.00    -0.198 C  
BRANCH  19  20
HETATM   20  C   UNL     1      -9.679  11.397  67.071  1.00  0.00    -0.210 C  
BRANCH  20  21
HETATM   21  C   UNL     1     -10.939  11.512  66.242  1.00  0.00    -0.275 C  
HETATM   22  O   UNL     1     -11.693  10.563  66.035  1.00  0.00     0.732 OA 
BRANCH  21  23
HETATM   23  C   UNL     1     -11.246  12.829  65.622  1.00  0.00    -0.335 A  
HETATM   24  C   UNL     1     -10.368  13.892  65.875  1.00  0.00    -0.318 A  
HETATM   25  C   UNL     1     -10.627  15.154  65.342  1.00  0.00    -0.410 A  
HETATM   26  C   UNL     1     -11.752  15.345  64.549  1.00  0.00    -0.277 A  
HETATM   27  C   UNL     1     -12.623  14.296  64.278  1.00  0.00    -0.154 A  
HETATM   28  F   UNL     1     -12.001  16.557  64.039  1.00  0.00    -0.327 F  
HETATM   29  C   UNL     1     -12.374  13.031  64.815  1.00  0.00    -0.490 A  
ENDBRANCH  21  23
ENDBRANCH  20  21
ENDBRANCH  19  20
ENDBRANCH  18  19
ENDBRANCH  15  18
ENDBRANCH  11  12
TORSDOF 6
ENDMDL
MODEL      265
REMARK 921   NORMALIZED FREE ENERGY PREDICTED BY IDOCK:    7.37 KCAL/MOL
REMARK 922        TOTAL FREE ENERGY PREDICTED BY IDOCK:    8.65 KCAL/MOL
REMARK 923 INTER-LIGAND FREE ENERGY PREDICTED BY IDOCK:    8.76 KCAL/MOL
REMARK 924 INTRA-LIGAND FREE ENERGY PREDICTED BY IDOCK:   -0.12 KCAL/MOL
REMARK 927      BINDING AFFINITY PREDICTED BY RF-SCORE:    0.00 PKD
ROOT
HETATM    1  O   UNL     1      -8.107  11.064  64.045  1.00  0.00    -0.353 OA 
HETATM    2  C   UNL     1      -9.351  11.487  64.083  1.00  0.00    -0.001 A  
HETATM    3  H   UNL     1      -7.623  10.848  64.833  1.00  0.00     0.000 HD 
HETATM    4  N   UNL     1     -10.015  11.784  63.002  1.00  0.00    -0.346 NA 
HETATM    5  C   UNL     1     -11.230  12.223  63.463  1.00  0.00    -0.460 A  
HETATM    6  C   UNL     1     -12.317  12.729  62.738  1.00  0.00     0.607 A  
HETATM    7  C   UNL     1     -13.463  13.130  63.434  1.00  0.00     2.372 A  
HETATM    8  C   UNL     1     -13.537  13.004  64.819  1.00  0.00     1.420 A  
HETATM    9  C   UNL     1     -12.466  12.496  65.563  1.00  0.00    -0.228 A  
HETATM   10  C   UNL     1     -11.310  12.144  64.857  1.00  0.00    -0.326 A  
HETATM   11  N   UNL     1     -10.056  11.730  65.231  1.00  0.00    -0.254 NA 
ENDROOT
BRANCH  11  12
HETATM   12  C   UNL     1      -9.454  11.742  66.546  1.00  0.00    -0.214 C  
HETATM   13  C   UNL     1     -10.445  11.744  67.707  1.00  0.00    -0.219 C  
HETATM   14  C   UNL     1      -9.645  11.470  68.982  1.00  0.00     0.065 C  
HETATM   15  N   UNL     1      -8.565  12.445  69.221  1.00  0.00     0.697 NA 
HETATM   16  C   UNL     1      -7.671  12.578  68.060  1.00  0.00    -0.140 C  
HETATM   17  C   UNL     1      -8.410  12.845  66.751  1.00  0.00     0.033 C  
BRANCH  15  18
HETATM   18  C   UNL     1      -9.043  13.751  69.698  1.00  0.00     1.328 C  
BRANCH  18  19
HETATM   19  C   UNL     1      -7.987  14.511  70.506  1.00  0.00     1.595 C  
BRANCH  19  20
HETATM   20  C   UNL     1      -7.117  15.401  69.617  1.00  0.00    -0.180 C  
BRANCH  20  21
HETATM   21  C   UNL     1      -6.828  16.732  70.275  1.00  0.00     0.991 C  
HETATM   22  O   UNL     1      -6.878  16.903  71.491  1.00  0.00     3.623 OA 
BRANCH  21  23
HETATM   23  C   UNL     1      -6.510  17.887  69.393  1.00  0.00    -0.224 A  
HETATM   24  C   UNL     1      -6.793  19.174  69.872  1.00  0.00     0.014 A  
HETATM   25  C   UNL     1      -6.540  20.288  69.072  1.00  0.00    -0.281 A  
HETATM   26  C   UNL     1      -5.994  20.114  67.806  1.00  0.00    -0.210 A  
HETATM   27  C   UNL     1      -5.695  18.844  67.325  1.00  0.00    -0.162 A  
HETATM   28  F   UNL     1      -5.754  21.183  67.039  1.00  0.00    -0.219 F  
HETATM   29  C   UNL     1      -5.952  17.723  68.118  1.00  0.00    -0.165 A  
ENDBRANCH  21  23
ENDBRANCH  20  21
ENDBRANCH  19  20
ENDBRANCH  18  19
ENDBRANCH  15  18
ENDBRANCH  11  12
TORSDOF 6
ENDMDL
