MODEL        1
REMARK 921   NORMALIZED FREE ENERGY PREDICTED BY IDOCK:   -7.15 KCAL/MOL
REMARK 922        TOTAL FREE ENERGY PREDICTED BY IDOCK:   -9.69 KCAL/MOL
REMARK 923 INTER-LIGAND FREE ENERGY PREDICTED BY IDOCK:   -9.24 KCAL/MOL
REMARK 924 INTRA-LIGAND FREE ENERGY PREDICTED BY IDOCK:   -0.45 KCAL/MOL
REMARK 927      BINDING AFFINITY PREDICTED BY RF-SCORE:    0.00 PKD
ROOT
HETATM    1  N   UNL     1     -13.644  13.363  72.402  1.00  0.00    -0.593 NA 
HETATM    2  H1  UNL     1     -13.708  12.605  71.722  1.00  0.00     0.000 HD 
HETATM    3  CA  UNL     1     -13.633  14.693  71.729  1.00  0.00    -0.394 C  
HETATM    4  H2  UNL     1     -14.384  13.303  73.101  1.00  0.00     0.000 HD 
ENDROOT
BRANCH   3   5
HETATM    5  C   UNL     1     -13.537  15.833  72.751  1.00  0.00    -0.580 C  
HETATM    6  H   UNL     1     -12.670  16.129  74.492  1.00  0.00     0.000 HD 
HETATM    7  O   UNL     1     -12.730  15.424  73.859  1.00  0.00    -0.536 OA 
ENDBRANCH   3   5
BRANCH   3   8
HETATM    8  C   UNL     1     -12.489  14.774  70.715  1.00  0.00    -0.337 C  
HETATM    9  O   UNL     1     -12.031  15.829  70.277  1.00  0.00    -0.357 OA 
HETATM   10  H   UNL     1     -12.463  12.678  70.672  1.00  0.00     0.000 HD 
HETATM   11  N   UNL     1     -12.052  13.527  70.284  1.00  0.00    -0.353 N  
BRANCH  11  12
HETATM   12  N   UNL     1     -11.040  13.443  69.308  1.00  0.00    -0.403 NA 
HETATM   13  H   UNL     1     -10.219  12.953  69.663  1.00  0.00     0.000 HD 
BRANCH  12  14
HETATM   14  C   UNL     1     -11.541  12.828  68.066  1.00  0.00    -0.341 C  
BRANCH  14  15
HETATM   15  C   UNL     1     -11.527  13.799  66.905  1.00  0.00    -0.368 A  
HETATM   16  C   UNL     1     -12.032  13.494  65.633  1.00  0.00    -0.397 A  
HETATM   17  O   UNL     1     -12.604  12.284  65.319  1.00  0.00    -0.583 OA 
HETATM   18  C   UNL     1     -11.981  14.433  64.605  1.00  0.00    -0.464 A  
HETATM   19  H   UNL     1     -12.946  12.077  64.458  1.00  0.00     0.000 HD 
HETATM   20  C   UNL     1     -11.408  15.677  64.814  1.00  0.00    -0.343 A  
HETATM   21  O   UNL     1     -12.511  14.140  63.375  1.00  0.00    -1.122 OA 
HETATM   22  H   UNL     1     -12.476  14.780  62.674  1.00  0.00     0.000 HD 
HETATM   23  C   UNL     1     -10.870  15.999  66.049  1.00  0.00    -0.190 A  
HETATM   24  O   UNL     1     -11.367  16.591  63.800  1.00  0.00    -1.553 OA 
HETATM   25  H   UNL     1     -10.974  17.444  63.943  1.00  0.00     0.000 HD 
HETATM   26  C   UNL     1     -10.927  15.062  67.090  1.00  0.00    -0.329 A  
ENDBRANCH  14  15
ENDBRANCH  12  14
ENDBRANCH  11  12
ENDBRANCH   3   8
TORSDOF 5
ENDMDL
MODEL        2
REMARK 921   NORMALIZED FREE ENERGY PREDICTED BY IDOCK:   -7.04 KCAL/MOL
REMARK 922        TOTAL FREE ENERGY PREDICTED BY IDOCK:   -9.55 KCAL/MOL
REMARK 923 INTER-LIGAND FREE ENERGY PREDICTED BY IDOCK:   -8.79 KCAL/MOL
REMARK 924 INTRA-LIGAND FREE ENERGY PREDICTED BY IDOCK:   -0.76 KCAL/MOL
REMARK 927      BINDING AFFINITY PREDICTED BY RF-SCORE:    0.00 PKD
ROOT
HETATM    1  N   UNL     1     -12.405  14.159  63.181  1.00  0.00    -1.046 NA 
HETATM    2  H1  UNL     1     -12.673  13.225  62.867  1.00  0.00     0.000 HD 
HETATM    3  CA  UNL     1     -11.517  14.093  64.376  1.00  0.00    -0.332 C  
HETATM    4  H2  UNL     1     -11.980  14.700  62.427  1.00  0.00     0.000 HD 
ENDROOT
BRANCH   3   5
HETATM    5  C   UNL     1     -11.114  15.496  64.848  1.00  0.00    -0.416 C  
HETATM    6  H   UNL     1     -11.523  17.352  64.341  1.00  0.00     0.000 HD 
HETATM    7  O   UNL     1     -11.773  16.484  64.049  1.00  0.00    -1.111 OA 
ENDBRANCH   3   5
BRANCH   3   8
HETATM    8  C   UNL     1     -12.194  13.313  65.507  1.00  0.00    -0.457 C  
HETATM    9  O   UNL     1     -13.324  13.555  65.929  1.00  0.00    -0.216 OA 
HETATM   10  H   UNL     1     -10.446  12.168  65.678  1.00  0.00     0.000 HD 
HETATM   11  N   UNL     1     -11.378  12.333  66.059  1.00  0.00    -0.334 N  
BRANCH  11  12
HETATM   12  N   UNL     1     -11.844  11.569  67.147  1.00  0.00    -0.572 NA 
HETATM   13  H   UNL     1     -11.889  10.577  66.915  1.00  0.00     0.000 HD 
BRANCH  12  14
HETATM   14  C   UNL     1     -11.035  11.805  68.356  1.00  0.00    -0.231 C  
BRANCH  14  15
HETATM   15  C   UNL     1     -11.855  12.396  69.483  1.00  0.00    -0.368 A  
HETATM   16  C   UNL     1     -12.260  13.738  69.526  1.00  0.00    -0.293 A  
HETATM   17  O   UNL     1     -11.961  14.647  68.539  1.00  0.00    -0.454 OA 
HETATM   18  C   UNL     1     -13.009  14.219  70.597  1.00  0.00    -0.257 A  
HETATM   19  H   UNL     1     -12.236  15.556  68.568  1.00  0.00     0.000 HD 
HETATM   20  C   UNL     1     -13.347  13.387  71.652  1.00  0.00    -0.338 A  
HETATM   21  O   UNL     1     -13.432  15.522  70.613  1.00  0.00    -0.779 OA 
HETATM   22  H   UNL     1     -13.943  15.851  71.344  1.00  0.00     0.000 HD 
HETATM   23  C   UNL     1     -12.935  12.064  71.656  1.00  0.00    -0.439 A  
HETATM   24  O   UNL     1     -14.085  13.868  72.695  1.00  0.00    -0.679 OA 
HETATM   25  H   UNL     1     -14.317  13.297  73.419  1.00  0.00     0.000 HD 
HETATM   26  C   UNL     1     -12.190  11.571  70.577  1.00  0.00    -0.469 A  
ENDBRANCH  14  15
ENDBRANCH  12  14
ENDBRANCH  11  12
ENDBRANCH   3   8
TORSDOF 5
ENDMDL
MODEL        3
REMARK 921   NORMALIZED FREE ENERGY PREDICTED BY IDOCK:   -6.80 KCAL/MOL
REMARK 922        TOTAL FREE ENERGY PREDICTED BY IDOCK:   -9.24 KCAL/MOL
REMARK 923 INTER-LIGAND FREE ENERGY PREDICTED BY IDOCK:   -8.73 KCAL/MOL
REMARK 924 INTRA-LIGAND FREE ENERGY PREDICTED BY IDOCK:   -0.51 KCAL/MOL
REMARK 927      BINDING AFFINITY PREDICTED BY RF-SCORE:    0.00 PKD
ROOT
HETATM    1  N   UNL     1     -12.471  13.830  63.347  1.00  0.00    -1.072 NA 
HETATM    2  H1  UNL     1     -12.756  12.852  63.287  1.00  0.00     0.000 HD 
HETATM    3  CA  UNL     1     -11.423  14.024  64.389  1.00  0.00    -0.344 C  
HETATM    4  H2  UNL     1     -12.169  14.189  62.440  1.00  0.00     0.000 HD 
ENDROOT
BRANCH   3   5
HETATM    5  C   UNL     1     -10.994  15.494  64.479  1.00  0.00    -0.206 C  
HETATM    6  H   UNL     1     -11.689  17.231  63.871  1.00  0.00     0.000 HD 
HETATM    7  O   UNL     1     -11.954  16.321  63.815  1.00  0.00    -0.973 OA 
ENDBRANCH   3   5
BRANCH   3   8
HETATM    8  C   UNL     1     -11.914  13.516  65.747  1.00  0.00    -0.403 C  
HETATM    9  O   UNL     1     -12.472  12.433  65.916  1.00  0.00    -0.583 OA 
HETATM   10  H   UNL     1     -11.259  15.323  66.587  1.00  0.00     0.000 HD 
HETATM   11  N   UNL     1     -11.724  14.434  66.774  1.00  0.00    -0.386 N  
BRANCH  11  12
HETATM   12  N   UNL     1     -12.177  14.130  68.073  1.00  0.00    -0.561 NA 
HETATM   13  H   UNL     1     -12.546  13.181  68.127  1.00  0.00     0.000 HD 
BRANCH  12  14
HETATM   14  C   UNL     1     -11.121  14.358  69.076  1.00  0.00    -0.261 C  
BRANCH  14  15
HETATM   15  C   UNL     1     -11.693  14.610  70.455  1.00  0.00    -0.345 A  
HETATM   16  C   UNL     1     -12.512  13.696  71.134  1.00  0.00    -0.359 A  
HETATM   17  O   UNL     1     -12.866  12.472  70.616  1.00  0.00    -0.097 OA 
HETATM   18  C   UNL     1     -13.012  13.993  72.400  1.00  0.00    -0.381 A  
HETATM   19  H   UNL     1     -13.421  11.853  71.075  1.00  0.00     0.000 HD 
HETATM   20  C   UNL     1     -12.727  15.209  73.001  1.00  0.00    -0.450 A  
HETATM   21  O   UNL     1     -13.781  13.080  73.071  1.00  0.00    -0.600 OA 
HETATM   22  H   UNL     1     -14.121  13.282  73.935  1.00  0.00     0.000 HD 
HETATM   23  C   UNL     1     -11.948  16.147  72.346  1.00  0.00    -0.649 A  
HETATM   24  O   UNL     1     -13.219  15.489  74.245  1.00  0.00    -0.596 OA 
HETATM   25  H   UNL     1     -13.024  16.322  74.658  1.00  0.00     0.000 HD 
HETATM   26  C   UNL     1     -11.435  15.850  71.076  1.00  0.00    -0.461 A  
ENDBRANCH  14  15
ENDBRANCH  12  14
ENDBRANCH  11  12
ENDBRANCH   3   8
TORSDOF 5
ENDMDL
MODEL        4
REMARK 921   NORMALIZED FREE ENERGY PREDICTED BY IDOCK:   -6.76 KCAL/MOL
REMARK 922        TOTAL FREE ENERGY PREDICTED BY IDOCK:   -9.18 KCAL/MOL
REMARK 923 INTER-LIGAND FREE ENERGY PREDICTED BY IDOCK:   -8.75 KCAL/MOL
REMARK 924 INTRA-LIGAND FREE ENERGY PREDICTED BY IDOCK:   -0.43 KCAL/MOL
REMARK 927      BINDING AFFINITY PREDICTED BY RF-SCORE:    0.00 PKD
ROOT
HETATM    1  N   UNL     1     -12.235  13.931  63.347  1.00  0.00    -1.102 NA 
HETATM    2  H1  UNL     1     -12.430  12.933  63.253  1.00  0.00     0.000 HD 
HETATM    3  CA  UNL     1     -11.349  14.201  64.514  1.00  0.00    -0.348 C  
HETATM    4  H2  UNL     1     -11.850  14.319  62.485  1.00  0.00     0.000 HD 
ENDROOT
BRANCH   3   5
HETATM    5  C   UNL     1     -11.056  15.701  64.654  1.00  0.00    -0.373 C  
HETATM    6  H   UNL     1     -11.709  17.372  63.846  1.00  0.00     0.000 HD 
HETATM    7  O   UNL     1     -11.890  16.444  63.760  1.00  0.00    -1.002 OA 
ENDBRANCH   3   5
BRANCH   3   8
HETATM    8  C   UNL     1     -11.969  13.646  65.800  1.00  0.00    -0.395 C  
HETATM    9  O   UNL     1     -12.507  12.543  65.883  1.00  0.00    -0.596 OA 
HETATM   10  H   UNL     1     -11.466  15.449  66.745  1.00  0.00     0.000 HD 
HETATM   11  N   UNL     1     -11.920  14.543  66.860  1.00  0.00    -0.391 N  
BRANCH  11  12
HETATM   12  N   UNL     1     -12.501  14.194  68.096  1.00  0.00    -0.470 NA 
HETATM   13  H   UNL     1     -13.244  13.506  67.978  1.00  0.00     0.000 HD 
BRANCH  12  14
HETATM   14  C   UNL     1     -11.483  13.731  69.056  1.00  0.00    -0.305 C  
BRANCH  14  15
HETATM   15  C   UNL     1     -12.017  12.654  69.976  1.00  0.00    -0.377 A  
HETATM   16  C   UNL     1     -11.896  11.281  69.715  1.00  0.00    -0.364 A  
HETATM   17  O   UNL     1     -11.266  10.779  68.600  1.00  0.00    -0.235 OA 
HETATM   18  C   UNL     1     -12.417  10.341  70.601  1.00  0.00    -0.318 A  
HETATM   19  H   UNL     1     -11.184   9.849  68.424  1.00  0.00     0.000 HD 
HETATM   20  C   UNL     1     -13.086  10.746  71.745  1.00  0.00    -0.468 A  
HETATM   21  O   UNL     1     -12.262   9.002  70.357  1.00  0.00    -0.474 OA 
HETATM   22  H   UNL     1     -12.617   8.361  70.962  1.00  0.00     0.000 HD 
HETATM   23  C   UNL     1     -13.252  12.094  72.017  1.00  0.00    -0.496 A  
HETATM   24  O   UNL     1     -13.589   9.816  72.609  1.00  0.00    -0.665 OA 
HETATM   25  H   UNL     1     -14.048  10.093  73.394  1.00  0.00     0.000 HD 
HETATM   26  C   UNL     1     -12.721  13.044  71.134  1.00  0.00    -0.372 A  
ENDBRANCH  14  15
ENDBRANCH  12  14
ENDBRANCH  11  12
ENDBRANCH   3   8
TORSDOF 5
ENDMDL
MODEL        5
REMARK 921   NORMALIZED FREE ENERGY PREDICTED BY IDOCK:   -6.72 KCAL/MOL
REMARK 922        TOTAL FREE ENERGY PREDICTED BY IDOCK:   -9.14 KCAL/MOL
REMARK 923 INTER-LIGAND FREE ENERGY PREDICTED BY IDOCK:   -8.80 KCAL/MOL
REMARK 924 INTRA-LIGAND FREE ENERGY PREDICTED BY IDOCK:   -0.33 KCAL/MOL
REMARK 927      BINDING AFFINITY PREDICTED BY RF-SCORE:    0.00 PKD
ROOT
HETATM    1  N   UNL     1     -13.826  14.231  72.747  1.00  0.00    -0.626 NA 
HETATM    2  H1  UNL     1     -14.496  13.710  72.180  1.00  0.00     0.000 HD 
HETATM    3  CA  UNL     1     -12.950  15.088  71.898  1.00  0.00    -0.345 C  
HETATM    4  H2  UNL     1     -14.294  14.775  73.473  1.00  0.00     0.000 HD 
ENDROOT
BRANCH   3   5
HETATM    5  C   UNL     1     -11.944  15.871  72.751  1.00  0.00    -0.511 C  
HETATM    6  H   UNL     1     -11.934  16.754  74.509  1.00  0.00     0.000 HD 
HETATM    7  O   UNL     1     -12.557  16.269  73.981  1.00  0.00    -0.590 OA 
ENDBRANCH   3   5
BRANCH   3   8
HETATM    8  C   UNL     1     -12.228  14.242  70.845  1.00  0.00    -0.355 C  
HETATM    9  O   UNL     1     -12.507  13.071  70.595  1.00  0.00    -0.331 OA 
HETATM   10  H   UNL     1     -10.977  15.885  70.477  1.00  0.00     0.000 HD 
HETATM   11  N   UNL     1     -11.175  14.913  70.236  1.00  0.00    -0.250 N  
BRANCH  11  12
HETATM   12  N   UNL     1     -10.381  14.244  69.283  1.00  0.00    -0.419 NA 
HETATM   13  H   UNL     1     -10.869  13.441  68.888  1.00  0.00     0.000 HD 
BRANCH  12  14
HETATM   14  C   UNL     1      -9.914  15.165  68.231  1.00  0.00    -0.223 C  
BRANCH  14  15
HETATM   15  C   UNL     1     -10.575  14.887  66.898  1.00  0.00    -0.300 A  
HETATM   16  C   UNL     1     -10.769  15.863  65.910  1.00  0.00    -0.296 A  
HETATM   17  O   UNL     1     -10.364  17.169  66.052  1.00  0.00    -0.347 OA 
HETATM   18  C   UNL     1     -11.391  15.541  64.706  1.00  0.00    -0.357 A  
HETATM   19  H   UNL     1     -10.495  17.831  65.382  1.00  0.00     0.000 HD 
HETATM   20  C   UNL     1     -11.852  14.255  64.472  1.00  0.00    -0.442 A  
HETATM   21  O   UNL     1     -11.543  16.492  63.731  1.00  0.00    -1.617 OA 
HETATM   22  H   UNL     1     -11.967  16.272  62.909  1.00  0.00     0.000 HD 
HETATM   23  C   UNL     1     -11.705  13.275  65.439  1.00  0.00    -0.370 A  
HETATM   24  O   UNL     1     -12.457  13.949  63.286  1.00  0.00    -1.113 OA 
HETATM   25  H   UNL     1     -12.773  13.068  63.126  1.00  0.00     0.000 HD 
HETATM   26  C   UNL     1     -11.072  13.590  66.649  1.00  0.00    -0.309 A  
ENDBRANCH  14  15
ENDBRANCH  12  14
ENDBRANCH  11  12
ENDBRANCH   3   8
TORSDOF 5
ENDMDL
MODEL        6
REMARK 921   NORMALIZED FREE ENERGY PREDICTED BY IDOCK:   -6.71 KCAL/MOL
REMARK 922        TOTAL FREE ENERGY PREDICTED BY IDOCK:   -9.12 KCAL/MOL
REMARK 923 INTER-LIGAND FREE ENERGY PREDICTED BY IDOCK:   -8.65 KCAL/MOL
REMARK 924 INTRA-LIGAND FREE ENERGY PREDICTED BY IDOCK:   -0.46 KCAL/MOL
REMARK 927      BINDING AFFINITY PREDICTED BY RF-SCORE:    0.00 PKD
ROOT
HETATM    1  N   UNL     1     -12.392  14.109  63.265  1.00  0.00    -1.133 NA 
HETATM    2  H1  UNL     1     -12.545  13.128  63.029  1.00  0.00     0.000 HD 
HETATM    3  CA  UNL     1     -11.484  14.246  64.440  1.00  0.00    -0.310 C  
HETATM    4  H2  UNL     1     -12.050  14.639  62.463  1.00  0.00     0.000 HD 
ENDROOT
BRANCH   3   5
HETATM    5  C   UNL     1     -11.253  15.720  64.795  1.00  0.00    -0.366 C  
HETATM    6  H   UNL     1     -11.639  17.470  63.982  1.00  0.00     0.000 HD 
HETATM    7  O   UNL     1     -11.783  16.557  63.762  1.00  0.00    -1.086 OA 
ENDBRANCH   3   5
BRANCH   3   8
HETATM    8  C   UNL     1     -12.040  13.478  65.642  1.00  0.00    -0.430 C  
HETATM    9  O   UNL     1     -13.001  13.852  66.312  1.00  0.00    -0.219 OA 
HETATM   10  H   UNL     1     -10.516  12.065  65.363  1.00  0.00     0.000 HD 
HETATM   11  N   UNL     1     -11.309  12.336  65.945  1.00  0.00    -0.344 N  
BRANCH  11  12
HETATM   12  N   UNL     1     -11.668  11.554  67.061  1.00  0.00    -0.550 NA 
HETATM   13  H   UNL     1     -11.665  10.559  66.837  1.00  0.00     0.000 HD 
BRANCH  12  14
HETATM   14  C   UNL     1     -10.809  11.849  68.222  1.00  0.00    -0.224 C  
BRANCH  14  15
HETATM   15  C   UNL     1     -11.618  12.209  69.451  1.00  0.00    -0.381 A  
HETATM   16  C   UNL     1     -12.209  11.259  70.295  1.00  0.00    -0.345 A  
HETATM   17  O   UNL     1     -12.100   9.903  70.096  1.00  0.00    -0.449 OA 
HETATM   18  C   UNL     1     -12.948  11.658  71.407  1.00  0.00    -0.324 A  
HETATM   19  H   UNL     1     -12.500   9.259  70.669  1.00  0.00     0.000 HD 
HETATM   20  C   UNL     1     -13.132  13.003  71.684  1.00  0.00    -0.347 A  
HETATM   21  O   UNL     1     -13.491  10.723  72.248  1.00  0.00    -0.600 OA 
HETATM   22  H   UNL     1     -13.994  10.995  73.006  1.00  0.00     0.000 HD 
HETATM   23  C   UNL     1     -12.589  13.968  70.852  1.00  0.00    -0.431 A  
HETATM   24  O   UNL     1     -13.854  13.384  72.779  1.00  0.00    -0.720 OA 
HETATM   25  H   UNL     1     -13.981  14.306  72.970  1.00  0.00     0.000 HD 
HETATM   26  C   UNL     1     -11.837  13.573  69.738  1.00  0.00    -0.395 A  
ENDBRANCH  14  15
ENDBRANCH  12  14
ENDBRANCH  11  12
ENDBRANCH   3   8
TORSDOF 5
ENDMDL
MODEL        7
REMARK 921   NORMALIZED FREE ENERGY PREDICTED BY IDOCK:   -6.57 KCAL/MOL
REMARK 922        TOTAL FREE ENERGY PREDICTED BY IDOCK:   -8.94 KCAL/MOL
REMARK 923 INTER-LIGAND FREE ENERGY PREDICTED BY IDOCK:   -8.46 KCAL/MOL
REMARK 924 INTRA-LIGAND FREE ENERGY PREDICTED BY IDOCK:   -0.48 KCAL/MOL
REMARK 927      BINDING AFFINITY PREDICTED BY RF-SCORE:    0.00 PKD
ROOT
HETATM    1  N   UNL     1     -13.056   8.900  71.109  1.00  0.00    -0.524 NA 
HETATM    2  H1  UNL     1     -13.964   9.326  71.299  1.00  0.00     0.000 HD 
HETATM    3  CA  UNL     1     -11.947   9.872  71.327  1.00  0.00    -0.402 C  
HETATM    4  H2  UNL     1     -12.921   8.048  71.654  1.00  0.00     0.000 HD 
ENDROOT
BRANCH   3   5
HETATM    5  C   UNL     1     -10.582   9.232  71.042  1.00  0.00    -0.316 C  
HETATM    6  H   UNL     1      -9.259   8.171  72.039  1.00  0.00     0.000 HD 
HETATM    7  O   UNL     1     -10.104   8.568  72.215  1.00  0.00    -0.293 OA 
ENDBRANCH   3   5
BRANCH   3   8
HETATM    8  C   UNL     1     -12.151  11.122  70.467  1.00  0.00    -0.381 C  
HETATM    9  O   UNL     1     -12.509  12.212  70.911  1.00  0.00    -0.368 OA 
HETATM   10  H   UNL     1     -11.657   9.969  68.786  1.00  0.00     0.000 HD 
HETATM   11  N   UNL     1     -11.951  10.890  69.111  1.00  0.00    -0.324 N  
BRANCH  11  12
HETATM   12  N   UNL     1     -12.156  11.935  68.188  1.00  0.00    -0.486 NA 
HETATM   13  H   UNL     1     -12.787  12.644  68.560  1.00  0.00     0.000 HD 
BRANCH  12  14
HETATM   14  C   UNL     1     -10.877  12.524  67.751  1.00  0.00    -0.225 C  
BRANCH  14  15
HETATM   15  C   UNL     1     -11.074  13.587  66.691  1.00  0.00    -0.309 A  
HETATM   16  C   UNL     1     -11.676  13.340  65.449  1.00  0.00    -0.343 A  
HETATM   17  O   UNL     1     -12.161  12.108  65.078  1.00  0.00    -0.355 OA 
HETATM   18  C   UNL     1     -11.820  14.362  64.514  1.00  0.00    -0.449 A  
HETATM   19  H   UNL     1     -12.569  11.941  64.237  1.00  0.00     0.000 HD 
HETATM   20  C   UNL     1     -11.348  15.637  64.785  1.00  0.00    -0.343 A  
HETATM   21  O   UNL     1     -12.443  14.122  63.318  1.00  0.00    -1.146 OA 
HETATM   22  H   UNL     1     -12.542  14.819  62.680  1.00  0.00     0.000 HD 
HETATM   23  C   UNL     1     -10.719  15.907  65.988  1.00  0.00    -0.289 A  
HETATM   24  O   UNL     1     -11.498  16.633  63.862  1.00  0.00    -1.604 OA 
HETATM   25  H   UNL     1     -11.174  17.507  64.048  1.00  0.00     0.000 HD 
HETATM   26  C   UNL     1     -10.580  14.885  66.937  1.00  0.00    -0.300 A  
ENDBRANCH  14  15
ENDBRANCH  12  14
ENDBRANCH  11  12
ENDBRANCH   3   8
TORSDOF 5
ENDMDL
MODEL        8
REMARK 921   NORMALIZED FREE ENERGY PREDICTED BY IDOCK:   -6.52 KCAL/MOL
REMARK 922        TOTAL FREE ENERGY PREDICTED BY IDOCK:   -8.87 KCAL/MOL
REMARK 923 INTER-LIGAND FREE ENERGY PREDICTED BY IDOCK:   -8.40 KCAL/MOL
REMARK 924 INTRA-LIGAND FREE ENERGY PREDICTED BY IDOCK:   -0.47 KCAL/MOL
REMARK 927      BINDING AFFINITY PREDICTED BY RF-SCORE:    0.00 PKD
ROOT
HETATM    1  N   UNL     1     -12.410  13.988  63.239  1.00  0.00    -1.145 NA 
HETATM    2  H1  UNL     1     -13.298  14.424  63.487  1.00  0.00     0.000 HD 
HETATM    3  CA  UNL     1     -11.819  13.265  64.401  1.00  0.00    -0.399 C  
HETATM    4  H2  UNL     1     -12.506  13.377  62.427  1.00  0.00     0.000 HD 
ENDROOT
BRANCH   3   5
HETATM    5  C   UNL     1     -10.483  12.610  64.028  1.00  0.00    -0.416 C  
HETATM    6  H   UNL     1      -9.712  10.800  64.070  1.00  0.00     0.000 HD 
HETATM    7  O   UNL     1     -10.539  11.206  64.300  1.00  0.00    -0.340 OA 
ENDBRANCH   3   5
BRANCH   3   8
HETATM    8  C   UNL     1     -11.645  14.213  65.592  1.00  0.00    -0.339 C  
HETATM    9  O   UNL     1     -10.989  15.253  65.553  1.00  0.00    -0.336 OA 
HETATM   10  H   UNL     1     -12.786  12.878  66.738  1.00  0.00     0.000 HD 
HETATM   11  N   UNL     1     -12.254  13.749  66.751  1.00  0.00    -0.420 N  
BRANCH  11  12
HETATM   12  N   UNL     1     -12.134  14.488  67.945  1.00  0.00    -0.596 NA 
HETATM   13  H   UNL     1     -12.937  15.098  68.090  1.00  0.00     0.000 HD 
BRANCH  12  14
HETATM   14  C   UNL     1     -11.911  13.604  69.104  1.00  0.00    -0.348 C  
BRANCH  14  15
HETATM   15  C   UNL     1     -12.267  14.279  70.411  1.00  0.00    -0.411 A  
HETATM   16  C   UNL     1     -11.701  15.489  70.837  1.00  0.00    -0.375 A  
HETATM   17  O   UNL     1     -10.775  16.190  70.100  1.00  0.00    -0.321 OA 
HETATM   18  C   UNL     1     -12.068  16.055  72.056  1.00  0.00    -0.525 A  
HETATM   19  H   UNL     1     -10.392  17.009  70.389  1.00  0.00     0.000 HD 
HETATM   20  C   UNL     1     -12.981  15.418  72.882  1.00  0.00    -0.470 A  
HETATM   21  O   UNL     1     -11.539  17.256  72.448  1.00  0.00    -0.139 OA 
HETATM   22  H   UNL     1     -11.790  17.641  73.280  1.00  0.00     0.000 HD 
HETATM   23  C   UNL     1     -13.535  14.205  72.506  1.00  0.00    -0.634 A  
HETATM   24  O   UNL     1     -13.337  15.982  74.073  1.00  0.00    -0.880 OA 
HETATM   25  H   UNL     1     -13.964  15.546  74.639  1.00  0.00     0.000 HD 
HETATM   26  C   UNL     1     -13.176  13.636  71.276  1.00  0.00    -0.308 A  
ENDBRANCH  14  15
ENDBRANCH  12  14
ENDBRANCH  11  12
ENDBRANCH   3   8
TORSDOF 5
ENDMDL
MODEL        9
REMARK 921   NORMALIZED FREE ENERGY PREDICTED BY IDOCK:   -6.43 KCAL/MOL
REMARK 922        TOTAL FREE ENERGY PREDICTED BY IDOCK:   -8.76 KCAL/MOL
REMARK 923 INTER-LIGAND FREE ENERGY PREDICTED BY IDOCK:   -8.29 KCAL/MOL
REMARK 924 INTRA-LIGAND FREE ENERGY PREDICTED BY IDOCK:   -0.47 KCAL/MOL
REMARK 927      BINDING AFFINITY PREDICTED BY RF-SCORE:    0.00 PKD
ROOT
HETATM    1  N   UNL     1     -12.410  14.048  63.389  1.00  0.00    -1.154 NA 
HETATM    2  H1  UNL     1     -12.694  13.076  63.262  1.00  0.00     0.000 HD 
HETATM    3  CA  UNL     1     -11.412  14.181  64.488  1.00  0.00    -0.372 C  
HETATM    4  H2  UNL     1     -12.066  14.454  62.518  1.00  0.00     0.000 HD 
ENDROOT
BRANCH   3   5
HETATM    5  C   UNL     1     -10.984  15.642  64.678  1.00  0.00    -0.325 C  
HETATM    6  H   UNL     1     -11.507  17.395  63.955  1.00  0.00     0.000 HD 
HETATM    7  O   UNL     1     -11.772  16.491  63.837  1.00  0.00    -1.148 OA 
ENDBRANCH   3   5
BRANCH   3   8
HETATM    8  C   UNL     1     -11.968  13.603  65.792  1.00  0.00    -0.395 C  
HETATM    9  O   UNL     1     -12.492  12.494  65.884  1.00  0.00    -0.596 OA 
HETATM   10  H   UNL     1     -11.440  15.399  66.738  1.00  0.00     0.000 HD 
HETATM   11  N   UNL     1     -11.880  14.487  66.861  1.00  0.00    -0.395 N  
BRANCH  11  12
HETATM   12  N   UNL     1     -12.402  14.115  68.116  1.00  0.00    -0.538 NA 
HETATM   13  H   UNL     1     -13.143  13.422  68.023  1.00  0.00     0.000 HD 
BRANCH  12  14
HETATM   14  C   UNL     1     -11.338  13.649  69.024  1.00  0.00    -0.287 C  
BRANCH  14  15
HETATM   15  C   UNL     1     -11.643  12.286  69.606  1.00  0.00    -0.348 A  
HETATM   16  C   UNL     1     -12.461  12.087  70.728  1.00  0.00    -0.279 A  
HETATM   17  O   UNL     1     -13.077  13.115  71.402  1.00  0.00    -0.337 OA 
HETATM   18  C   UNL     1     -12.696  10.805  71.217  1.00  0.00    -0.441 A  
HETATM   19  H   UNL     1     -13.631  12.981  72.162  1.00  0.00     0.000 HD 
HETATM   20  C   UNL     1     -12.107   9.703  70.618  1.00  0.00    -0.194 A  
HETATM   21  O   UNL     1     -13.526  10.617  72.291  1.00  0.00    -0.594 OA 
HETATM   22  H   UNL     1     -13.687   9.742  72.625  1.00  0.00     0.000 HD 
HETATM   23  C   UNL     1     -11.268   9.866  69.528  1.00  0.00    -0.220 A  
HETATM   24  O   UNL     1     -12.347   8.449  71.104  1.00  0.00    -0.381 OA 
HETATM   25  H   UNL     1     -11.943   7.693  70.693  1.00  0.00     0.000 HD 
HETATM   26  C   UNL     1     -11.035  11.153  69.026  1.00  0.00    -0.286 A  
ENDBRANCH  14  15
ENDBRANCH  12  14
ENDBRANCH  11  12
ENDBRANCH   3   8
TORSDOF 5
ENDMDL
MODEL       10
REMARK 921   NORMALIZED FREE ENERGY PREDICTED BY IDOCK:   -6.42 KCAL/MOL
REMARK 922        TOTAL FREE ENERGY PREDICTED BY IDOCK:   -8.74 KCAL/MOL
REMARK 923 INTER-LIGAND FREE ENERGY PREDICTED BY IDOCK:   -8.31 KCAL/MOL
REMARK 924 INTRA-LIGAND FREE ENERGY PREDICTED BY IDOCK:   -0.43 KCAL/MOL
REMARK 927      BINDING AFFINITY PREDICTED BY RF-SCORE:    0.00 PKD
ROOT
HETATM    1  N   UNL     1     -12.436  14.083  62.905  1.00  0.00    -0.794 NA 
HETATM    2  H1  UNL     1     -12.518  13.184  62.429  1.00  0.00     0.000 HD 
HETATM    3  CA  UNL     1     -11.593  13.972  64.129  1.00  0.00    -0.266 C  
HETATM    4  H2  UNL     1     -12.091  14.809  62.277  1.00  0.00     0.000 HD 
ENDROOT
BRANCH   3   5
HETATM    5  C   UNL     1     -11.470  15.323  64.845  1.00  0.00    -0.343 C  
HETATM    6  H   UNL     1     -11.695  17.220  64.375  1.00  0.00     0.000 HD 
HETATM    7  O   UNL     1     -11.771  16.384  63.933  1.00  0.00    -1.085 OA 
ENDBRANCH   3   5
BRANCH   3   8
HETATM    8  C   UNL     1     -12.155  12.906  65.074  1.00  0.00    -0.435 C  
HETATM    9  O   UNL     1     -13.133  12.204  64.816  1.00  0.00    -0.602 OA 
HETATM   10  H   UNL     1     -10.683  13.452  66.463  1.00  0.00     0.000 HD 
HETATM   11  N   UNL     1     -11.487  12.849  66.291  1.00  0.00    -0.330 N  
BRANCH  11  12
HETATM   12  N   UNL     1     -11.926  11.952  67.286  1.00  0.00    -0.599 NA 
HETATM   13  H   UNL     1     -11.813  10.983  66.992  1.00  0.00     0.000 HD 
BRANCH  12  14
HETATM   14  C   UNL     1     -11.256  12.209  68.574  1.00  0.00    -0.260 C  
BRANCH  14  15
HETATM   15  C   UNL     1     -11.830  11.364  69.691  1.00  0.00    -0.431 A  
HETATM   16  C   UNL     1     -11.777   9.963  69.709  1.00  0.00    -0.021 A  
HETATM   17  O   UNL     1     -11.184   9.218  68.716  1.00  0.00    -0.453 OA 
HETATM   18  C   UNL     1     -12.331   9.245  70.766  1.00  0.00    -0.087 A  
HETATM   19  H   UNL     1     -11.148   8.269  68.728  1.00  0.00     0.000 HD 
HETATM   20  C   UNL     1     -12.967   9.901  71.807  1.00  0.00    -0.449 A  
HETATM   21  O   UNL     1     -12.242   7.878  70.794  1.00  0.00    -0.488 OA 
HETATM   22  H   UNL     1     -12.620   7.388  71.515  1.00  0.00     0.000 HD 
HETATM   23  C   UNL     1     -13.065  11.283  71.805  1.00  0.00    -0.527 A  
HETATM   24  O   UNL     1     -13.503   9.188  72.841  1.00  0.00    -0.763 OA 
HETATM   25  H   UNL     1     -13.939   9.638  73.555  1.00  0.00     0.000 HD 
HETATM   26  C   UNL     1     -12.501  12.011  70.749  1.00  0.00    -0.372 A  
ENDBRANCH  14  15
ENDBRANCH  12  14
ENDBRANCH  11  12
ENDBRANCH   3   8
TORSDOF 5
ENDMDL
MODEL       11
REMARK 921   NORMALIZED FREE ENERGY PREDICTED BY IDOCK:   -6.39 KCAL/MOL
REMARK 922        TOTAL FREE ENERGY PREDICTED BY IDOCK:   -8.71 KCAL/MOL
REMARK 923 INTER-LIGAND FREE ENERGY PREDICTED BY IDOCK:   -8.38 KCAL/MOL
REMARK 924 INTRA-LIGAND FREE ENERGY PREDICTED BY IDOCK:   -0.33 KCAL/MOL
REMARK 927      BINDING AFFINITY PREDICTED BY RF-SCORE:    0.00 PKD
ROOT
HETATM    1  N   UNL     1      -7.246  21.232  67.127  1.00  0.00    -0.777 NA 
HETATM    2  H1  UNL     1      -7.721  21.031  66.246  1.00  0.00     0.000 HD 
HETATM    3  CA  UNL     1      -6.977  19.981  67.893  1.00  0.00    -0.275 C  
HETATM    4  H2  UNL     1      -6.393  21.772  66.979  1.00  0.00     0.000 HD 
ENDROOT
BRANCH   3   5
HETATM    5  C   UNL     1      -6.264  20.283  69.217  1.00  0.00    -0.321 C  
HETATM    6  H   UNL     1      -5.479  19.245  70.693  1.00  0.00     0.000 HD 
HETATM    7  O   UNL     1      -5.920  19.058  69.873  1.00  0.00    -0.249 OA 
ENDBRANCH   3   5
BRANCH   3   8
HETATM    8  C   UNL     1      -8.277  19.211  68.139  1.00  0.00    -0.318 C  
HETATM    9  O   UNL     1      -9.142  19.560  68.941  1.00  0.00    -0.367 OA 
HETATM   10  H   UNL     1      -7.616  17.780  66.755  1.00  0.00     0.000 HD 
HETATM   11  N   UNL     1      -8.359  18.032  67.407  1.00  0.00    -0.230 N  
BRANCH  11  12
HETATM   12  N   UNL     1      -9.475  17.187  67.570  1.00  0.00    -0.245 NA 
HETATM   13  H   UNL     1      -9.976  17.392  68.434  1.00  0.00     0.000 HD 
BRANCH  12  14
HETATM   14  C   UNL     1     -10.369  17.247  66.400  1.00  0.00    -0.316 C  
BRANCH  14  15
HETATM   15  C   UNL     1     -10.953  15.892  66.061  1.00  0.00    -0.139 A  
HETATM   16  C   UNL     1     -11.487  15.570  64.804  1.00  0.00    -0.313 A  
HETATM   17  O   UNL     1     -11.518  16.453  63.751  1.00  0.00    -1.590 OA 
HETATM   18  C   UNL     1     -12.015  14.305  64.560  1.00  0.00    -0.462 A  
HETATM   19  H   UNL     1     -11.879  16.236  62.900  1.00  0.00     0.000 HD 
HETATM   20  C   UNL     1     -12.046  13.349  65.562  1.00  0.00    -0.428 A  
HETATM   21  O   UNL     1     -12.500  13.987  63.319  1.00  0.00    -1.139 OA 
HETATM   22  H   UNL     1     -12.861  13.124  63.152  1.00  0.00     0.000 HD 
HETATM   23  C   UNL     1     -11.557  13.644  66.824  1.00  0.00    -0.393 A  
HETATM   24  O   UNL     1     -12.563  12.110  65.311  1.00  0.00    -0.494 OA 
HETATM   25  H   UNL     1     -12.585  11.454  65.998  1.00  0.00     0.000 HD 
HETATM   26  C   UNL     1     -11.015  14.912  67.073  1.00  0.00    -0.327 A  
ENDBRANCH  14  15
ENDBRANCH  12  14
ENDBRANCH  11  12
ENDBRANCH   3   8
TORSDOF 5
ENDMDL
MODEL       12
REMARK 921   NORMALIZED FREE ENERGY PREDICTED BY IDOCK:   -6.36 KCAL/MOL
REMARK 922        TOTAL FREE ENERGY PREDICTED BY IDOCK:   -8.66 KCAL/MOL
REMARK 923 INTER-LIGAND FREE ENERGY PREDICTED BY IDOCK:   -8.17 KCAL/MOL
REMARK 924 INTRA-LIGAND FREE ENERGY PREDICTED BY IDOCK:   -0.49 KCAL/MOL
REMARK 927      BINDING AFFINITY PREDICTED BY RF-SCORE:    0.00 PKD
ROOT
HETATM    1  N   UNL     1      -9.615  12.421  64.611  1.00  0.00    -0.473 NA 
HETATM    2  H1  UNL     1      -9.045  12.772  65.382  1.00  0.00     0.000 HD 
HETATM    3  CA  UNL     1     -10.868  13.214  64.462  1.00  0.00    -0.383 C  
HETATM    4  H2  UNL     1      -9.086  12.388  63.739  1.00  0.00     0.000 HD 
ENDROOT
BRANCH   3   5
HETATM    5  C   UNL     1     -11.725  12.688  63.303  1.00  0.00    -0.393 C  
HETATM    6  H   UNL     1     -13.257  13.326  62.246  1.00  0.00     0.000 HD 
HETATM    7  O   UNL     1     -12.727  13.652  62.963  1.00  0.00    -0.681 OA 
ENDBRANCH   3   5
BRANCH   3   8
HETATM    8  C   UNL     1     -11.664  13.213  65.770  1.00  0.00    -0.374 C  
HETATM    9  O   UNL     1     -12.396  12.292  66.129  1.00  0.00    -0.588 OA 
HETATM   10  H   UNL     1     -10.913  15.133  66.154  1.00  0.00     0.000 HD 
HETATM   11  N   UNL     1     -11.529  14.394  66.491  1.00  0.00    -0.351 N  
BRANCH  11  12
HETATM   12  N   UNL     1     -12.247  14.562  67.692  1.00  0.00    -0.614 NA 
HETATM   13  H   UNL     1     -13.075  13.969  67.719  1.00  0.00     0.000 HD 
BRANCH  12  14
HETATM   14  C   UNL     1     -11.385  14.341  68.868  1.00  0.00    -0.274 C  
BRANCH  14  15
HETATM   15  C   UNL     1     -11.974  13.322  69.820  1.00  0.00    -0.391 A  
HETATM   16  C   UNL     1     -12.773  13.662  70.922  1.00  0.00    -0.310 A  
HETATM   17  O   UNL     1     -13.112  14.957  71.236  1.00  0.00    -0.332 OA 
HETATM   18  C   UNL     1     -13.279  12.674  71.764  1.00  0.00    -0.359 A  
HETATM   19  H   UNL     1     -13.653  15.187  71.982  1.00  0.00     0.000 HD 
HETATM   20  C   UNL     1     -12.980  11.339  71.543  1.00  0.00    -0.415 A  
HETATM   21  O   UNL     1     -14.089  13.012  72.816  1.00  0.00    -0.737 OA 
HETATM   22  H   UNL     1     -14.434  12.338  73.390  1.00  0.00     0.000 HD 
HETATM   23  C   UNL     1     -12.168  10.972  70.483  1.00  0.00    -0.472 A  
HETATM   24  O   UNL     1     -13.485  10.378  72.372  1.00  0.00    -0.612 OA 
HETATM   25  H   UNL     1     -13.280   9.463  72.221  1.00  0.00     0.000 HD 
HETATM   26  C   UNL     1     -11.664  11.960  69.627  1.00  0.00    -0.413 A  
ENDBRANCH  14  15
ENDBRANCH  12  14
ENDBRANCH  11  12
ENDBRANCH   3   8
TORSDOF 5
ENDMDL
MODEL       13
REMARK 921   NORMALIZED FREE ENERGY PREDICTED BY IDOCK:   -6.31 KCAL/MOL
REMARK 922        TOTAL FREE ENERGY PREDICTED BY IDOCK:   -8.60 KCAL/MOL
REMARK 923 INTER-LIGAND FREE ENERGY PREDICTED BY IDOCK:   -8.17 KCAL/MOL
REMARK 924 INTRA-LIGAND FREE ENERGY PREDICTED BY IDOCK:   -0.43 KCAL/MOL
REMARK 927      BINDING AFFINITY PREDICTED BY RF-SCORE:    0.00 PKD
ROOT
HETATM    1  N   UNL     1     -11.668  16.151  63.881  1.00  0.00    -1.452 NA 
HETATM    2  H1  UNL     1     -12.008  17.004  64.327  1.00  0.00     0.000 HD 
HETATM    3  CA  UNL     1     -11.997  14.947  64.695  1.00  0.00    -0.401 C  
HETATM    4  H2  UNL     1     -12.014  16.065  62.925  1.00  0.00     0.000 HD 
ENDROOT
BRANCH   3   5
HETATM    5  C   UNL     1     -11.485  13.665  64.024  1.00  0.00    -0.271 C  
HETATM    6  H   UNL     1     -12.202  12.302  62.800  1.00  0.00     0.000 HD 
HETATM    7  O   UNL     1     -12.519  13.095  63.215  1.00  0.00    -0.720 OA 
ENDBRANCH   3   5
BRANCH   3   8
HETATM    8  C   UNL     1     -11.430  15.083  66.110  1.00  0.00    -0.222 C  
HETATM    9  O   UNL     1     -10.496  15.827  66.409  1.00  0.00    -0.290 OA 
HETATM   10  H   UNL     1     -12.806  13.629  66.733  1.00  0.00     0.000 HD 
HETATM   11  N   UNL     1     -12.037  14.231  67.025  1.00  0.00    -0.428 N  
BRANCH  11  12
HETATM   12  N   UNL     1     -11.583  14.203  68.359  1.00  0.00    -0.299 NA 
HETATM   13  H   UNL     1     -12.331  14.430  69.013  1.00  0.00     0.000 HD 
BRANCH  12  14
HETATM   14  C   UNL     1     -10.952  12.911  68.685  1.00  0.00    -0.261 C  
BRANCH  14  15
HETATM   15  C   UNL     1     -11.726  12.152  69.743  1.00  0.00    -0.381 A  
HETATM   16  C   UNL     1     -12.413  12.773  70.795  1.00  0.00    -0.271 A  
HETATM   17  O   UNL     1     -12.463  14.137  70.962  1.00  0.00    -0.323 OA 
HETATM   18  C   UNL     1     -13.100  12.015  71.740  1.00  0.00    -0.355 A  
HETATM   19  H   UNL     1     -12.929  14.558  71.675  1.00  0.00     0.000 HD 
HETATM   20  C   UNL     1     -13.096  10.631  71.670  1.00  0.00    -0.450 A  
HETATM   21  O   UNL     1     -13.800  12.630  72.744  1.00  0.00    -0.653 OA 
HETATM   22  H   UNL     1     -14.269  12.113  73.388  1.00  0.00     0.000 HD 
HETATM   23  C   UNL     1     -12.400   9.984  70.662  1.00  0.00    -0.342 A  
HETATM   24  O   UNL     1     -13.777   9.896  72.599  1.00  0.00    -0.657 OA 
HETATM   25  H   UNL     1     -13.774   8.947  72.552  1.00  0.00     0.000 HD 
HETATM   26  C   UNL     1     -11.715  10.742  69.703  1.00  0.00    -0.395 A  
ENDBRANCH  14  15
ENDBRANCH  12  14
ENDBRANCH  11  12
ENDBRANCH   3   8
TORSDOF 5
ENDMDL
MODEL       14
REMARK 921   NORMALIZED FREE ENERGY PREDICTED BY IDOCK:   -6.29 KCAL/MOL
REMARK 922        TOTAL FREE ENERGY PREDICTED BY IDOCK:   -8.58 KCAL/MOL
REMARK 923 INTER-LIGAND FREE ENERGY PREDICTED BY IDOCK:   -8.07 KCAL/MOL
REMARK 924 INTRA-LIGAND FREE ENERGY PREDICTED BY IDOCK:   -0.51 KCAL/MOL
REMARK 927      BINDING AFFINITY PREDICTED BY RF-SCORE:    0.00 PKD
ROOT
HETATM    1  N   UNL     1     -12.865   8.375  71.009  1.00  0.00    -0.503 NA 
HETATM    2  H1  UNL     1     -13.492   8.869  71.644  1.00  0.00     0.000 HD 
HETATM    3  CA  UNL     1     -11.621   9.158  70.760  1.00  0.00    -0.276 C  
HETATM    4  H2  UNL     1     -12.656   7.435  71.345  1.00  0.00     0.000 HD 
ENDROOT
BRANCH   3   5
HETATM    5  C   UNL     1     -10.678   8.415  69.805  1.00  0.00    -0.211 C  
HETATM    6  H   UNL     1      -8.853   7.685  69.871  1.00  0.00     0.000 HD 
HETATM    7  O   UNL     1      -9.436   8.144  70.462  1.00  0.00    -0.161 OA 
ENDBRANCH   3   5
BRANCH   3   8
HETATM    8  C   UNL     1     -11.960  10.549  70.217  1.00  0.00    -0.325 C  
HETATM    9  O   UNL     1     -12.452  11.450  70.894  1.00  0.00    -0.370 OA 
HETATM   10  H   UNL     1     -11.308   9.901  68.332  1.00  0.00     0.000 HD 
HETATM   11  N   UNL     1     -11.715  10.677  68.855  1.00  0.00    -0.254 N  
BRANCH  11  12
HETATM   12  N   UNL     1     -12.030  11.885  68.201  1.00  0.00    -0.528 NA 
HETATM   13  H   UNL     1     -12.734  12.415  68.713  1.00  0.00     0.000 HD 
BRANCH  12  14
HETATM   14  C   UNL     1     -10.821  12.692  67.953  1.00  0.00    -0.219 C  
BRANCH  14  15
HETATM   15  C   UNL     1     -11.021  13.681  66.824  1.00  0.00    -0.297 A  
HETATM   16  C   UNL     1     -11.759  13.398  65.666  1.00  0.00    -0.346 A  
HETATM   17  O   UNL     1     -12.387  12.194  65.449  1.00  0.00    -0.533 OA 
HETATM   18  C   UNL     1     -11.898  14.352  64.661  1.00  0.00    -0.451 A  
HETATM   19  H   UNL     1     -12.887  12.002  64.664  1.00  0.00     0.000 HD 
HETATM   20  C   UNL     1     -11.288  15.591  64.777  1.00  0.00    -0.357 A  
HETATM   21  O   UNL     1     -12.651  14.081  63.550  1.00  0.00    -0.989 OA 
HETATM   22  H   UNL     1     -12.747  14.732  62.865  1.00  0.00     0.000 HD 
HETATM   23  C   UNL     1     -10.525  15.892  65.893  1.00  0.00    -0.373 A  
HETATM   24  O   UNL     1     -11.434  16.521  63.788  1.00  0.00    -1.615 OA 
HETATM   25  H   UNL     1     -11.016  17.371  63.867  1.00  0.00     0.000 HD 
HETATM   26  C   UNL     1     -10.390  14.940  66.912  1.00  0.00    -0.264 A  
ENDBRANCH  14  15
ENDBRANCH  12  14
ENDBRANCH  11  12
ENDBRANCH   3   8
TORSDOF 5
ENDMDL
MODEL       15
REMARK 921   NORMALIZED FREE ENERGY PREDICTED BY IDOCK:   -6.29 KCAL/MOL
REMARK 922        TOTAL FREE ENERGY PREDICTED BY IDOCK:   -8.58 KCAL/MOL
REMARK 923 INTER-LIGAND FREE ENERGY PREDICTED BY IDOCK:   -8.09 KCAL/MOL
REMARK 924 INTRA-LIGAND FREE ENERGY PREDICTED BY IDOCK:   -0.48 KCAL/MOL
REMARK 927      BINDING AFFINITY PREDICTED BY RF-SCORE:    0.00 PKD
ROOT
HETATM    1  N   UNL     1     -11.591  16.283  63.842  1.00  0.00    -1.573 NA 
HETATM    2  H1  UNL     1     -11.979  15.534  63.268  1.00  0.00     0.000 HD 
HETATM    3  CA  UNL     1     -10.720  15.740  64.923  1.00  0.00    -0.361 C  
HETATM    4  H2  UNL     1     -11.099  16.974  63.275  1.00  0.00     0.000 HD 
ENDROOT
BRANCH   3   5
HETATM    5  C   UNL     1     -10.137  16.867  65.786  1.00  0.00    -0.229 C  
HETATM    6  H   UNL     1      -8.402  17.290  66.610  1.00  0.00     0.000 HD 
HETATM    7  O   UNL     1      -8.762  16.593  66.076  1.00  0.00    -0.433 OA 
ENDBRANCH   3   5
BRANCH   3   8
HETATM    8  C   UNL     1     -11.493  14.739  65.785  1.00  0.00    -0.322 C  
HETATM    9  O   UNL     1     -12.051  13.736  65.342  1.00  0.00    -0.362 OA 
HETATM   10  H   UNL     1     -11.082  15.951  67.447  1.00  0.00     0.000 HD 
HETATM   11  N   UNL     1     -11.557  15.108  67.124  1.00  0.00    -0.264 N  
BRANCH  11  12
HETATM   12  N   UNL     1     -12.284  14.312  68.032  1.00  0.00    -0.584 NA 
HETATM   13  H   UNL     1     -12.504  13.399  67.635  1.00  0.00     0.000 HD 
BRANCH  12  14
HETATM   14  C   UNL     1     -11.578  14.186  69.320  1.00  0.00    -0.304 C  
BRANCH  14  15
HETATM   15  C   UNL     1     -12.059  12.993  70.118  1.00  0.00    -0.377 A  
HETATM   16  C   UNL     1     -11.890  11.665  69.704  1.00  0.00    -0.352 A  
HETATM   17  O   UNL     1     -11.255  11.315  68.535  1.00  0.00    -0.208 OA 
HETATM   18  C   UNL     1     -12.363  10.612  70.483  1.00  0.00    -0.359 A  
HETATM   19  H   UNL     1     -11.140  10.414  68.254  1.00  0.00     0.000 HD 
HETATM   20  C   UNL     1     -13.032  10.860  71.671  1.00  0.00    -0.464 A  
HETATM   21  O   UNL     1     -12.160   9.315  70.089  1.00  0.00    -0.459 OA 
HETATM   22  H   UNL     1     -12.483   8.597  70.622  1.00  0.00     0.000 HD 
HETATM   23  C   UNL     1     -13.245  12.162  72.093  1.00  0.00    -0.438 A  
HETATM   24  O   UNL     1     -13.489   9.820  72.430  1.00  0.00    -0.593 OA 
HETATM   25  H   UNL     1     -13.947   9.990  73.244  1.00  0.00     0.000 HD 
HETATM   26  C   UNL     1     -12.762  13.225  71.318  1.00  0.00    -0.411 A  
ENDBRANCH  14  15
ENDBRANCH  12  14
ENDBRANCH  11  12
ENDBRANCH   3   8
TORSDOF 5
ENDMDL
MODEL       16
REMARK 921   NORMALIZED FREE ENERGY PREDICTED BY IDOCK:   -6.24 KCAL/MOL
REMARK 922        TOTAL FREE ENERGY PREDICTED BY IDOCK:   -8.51 KCAL/MOL
REMARK 923 INTER-LIGAND FREE ENERGY PREDICTED BY IDOCK:   -7.82 KCAL/MOL
REMARK 924 INTRA-LIGAND FREE ENERGY PREDICTED BY IDOCK:   -0.69 KCAL/MOL
REMARK 927      BINDING AFFINITY PREDICTED BY RF-SCORE:    0.00 PKD
ROOT
HETATM    1  N   UNL     1     -12.336  14.649  64.004  1.00  0.00    -0.999 NA 
HETATM    2  H1  UNL     1     -12.581  15.375  64.679  1.00  0.00     0.000 HD 
HETATM    3  CA  UNL     1     -12.650  13.291  64.533  1.00  0.00    -0.251 C  
HETATM    4  H2  UNL     1     -12.783  14.812  63.101  1.00  0.00     0.000 HD 
ENDROOT
BRANCH   3   5
HETATM    5  C   UNL     1     -12.282  12.201  63.518  1.00  0.00    -0.567 C  
HETATM    6  H   UNL     1     -10.634  11.368  62.841  1.00  0.00     0.000 HD 
HETATM    7  O   UNL     1     -10.861  12.043  63.469  1.00  0.00    -0.395 OA 
ENDBRANCH   3   5
BRANCH   3   8
HETATM    8  C   UNL     1     -11.935  13.056  65.866  1.00  0.00    -0.435 C  
HETATM    9  O   UNL     1     -12.053  12.031  66.538  1.00  0.00    -0.617 OA 
HETATM   10  H   UNL     1     -11.116  14.978  65.694  1.00  0.00     0.000 HD 
HETATM   11  N   UNL     1     -11.182  14.147  66.282  1.00  0.00    -0.322 N  
BRANCH  11  12
HETATM   12  N   UNL     1     -10.510  14.099  67.520  1.00  0.00    -0.248 NA 
HETATM   13  H   UNL     1      -9.498  14.114  67.397  1.00  0.00     0.000 HD 
BRANCH  12  14
HETATM   14  C   UNL     1     -10.962  15.178  68.418  1.00  0.00    -0.271 C  
BRANCH  14  15
HETATM   15  C   UNL     1     -11.812  14.653  69.555  1.00  0.00    -0.374 A  
HETATM   16  C   UNL     1     -11.850  13.304  69.935  1.00  0.00    -0.310 A  
HETATM   17  O   UNL     1     -11.105  12.326  69.319  1.00  0.00    -0.348 OA 
HETATM   18  C   UNL     1     -12.661  12.885  70.987  1.00  0.00    -0.287 A  
HETATM   19  H   UNL     1     -11.130  11.412  69.577  1.00  0.00     0.000 HD 
HETATM   20  C   UNL     1     -13.464  13.791  71.662  1.00  0.00    -0.333 A  
HETATM   21  O   UNL     1     -12.664  11.572  71.377  1.00  0.00    -0.397 OA 
HETATM   22  H   UNL     1     -13.217  11.286  72.095  1.00  0.00     0.000 HD 
HETATM   23  C   UNL     1     -13.475  15.125  71.290  1.00  0.00    -0.559 A  
HETATM   24  O   UNL     1     -14.252  13.370  72.695  1.00  0.00    -0.747 OA 
HETATM   25  H   UNL     1     -14.803  13.992  73.157  1.00  0.00     0.000 HD 
HETATM   26  C   UNL     1     -12.654  15.554  70.239  1.00  0.00    -0.362 A  
ENDBRANCH  14  15
ENDBRANCH  12  14
ENDBRANCH  11  12
ENDBRANCH   3   8
TORSDOF 5
ENDMDL
MODEL       17
REMARK 921   NORMALIZED FREE ENERGY PREDICTED BY IDOCK:   -6.20 KCAL/MOL
REMARK 922        TOTAL FREE ENERGY PREDICTED BY IDOCK:   -8.46 KCAL/MOL
REMARK 923 INTER-LIGAND FREE ENERGY PREDICTED BY IDOCK:   -8.02 KCAL/MOL
REMARK 924 INTRA-LIGAND FREE ENERGY PREDICTED BY IDOCK:   -0.44 KCAL/MOL
REMARK 927      BINDING AFFINITY PREDICTED BY RF-SCORE:    0.00 PKD
ROOT
HETATM    1  N   UNL     1     -12.440  13.928  63.233  1.00  0.00    -1.112 NA 
HETATM    2  H1  UNL     1     -13.050  14.668  63.581  1.00  0.00     0.000 HD 
HETATM    3  CA  UNL     1     -12.447  12.748  64.144  1.00  0.00    -0.369 C  
HETATM    4  H2  UNL     1     -12.679  13.665  62.277  1.00  0.00     0.000 HD 
ENDROOT
BRANCH   3   5
HETATM    5  C   UNL     1     -11.530  11.635  63.621  1.00  0.00    -0.363 C  
HETATM    6  H   UNL     1      -9.627  11.443  63.161  1.00  0.00     0.000 HD 
HETATM    7  O   UNL     1     -10.194  12.131  63.485  1.00  0.00    -0.423 OA 
ENDBRANCH   3   5
BRANCH   3   8
HETATM    8  C   UNL     1     -12.044  13.162  65.563  1.00  0.00    -0.442 C  
HETATM    9  O   UNL     1     -12.261  12.482  66.565  1.00  0.00    -0.569 OA 
HETATM   10  H   UNL     1     -11.303  14.952  64.761  1.00  0.00     0.000 HD 
HETATM   11  N   UNL     1     -11.460  14.422  65.618  1.00  0.00    -0.331 N  
BRANCH  11  12
HETATM   12  N   UNL     1     -11.087  14.962  66.865  1.00  0.00    -0.332 NA 
HETATM   13  H   UNL     1     -11.138  14.263  67.606  1.00  0.00     0.000 HD 
BRANCH  12  14
HETATM   14  C   UNL     1      -9.753  15.586  66.802  1.00  0.00    -0.239 C  
BRANCH  14  15
HETATM   15  C   UNL     1      -9.827  17.096  66.888  1.00  0.00    -0.285 A  
HETATM   16  C   UNL     1     -10.448  17.898  65.920  1.00  0.00    -0.253 A  
HETATM   17  O   UNL     1     -11.065  17.388  64.802  1.00  0.00    -0.973 OA 
HETATM   18  C   UNL     1     -10.475  19.284  66.057  1.00  0.00    -0.487 A  
HETATM   19  H   UNL     1     -11.487  17.931  64.146  1.00  0.00     0.000 HD 
HETATM   20  C   UNL     1      -9.866  19.897  67.140  1.00  0.00    -0.406 A  
HETATM   21  O   UNL     1     -11.117  20.057  65.126  1.00  0.00    -0.289 OA 
HETATM   22  H   UNL     1     -11.135  21.003  65.219  1.00  0.00     0.000 HD 
HETATM   23  C   UNL     1      -9.215  19.137  68.097  1.00  0.00    -0.377 A  
HETATM   24  O   UNL     1      -9.901  21.256  67.266  1.00  0.00    -0.503 OA 
HETATM   25  H   UNL     1      -9.483  21.677  68.009  1.00  0.00     0.000 HD 
HETATM   26  C   UNL     1      -9.193  17.741  67.970  1.00  0.00    -0.273 A  
ENDBRANCH  14  15
ENDBRANCH  12  14
ENDBRANCH  11  12
ENDBRANCH   3   8
TORSDOF 5
ENDMDL
MODEL       18
REMARK 921   NORMALIZED FREE ENERGY PREDICTED BY IDOCK:   -6.16 KCAL/MOL
REMARK 922        TOTAL FREE ENERGY PREDICTED BY IDOCK:   -8.41 KCAL/MOL
REMARK 923 INTER-LIGAND FREE ENERGY PREDICTED BY IDOCK:   -8.00 KCAL/MOL
REMARK 924 INTRA-LIGAND FREE ENERGY PREDICTED BY IDOCK:   -0.40 KCAL/MOL
REMARK 927      BINDING AFFINITY PREDICTED BY RF-SCORE:    0.00 PKD
ROOT
HETATM    1  N   UNL     1     -12.428  13.971  63.360  1.00  0.00    -1.123 NA 
HETATM    2  H1  UNL     1     -13.179  14.564  63.716  1.00  0.00     0.000 HD 
HETATM    3  CA  UNL     1     -12.313  12.713  64.152  1.00  0.00    -0.436 C  
HETATM    4  H2  UNL     1     -12.543  13.778  62.365  1.00  0.00     0.000 HD 
ENDROOT
BRANCH   3   5
HETATM    5  C   UNL     1     -11.184  11.821  63.618  1.00  0.00    -0.435 C  
HETATM    6  H   UNL     1      -9.320  12.060  63.038  1.00  0.00     0.000 HD 
HETATM    7  O   UNL     1     -10.018  12.612  63.369  1.00  0.00    -0.329 OA 
ENDBRANCH   3   5
BRANCH   3   8
HETATM    8  C   UNL     1     -12.100  13.029  65.635  1.00  0.00    -0.454 C  
HETATM    9  O   UNL     1     -12.158  12.190  66.533  1.00  0.00    -0.627 OA 
HETATM   10  H   UNL     1     -11.858  15.044  65.105  1.00  0.00     0.000 HD 
HETATM   11  N   UNL     1     -11.895  14.382  65.881  1.00  0.00    -0.374 N  
BRANCH  11  12
HETATM   12  N   UNL     1     -11.738  14.834  67.206  1.00  0.00    -0.375 NA 
HETATM   13  H   UNL     1     -12.049  14.133  67.879  1.00  0.00     0.000 HD 
BRANCH  12  14
HETATM   14  C   UNL     1     -10.351  15.258  67.469  1.00  0.00    -0.244 C  
BRANCH  14  15
HETATM   15  C   UNL     1     -10.200  16.763  67.434  1.00  0.00    -0.288 A  
HETATM   16  C   UNL     1     -10.397  17.588  68.551  1.00  0.00    -0.380 A  
HETATM   17  O   UNL     1     -10.734  17.106  69.794  1.00  0.00    -0.353 OA 
HETATM   18  C   UNL     1     -10.249  18.969  68.448  1.00  0.00    -0.377 A  
HETATM   19  H   UNL     1     -10.867  17.665  70.550  1.00  0.00     0.000 HD 
HETATM   20  C   UNL     1      -9.928  19.556  67.234  1.00  0.00    -0.379 A  
HETATM   21  O   UNL     1     -10.406  19.765  69.553  1.00  0.00    -0.635 OA 
HETATM   22  H   UNL     1     -10.305  20.707  69.483  1.00  0.00     0.000 HD 
HETATM   23  C   UNL     1      -9.759  18.773  66.104  1.00  0.00    -0.280 A  
HETATM   24  O   UNL     1      -9.782  20.911  67.146  1.00  0.00    -0.654 OA 
HETATM   25  H   UNL     1      -9.562  21.313  66.314  1.00  0.00     0.000 HD 
HETATM   26  C   UNL     1      -9.897  17.382  66.203  1.00  0.00    -0.260 A  
ENDBRANCH  14  15
ENDBRANCH  12  14
ENDBRANCH  11  12
ENDBRANCH   3   8
TORSDOF 5
ENDMDL
MODEL       19
REMARK 921   NORMALIZED FREE ENERGY PREDICTED BY IDOCK:   -6.15 KCAL/MOL
REMARK 922        TOTAL FREE ENERGY PREDICTED BY IDOCK:   -8.40 KCAL/MOL
REMARK 923 INTER-LIGAND FREE ENERGY PREDICTED BY IDOCK:   -8.18 KCAL/MOL
REMARK 924 INTRA-LIGAND FREE ENERGY PREDICTED BY IDOCK:   -0.22 KCAL/MOL
REMARK 927      BINDING AFFINITY PREDICTED BY RF-SCORE:    0.00 PKD
ROOT
HETATM    1  N   UNL     1     -10.092  13.431  64.146  1.00  0.00    -0.779 NA 
HETATM    2  H1  UNL     1      -9.473  12.731  64.555  1.00  0.00     0.000 HD 
HETATM    3  CA  UNL     1     -10.990  14.026  65.177  1.00  0.00    -0.353 C  
HETATM    4  H2  UNL     1      -9.567  14.149  63.647  1.00  0.00     0.000 HD 
ENDROOT
BRANCH   3   5
HETATM    5  C   UNL     1     -11.921  15.080  64.562  1.00  0.00    -0.371 C  
HETATM    6  H   UNL     1     -11.773  16.945  63.956  1.00  0.00     0.000 HD 
HETATM    7  O   UNL     1     -11.197  16.293  64.336  1.00  0.00    -0.716 OA 
ENDBRANCH   3   5
BRANCH   3   8
HETATM    8  C   UNL     1     -11.798  12.933  65.882  1.00  0.00    -0.424 C  
HETATM    9  O   UNL     1     -12.786  12.385  65.395  1.00  0.00    -0.582 OA 
HETATM   10  H   UNL     1     -10.519  13.142  67.531  1.00  0.00     0.000 HD 
HETATM   11  N   UNL     1     -11.341  12.660  67.166  1.00  0.00    -0.300 N  
BRANCH  11  12
HETATM   12  N   UNL     1     -12.019  11.714  67.960  1.00  0.00    -0.609 NA 
HETATM   13  H   UNL     1     -11.804  10.761  67.672  1.00  0.00     0.000 HD 
BRANCH  12  14
HETATM   14  C   UNL     1     -11.744  11.921  69.394  1.00  0.00    -0.339 C  
BRANCH  14  15
HETATM   15  C   UNL     1     -11.893  10.643  70.191  1.00  0.00    -0.421 A  
HETATM   16  C   UNL     1     -12.713  10.527  71.323  1.00  0.00    -0.428 A  
HETATM   17  O   UNL     1     -13.473  11.564  71.812  1.00  0.00    -0.312 OA 
HETATM   18  C   UNL     1     -12.800   9.323  72.017  1.00  0.00    -0.415 A  
HETATM   19  H   UNL     1     -14.028  11.485  72.579  1.00  0.00     0.000 HD 
HETATM   20  C   UNL     1     -12.059   8.223  71.615  1.00  0.00    -0.306 A  
HETATM   21  O   UNL     1     -13.632   9.208  73.100  1.00  0.00    -0.931 OA 
HETATM   22  H   UNL     1     -13.692   8.385  73.573  1.00  0.00     0.000 HD 
HETATM   23  C   UNL     1     -11.215   8.312  70.520  1.00  0.00    -0.247 A  
HETATM   24  O   UNL     1     -12.156   7.045  72.299  1.00  0.00    -0.428 OA 
HETATM   25  H   UNL     1     -11.648   6.290  72.024  1.00  0.00     0.000 HD 
HETATM   26  C   UNL     1     -11.131   9.518  69.813  1.00  0.00    -0.216 A  
ENDBRANCH  14  15
ENDBRANCH  12  14
ENDBRANCH  11  12
ENDBRANCH   3   8
TORSDOF 5
ENDMDL
MODEL       20
REMARK 921   NORMALIZED FREE ENERGY PREDICTED BY IDOCK:   -6.15 KCAL/MOL
REMARK 922        TOTAL FREE ENERGY PREDICTED BY IDOCK:   -8.40 KCAL/MOL
REMARK 923 INTER-LIGAND FREE ENERGY PREDICTED BY IDOCK:   -7.85 KCAL/MOL
REMARK 924 INTRA-LIGAND FREE ENERGY PREDICTED BY IDOCK:   -0.56 KCAL/MOL
REMARK 927      BINDING AFFINITY PREDICTED BY RF-SCORE:    0.00 PKD
ROOT
HETATM    1  N   UNL     1     -14.055  13.575  72.576  1.00  0.00    -0.758 NA 
HETATM    2  H1  UNL     1     -14.178  14.513  72.959  1.00  0.00     0.000 HD 
HETATM    3  CA  UNL     1     -12.835  13.495  71.724  1.00  0.00    -0.306 C  
HETATM    4  H2  UNL     1     -14.047  12.868  73.311  1.00  0.00     0.000 HD 
ENDROOT
BRANCH   3   5
HETATM    5  C   UNL     1     -12.650  12.085  71.148  1.00  0.00    -0.271 C  
HETATM    6  H   UNL     1     -13.092  10.245  71.688  1.00  0.00     0.000 HD 
HETATM    7  O   UNL     1     -13.206  11.118  72.045  1.00  0.00    -0.493 OA 
ENDBRANCH   3   5
BRANCH   3   8
HETATM    8  C   UNL     1     -12.891  14.536  70.603  1.00  0.00    -0.340 C  
HETATM    9  O   UNL     1     -13.417  15.643  70.718  1.00  0.00    -0.536 OA 
HETATM   10  H   UNL     1     -11.918  13.157  69.359  1.00  0.00     0.000 HD 
HETATM   11  N   UNL     1     -12.341  14.084  69.410  1.00  0.00    -0.287 N  
BRANCH  11  12
HETATM   12  N   UNL     1     -12.370  14.913  68.271  1.00  0.00    -0.556 NA 
HETATM   13  H   UNL     1     -12.632  15.869  68.510  1.00  0.00     0.000 HD 
BRANCH  12  14
HETATM   14  C   UNL     1     -11.089  14.869  67.542  1.00  0.00    -0.317 C  
BRANCH  14  15
HETATM   15  C   UNL     1     -11.086  13.810  66.461  1.00  0.00    -0.309 A  
HETATM   16  C   UNL     1     -12.207  13.498  65.678  1.00  0.00    -0.458 A  
HETATM   17  O   UNL     1     -13.418  14.137  65.807  1.00  0.00    -0.670 OA 
HETATM   18  C   UNL     1     -12.138  12.506  64.702  1.00  0.00    -0.428 A  
HETATM   19  H   UNL     1     -14.177  13.926  65.277  1.00  0.00     0.000 HD 
HETATM   20  C   UNL     1     -10.967  11.792  64.505  1.00  0.00    -0.324 A  
HETATM   21  O   UNL     1     -13.227  12.233  63.917  1.00  0.00    -0.766 OA 
HETATM   22  H   UNL     1     -13.180  11.557  63.251  1.00  0.00     0.000 HD 
HETATM   23  C   UNL     1      -9.852  12.052  65.283  1.00  0.00    -0.236 A  
HETATM   24  O   UNL     1     -10.910  10.823  63.544  1.00  0.00    -0.508 OA 
HETATM   25  H   UNL     1     -10.107  10.333  63.408  1.00  0.00     0.000 HD 
HETATM   26  C   UNL     1      -9.912  13.055  66.259  1.00  0.00    -0.283 A  
ENDBRANCH  14  15
ENDBRANCH  12  14
ENDBRANCH  11  12
ENDBRANCH   3   8
TORSDOF 5
ENDMDL
MODEL       21
REMARK 921   NORMALIZED FREE ENERGY PREDICTED BY IDOCK:   -6.15 KCAL/MOL
REMARK 922        TOTAL FREE ENERGY PREDICTED BY IDOCK:   -8.40 KCAL/MOL
REMARK 923 INTER-LIGAND FREE ENERGY PREDICTED BY IDOCK:   -8.04 KCAL/MOL
REMARK 924 INTRA-LIGAND FREE ENERGY PREDICTED BY IDOCK:   -0.36 KCAL/MOL
REMARK 927      BINDING AFFINITY PREDICTED BY RF-SCORE:    0.00 PKD
ROOT
HETATM    1  N   UNL     1     -12.821  12.160  63.214  1.00  0.00    -0.820 NA 
HETATM    2  H1  UNL     1     -13.760  11.925  63.535  1.00  0.00     0.000 HD 
HETATM    3  CA  UNL     1     -11.866  12.247  64.355  1.00  0.00    -0.388 C  
HETATM    4  H2  UNL     1     -12.494  11.507  62.501  1.00  0.00     0.000 HD 
ENDROOT
BRANCH   3   5
HETATM    5  C   UNL     1     -10.453  12.600  63.873  1.00  0.00    -0.411 C  
HETATM    6  H   UNL     1      -8.665  11.784  63.952  1.00  0.00     0.000 HD 
HETATM    7  O   UNL     1      -9.539  11.566  64.250  1.00  0.00    -0.220 OA 
ENDBRANCH   3   5
BRANCH   3   8
HETATM    8  C   UNL     1     -12.357  13.264  65.390  1.00  0.00    -0.479 C  
HETATM    9  O   UNL     1     -13.165  14.158  65.146  1.00  0.00    -0.743 OA 
HETATM   10  H   UNL     1     -11.080  12.361  66.788  1.00  0.00     0.000 HD 
HETATM   11  N   UNL     1     -11.748  13.116  66.631  1.00  0.00    -0.356 N  
BRANCH  11  12
HETATM   12  N   UNL     1     -12.058  14.015  67.670  1.00  0.00    -0.510 NA 
HETATM   13  H   UNL     1     -13.016  13.893  67.997  1.00  0.00     0.000 HD 
BRANCH  12  14
HETATM   14  C   UNL     1     -11.091  13.910  68.778  1.00  0.00    -0.265 C  
BRANCH  14  15
HETATM   15  C   UNL     1     -11.697  14.319  70.103  1.00  0.00    -0.357 A  
HETATM   16  C   UNL     1     -12.530  13.486  70.865  1.00  0.00    -0.369 A  
HETATM   17  O   UNL     1     -12.867  12.208  70.486  1.00  0.00    -0.039 OA 
HETATM   18  C   UNL     1     -13.062  13.927  72.074  1.00  0.00    -0.393 A  
HETATM   19  H   UNL     1     -13.431  11.644  71.002  1.00  0.00     0.000 HD 
HETATM   20  C   UNL     1     -12.797  15.207  72.535  1.00  0.00    -0.360 A  
HETATM   21  O   UNL     1     -13.844  13.095  72.830  1.00  0.00    -0.721 OA 
HETATM   22  H   UNL     1     -14.207  13.396  73.655  1.00  0.00     0.000 HD 
HETATM   23  C   UNL     1     -12.005  16.067  71.792  1.00  0.00    -0.592 A  
HETATM   24  O   UNL     1     -13.320  15.629  73.724  1.00  0.00    -0.640 OA 
HETATM   25  H   UNL     1     -13.139  16.506  74.041  1.00  0.00     0.000 HD 
HETATM   26  C   UNL     1     -11.459  15.625  70.579  1.00  0.00    -0.380 A  
ENDBRANCH  14  15
ENDBRANCH  12  14
ENDBRANCH  11  12
ENDBRANCH   3   8
TORSDOF 5
ENDMDL
MODEL       22
REMARK 921   NORMALIZED FREE ENERGY PREDICTED BY IDOCK:   -6.15 KCAL/MOL
REMARK 922        TOTAL FREE ENERGY PREDICTED BY IDOCK:   -8.39 KCAL/MOL
REMARK 923 INTER-LIGAND FREE ENERGY PREDICTED BY IDOCK:   -7.61 KCAL/MOL
REMARK 924 INTRA-LIGAND FREE ENERGY PREDICTED BY IDOCK:   -0.79 KCAL/MOL
REMARK 927      BINDING AFFINITY PREDICTED BY RF-SCORE:    0.00 PKD
ROOT
HETATM    1  N   UNL     1      -9.912  10.072  65.157  1.00  0.00    -0.325 NA 
HETATM    2  H1  UNL     1      -9.723   9.557  66.017  1.00  0.00     0.000 HD 
HETATM    3  CA  UNL     1     -10.173  11.513  65.437  1.00  0.00    -0.264 C  
HETATM    4  H2  UNL     1      -9.163   9.953  64.475  1.00  0.00     0.000 HD 
ENDROOT
BRANCH   3   5
HETATM    5  C   UNL     1     -10.458  12.288  64.144  1.00  0.00    -0.375 C  
HETATM    6  H   UNL     1     -11.572  12.044  62.541  1.00  0.00     0.000 HD 
HETATM    7  O   UNL     1     -11.395  11.564  63.341  1.00  0.00    -0.374 OA 
ENDBRANCH   3   5
BRANCH   3   8
HETATM    8  C   UNL     1     -11.329  11.667  66.429  1.00  0.00    -0.245 C  
HETATM    9  O   UNL     1     -12.235  12.490  66.308  1.00  0.00    -0.600 OA 
HETATM   10  H   UNL     1     -10.452  10.154  67.587  1.00  0.00     0.000 HD 
HETATM   11  N   UNL     1     -11.223  10.820  67.526  1.00  0.00    -0.311 N  
BRANCH  11  12
HETATM   12  N   UNL     1     -12.186  10.886  68.553  1.00  0.00    -0.809 NA 
HETATM   13  H   UNL     1     -12.706  10.013  68.635  1.00  0.00     0.000 HD 
BRANCH  12  14
HETATM   14  C   UNL     1     -11.575  11.273  69.838  1.00  0.00    -0.334 C  
BRANCH  14  15
HETATM   15  C   UNL     1     -12.275  12.460  70.466  1.00  0.00    -0.382 A  
HETATM   16  C   UNL     1     -12.205  13.762  69.951  1.00  0.00    -0.321 A  
HETATM   17  O   UNL     1     -11.502  14.087  68.815  1.00  0.00    -0.253 OA 
HETATM   18  C   UNL     1     -12.869  14.812  70.582  1.00  0.00    -0.343 A  
HETATM   19  H   UNL     1     -11.455  14.969  68.466  1.00  0.00     0.000 HD 
HETATM   20  C   UNL     1     -13.591  14.591  71.745  1.00  0.00    -0.391 A  
HETATM   21  O   UNL     1     -12.826  16.074  70.053  1.00  0.00    -0.611 OA 
HETATM   22  H   UNL     1     -13.279  16.790  70.483  1.00  0.00     0.000 HD 
HETATM   23  C   UNL     1     -13.654  13.323  72.297  1.00  0.00    -0.703 A  
HETATM   24  O   UNL     1     -14.241  15.627  72.353  1.00  0.00    -0.551 OA 
HETATM   25  H   UNL     1     -14.736  15.476  73.150  1.00  0.00     0.000 HD 
HETATM   26  C   UNL     1     -12.996  12.262  71.662  1.00  0.00    -0.416 A  
ENDBRANCH  14  15
ENDBRANCH  12  14
ENDBRANCH  11  12
ENDBRANCH   3   8
TORSDOF 5
ENDMDL
MODEL       23
REMARK 921   NORMALIZED FREE ENERGY PREDICTED BY IDOCK:   -6.14 KCAL/MOL
REMARK 922        TOTAL FREE ENERGY PREDICTED BY IDOCK:   -8.39 KCAL/MOL
REMARK 923 INTER-LIGAND FREE ENERGY PREDICTED BY IDOCK:   -7.75 KCAL/MOL
REMARK 924 INTRA-LIGAND FREE ENERGY PREDICTED BY IDOCK:   -0.64 KCAL/MOL
REMARK 927      BINDING AFFINITY PREDICTED BY RF-SCORE:    0.00 PKD
ROOT
HETATM    1  N   UNL     1      -9.780  12.544  64.963  1.00  0.00    -0.473 NA 
HETATM    2  H1  UNL     1      -9.179  12.890  65.712  1.00  0.00     0.000 HD 
HETATM    3  CA  UNL     1     -11.072  13.286  64.920  1.00  0.00    -0.328 C  
HETATM    4  H2  UNL     1      -9.304  12.568  64.060  1.00  0.00     0.000 HD 
ENDROOT
BRANCH   3   5
HETATM    5  C   UNL     1     -11.975  12.767  63.794  1.00  0.00    -0.510 C  
HETATM    6  H   UNL     1     -13.296  13.526  62.550  1.00  0.00     0.000 HD 
HETATM    7  O   UNL     1     -12.737  13.847  63.247  1.00  0.00    -0.775 OA 
ENDBRANCH   3   5
BRANCH   3   8
HETATM    8  C   UNL     1     -11.786  13.201  66.272  1.00  0.00    -0.375 C  
HETATM    9  O   UNL     1     -12.459  12.237  66.634  1.00  0.00    -0.300 OA 
HETATM   10  H   UNL     1     -11.085  15.132  66.692  1.00  0.00     0.000 HD 
HETATM   11  N   UNL     1     -11.651  14.355  67.034  1.00  0.00    -0.369 N  
BRANCH  11  12
HETATM   12  N   UNL     1     -12.300  14.446  68.281  1.00  0.00    -0.597 NA 
HETATM   13  H   UNL     1     -13.163  13.905  68.294  1.00  0.00     0.000 HD 
BRANCH  12  14
HETATM   14  C   UNL     1     -11.402  14.057  69.384  1.00  0.00    -0.268 C  
BRANCH  14  15
HETATM   15  C   UNL     1     -11.979  12.933  70.218  1.00  0.00    -0.359 A  
HETATM   16  C   UNL     1     -11.824  11.576  69.903  1.00  0.00    -0.355 A  
HETATM   17  O   UNL     1     -11.118  11.132  68.809  1.00  0.00    -0.198 OA 
HETATM   18  C   UNL     1     -12.387  10.590  70.710  1.00  0.00    -0.378 A  
HETATM   19  H   UNL     1     -11.012  10.212  68.596  1.00  0.00     0.000 HD 
HETATM   20  C   UNL     1     -13.132  10.935  71.826  1.00  0.00    -0.459 A  
HETATM   21  O   UNL     1     -12.199   9.265  70.416  1.00  0.00    -0.474 OA 
HETATM   22  H   UNL     1     -12.583   8.593  70.966  1.00  0.00     0.000 HD 
HETATM   23  C   UNL     1     -13.333  12.267  72.148  1.00  0.00    -0.473 A  
HETATM   24  O   UNL     1     -13.677   9.960  72.613  1.00  0.00    -0.657 OA 
HETATM   25  H   UNL     1     -14.189  10.197  73.378  1.00  0.00     0.000 HD 
HETATM   26  C   UNL     1     -12.760  13.262  71.345  1.00  0.00    -0.401 A  
ENDBRANCH  14  15
ENDBRANCH  12  14
ENDBRANCH  11  12
ENDBRANCH   3   8
TORSDOF 5
ENDMDL
MODEL       24
REMARK 921   NORMALIZED FREE ENERGY PREDICTED BY IDOCK:   -6.11 KCAL/MOL
REMARK 922        TOTAL FREE ENERGY PREDICTED BY IDOCK:   -8.34 KCAL/MOL
REMARK 923 INTER-LIGAND FREE ENERGY PREDICTED BY IDOCK:   -7.82 KCAL/MOL
REMARK 924 INTRA-LIGAND FREE ENERGY PREDICTED BY IDOCK:   -0.52 KCAL/MOL
REMARK 927      BINDING AFFINITY PREDICTED BY RF-SCORE:    0.00 PKD
ROOT
HETATM    1  N   UNL     1     -10.684  11.592  63.116  1.00  0.00    -0.667 NA 
HETATM    2  H1  UNL     1      -9.868  10.993  62.986  1.00  0.00     0.000 HD 
HETATM    3  CA  UNL     1     -10.698  12.195  64.479  1.00  0.00    -0.310 C  
HETATM    4  H2  UNL     1     -10.744  12.306  62.390  1.00  0.00     0.000 HD 
ENDROOT
BRANCH   3   5
HETATM    5  C   UNL     1     -11.924  13.097  64.676  1.00  0.00    -0.388 C  
HETATM    6  H   UNL     1     -13.795  13.126  64.068  1.00  0.00     0.000 HD 
HETATM    7  O   UNL     1     -13.037  12.568  63.947  1.00  0.00    -0.728 OA 
ENDBRANCH   3   5
BRANCH   3   8
HETATM    8  C   UNL     1     -10.650  11.103  65.551  1.00  0.00    -0.225 C  
HETATM    9  O   UNL     1     -10.121  10.004  65.390  1.00  0.00    -0.310 OA 
HETATM   10  H   UNL     1     -11.750  12.374  66.805  1.00  0.00     0.000 HD 
HETATM   11  N   UNL     1     -11.323  11.452  66.716  1.00  0.00    -0.255 N  
BRANCH  11  12
HETATM   12  N   UNL     1     -11.411  10.525  67.774  1.00  0.00    -0.625 NA 
HETATM   13  H   UNL     1     -10.830   9.705  67.603  1.00  0.00     0.000 HD 
BRANCH  12  14
HETATM   14  C   UNL     1     -11.091  11.154  69.068  1.00  0.00    -0.242 C  
BRANCH  14  15
HETATM   15  C   UNL     1     -11.844  10.514  70.214  1.00  0.00    -0.418 A  
HETATM   16  C   UNL     1     -11.804   9.141  70.497  1.00  0.00    -0.095 A  
HETATM   17  O   UNL     1     -11.061   8.242  69.767  1.00  0.00    -0.404 OA 
HETATM   18  C   UNL     1     -12.527   8.614  71.564  1.00  0.00    -0.323 A  
HETATM   19  H   UNL     1     -11.033   7.313  69.959  1.00  0.00     0.000 HD 
HETATM   20  C   UNL     1     -13.321   9.434  72.351  1.00  0.00    -0.424 A  
HETATM   21  O   UNL     1     -12.452   7.277  71.857  1.00  0.00    -0.314 OA 
HETATM   22  H   UNL     1     -12.946   6.918  72.585  1.00  0.00     0.000 HD 
HETATM   23  C   UNL     1     -13.409  10.789  72.079  1.00  0.00    -0.403 A  
HETATM   24  O   UNL     1     -14.023   8.907  73.397  1.00  0.00    -1.236 OA 
HETATM   25  H   UNL     1     -14.567   9.469  73.937  1.00  0.00     0.000 HD 
HETATM   26  C   UNL     1     -12.676  11.326  71.013  1.00  0.00    -0.457 A  
ENDBRANCH  14  15
ENDBRANCH  12  14
ENDBRANCH  11  12
ENDBRANCH   3   8
TORSDOF 5
ENDMDL
MODEL       25
REMARK 921   NORMALIZED FREE ENERGY PREDICTED BY IDOCK:   -6.09 KCAL/MOL
REMARK 922        TOTAL FREE ENERGY PREDICTED BY IDOCK:   -8.32 KCAL/MOL
REMARK 923 INTER-LIGAND FREE ENERGY PREDICTED BY IDOCK:   -7.84 KCAL/MOL
REMARK 924 INTRA-LIGAND FREE ENERGY PREDICTED BY IDOCK:   -0.48 KCAL/MOL
REMARK 927      BINDING AFFINITY PREDICTED BY RF-SCORE:    0.00 PKD
ROOT
HETATM    1  N   UNL     1     -11.507   8.476  70.423  1.00  0.00    -0.428 NA 
HETATM    2  H1  UNL     1     -11.572   9.476  70.611  1.00  0.00     0.000 HD 
HETATM    3  CA  UNL     1     -10.461   8.185  69.401  1.00  0.00    -0.220 C  
HETATM    4  H2  UNL     1     -11.353   7.942  71.279  1.00  0.00     0.000 HD 
ENDROOT
BRANCH   3   5
HETATM    5  C   UNL     1     -10.362   6.681  69.117  1.00  0.00    -0.194 C  
HETATM    6  H   UNL     1     -11.522   5.105  69.319  1.00  0.00     0.000 HD 
HETATM    7  O   UNL     1     -11.583   6.036  69.494  1.00  0.00    -0.303 OA 
ENDBRANCH   3   5
BRANCH   3   8
HETATM    8  C   UNL     1     -10.737   8.965  68.112  1.00  0.00    -0.092 C  
HETATM    9  O   UNL     1     -10.559   8.511  66.983  1.00  0.00    -0.306 OA 
HETATM   10  H   UNL     1     -11.286  10.605  69.297  1.00  0.00     0.000 HD 
HETATM   11  N   UNL     1     -11.155  10.270  68.343  1.00  0.00    -0.259 N  
BRANCH  11  12
HETATM   12  N   UNL     1     -11.395  11.128  67.251  1.00  0.00    -0.457 NA 
HETATM   13  H   UNL     1     -11.962  10.673  66.536  1.00  0.00     0.000 HD 
BRANCH  12  14
HETATM   14  C   UNL     1     -11.996  12.400  67.690  1.00  0.00    -0.180 C  
BRANCH  14  15
HETATM   15  C   UNL     1     -11.844  13.490  66.650  1.00  0.00    -0.450 A  
HETATM   16  C   UNL     1     -12.251  13.349  65.315  1.00  0.00    -0.440 A  
HETATM   17  O   UNL     1     -12.843  12.209  64.824  1.00  0.00    -0.555 OA 
HETATM   18  C   UNL     1     -12.076  14.390  64.406  1.00  0.00    -0.470 A  
HETATM   19  H   UNL     1     -13.119  12.114  63.920  1.00  0.00     0.000 HD 
HETATM   20  C   UNL     1     -11.473  15.574  64.798  1.00  0.00    -0.313 A  
HETATM   21  O   UNL     1     -12.511  14.258  63.113  1.00  0.00    -1.102 OA 
HETATM   22  H   UNL     1     -12.391  14.968  62.493  1.00  0.00     0.000 HD 
HETATM   23  C   UNL     1     -11.029  15.734  66.100  1.00  0.00    -0.169 A  
HETATM   24  O   UNL     1     -11.309  16.589  63.899  1.00  0.00    -1.557 OA 
HETATM   25  H   UNL     1     -10.896  17.402  64.168  1.00  0.00     0.000 HD 
HETATM   26  C   UNL     1     -11.212  14.694  67.022  1.00  0.00    -0.348 A  
ENDBRANCH  14  15
ENDBRANCH  12  14
ENDBRANCH  11  12
ENDBRANCH   3   8
TORSDOF 5
ENDMDL
MODEL       26
REMARK 921   NORMALIZED FREE ENERGY PREDICTED BY IDOCK:   -6.08 KCAL/MOL
REMARK 922        TOTAL FREE ENERGY PREDICTED BY IDOCK:   -8.31 KCAL/MOL
REMARK 923 INTER-LIGAND FREE ENERGY PREDICTED BY IDOCK:   -7.87 KCAL/MOL
REMARK 924 INTRA-LIGAND FREE ENERGY PREDICTED BY IDOCK:   -0.44 KCAL/MOL
REMARK 927      BINDING AFFINITY PREDICTED BY RF-SCORE:    0.00 PKD
ROOT
HETATM    1  N   UNL     1     -11.927  14.882  72.195  1.00  0.00    -0.353 NA 
HETATM    2  H1  UNL     1     -12.199  14.176  72.880  1.00  0.00     0.000 HD 
HETATM    3  CA  UNL     1     -12.688  14.721  70.923  1.00  0.00    -0.342 C  
HETATM    4  H2  UNL     1     -12.022  15.825  72.572  1.00  0.00     0.000 HD 
ENDROOT
BRANCH   3   5
HETATM    5  C   UNL     1     -12.280  15.783  69.893  1.00  0.00    -0.248 C  
HETATM    6  H   UNL     1     -10.890  17.166  69.733  1.00  0.00     0.000 HD 
HETATM    7  O   UNL     1     -11.143  16.509  70.370  1.00  0.00    -0.333 OA 
ENDBRANCH   3   5
BRANCH   3   8
HETATM    8  C   UNL     1     -12.496  13.312  70.356  1.00  0.00    -0.225 C  
HETATM    9  O   UNL     1     -12.634  12.281  71.013  1.00  0.00    -0.361 OA 
HETATM   10  H   UNL     1     -11.980  14.189  68.522  1.00  0.00     0.000 HD 
HETATM   11  N   UNL     1     -12.085  13.309  69.028  1.00  0.00    -0.283 N  
BRANCH  11  12
HETATM   12  N   UNL     1     -11.815  12.085  68.385  1.00  0.00    -0.384 NA 
HETATM   13  H   UNL     1     -12.646  11.710  67.929  1.00  0.00     0.000 HD 
BRANCH  12  14
HETATM   14  C   UNL     1     -10.691  12.212  67.439  1.00  0.00    -0.234 C  
BRANCH  14  15
HETATM   15  C   UNL     1     -10.906  13.336  66.448  1.00  0.00    -0.296 A  
HETATM   16  C   UNL     1     -11.761  13.241  65.341  1.00  0.00    -0.343 A  
HETATM   17  O   UNL     1     -12.500  12.117  65.055  1.00  0.00    -0.490 OA 
HETATM   18  C   UNL     1     -11.908  14.312  64.463  1.00  0.00    -0.442 A  
HETATM   19  H   UNL     1     -13.079  12.052  64.305  1.00  0.00     0.000 HD 
HETATM   20  C   UNL     1     -11.193  15.483  64.654  1.00  0.00    -0.371 A  
HETATM   21  O   UNL     1     -12.773  14.223  63.404  1.00  0.00    -0.947 OA 
HETATM   22  H   UNL     1     -12.874  14.954  62.805  1.00  0.00     0.000 HD 
HETATM   23  C   UNL     1     -10.316  15.600  65.719  1.00  0.00    -0.386 A  
HETATM   24  O   UNL     1     -11.348  16.529  63.789  1.00  0.00    -1.553 OA 
HETATM   25  H   UNL     1     -10.858  17.332  63.920  1.00  0.00     0.000 HD 
HETATM   26  C   UNL     1     -10.171  14.529  66.612  1.00  0.00    -0.276 A  
ENDBRANCH  14  15
ENDBRANCH  12  14
ENDBRANCH  11  12
ENDBRANCH   3   8
TORSDOF 5
ENDMDL
MODEL       27
REMARK 921   NORMALIZED FREE ENERGY PREDICTED BY IDOCK:   -6.07 KCAL/MOL
REMARK 922        TOTAL FREE ENERGY PREDICTED BY IDOCK:   -8.30 KCAL/MOL
REMARK 923 INTER-LIGAND FREE ENERGY PREDICTED BY IDOCK:   -7.85 KCAL/MOL
REMARK 924 INTRA-LIGAND FREE ENERGY PREDICTED BY IDOCK:   -0.45 KCAL/MOL
REMARK 927      BINDING AFFINITY PREDICTED BY RF-SCORE:    0.00 PKD
ROOT
HETATM    1  N   UNL     1     -12.441  14.074  63.218  1.00  0.00    -1.112 NA 
HETATM    2  H1  UNL     1     -12.726  15.038  63.043  1.00  0.00     0.000 HD 
HETATM    3  CA  UNL     1     -12.069  13.871  64.647  1.00  0.00    -0.431 C  
HETATM    4  H2  UNL     1     -13.157  13.412  62.919  1.00  0.00     0.000 HD 
ENDROOT
BRANCH   3   5
HETATM    5  C   UNL     1     -11.640  12.422  64.910  1.00  0.00    -0.343 C  
HETATM    6  H   UNL     1     -11.363  10.792  63.844  1.00  0.00     0.000 HD 
HETATM    7  O   UNL     1     -11.628  11.689  63.681  1.00  0.00    -0.424 OA 
ENDBRANCH   3   5
BRANCH   3   8
HETATM    8  C   UNL     1     -10.965  14.848  65.060  1.00  0.00    -0.420 C  
HETATM    9  O   UNL     1     -10.879  16.004  64.647  1.00  0.00    -0.608 OA 
HETATM   10  H   UNL     1     -10.131  13.315  66.222  1.00  0.00     0.000 HD 
HETATM   11  N   UNL     1     -10.021  14.279  65.907  1.00  0.00    -0.312 N  
BRANCH  11  12
HETATM   12  N   UNL     1      -8.913  15.041  66.328  1.00  0.00    -0.455 NA 
HETATM   13  H   UNL     1      -8.657  15.743  65.635  1.00  0.00     0.000 HD 
BRANCH  12  14
HETATM   14  C   UNL     1      -9.151  15.647  67.651  1.00  0.00    -0.192 C  
BRANCH  14  15
HETATM   15  C   UNL     1      -9.238  17.157  67.576  1.00  0.00    -0.233 A  
HETATM   16  C   UNL     1      -9.919  17.941  68.519  1.00  0.00    -0.379 A  
HETATM   17  O   UNL     1     -10.563  17.414  69.613  1.00  0.00    -0.347 OA 
HETATM   18  C   UNL     1      -9.967  19.327  68.388  1.00  0.00    -0.419 A  
HETATM   19  H   UNL     1     -11.024  17.945  70.252  1.00  0.00     0.000 HD 
HETATM   20  C   UNL     1      -9.364  19.954  67.309  1.00  0.00    -0.356 A  
HETATM   21  O   UNL     1     -10.602  20.088  69.333  1.00  0.00    -0.556 OA 
HETATM   22  H   UNL     1     -10.635  21.034  69.244  1.00  0.00     0.000 HD 
HETATM   23  C   UNL     1      -8.711  19.207  66.343  1.00  0.00    -0.336 A  
HETATM   24  O   UNL     1      -9.414  21.314  67.192  1.00  0.00    -0.642 OA 
HETATM   25  H   UNL     1      -9.000  21.744  66.453  1.00  0.00     0.000 HD 
HETATM   26  C   UNL     1      -8.651  17.813  66.474  1.00  0.00    -0.283 A  
ENDBRANCH  14  15
ENDBRANCH  12  14
ENDBRANCH  11  12
ENDBRANCH   3   8
TORSDOF 5
ENDMDL
MODEL       28
REMARK 921   NORMALIZED FREE ENERGY PREDICTED BY IDOCK:   -6.06 KCAL/MOL
REMARK 922        TOTAL FREE ENERGY PREDICTED BY IDOCK:   -8.28 KCAL/MOL
REMARK 923 INTER-LIGAND FREE ENERGY PREDICTED BY IDOCK:   -7.43 KCAL/MOL
REMARK 924 INTRA-LIGAND FREE ENERGY PREDICTED BY IDOCK:   -0.85 KCAL/MOL
REMARK 927      BINDING AFFINITY PREDICTED BY RF-SCORE:    0.00 PKD
ROOT
HETATM    1  N   UNL     1     -10.154  20.197  68.077  1.00  0.00    -0.409 NA 
HETATM    2  H1  UNL     1     -11.085  20.428  67.730  1.00  0.00     0.000 HD 
HETATM    3  CA  UNL     1      -9.340  19.516  67.030  1.00  0.00    -0.336 C  
HETATM    4  H2  UNL     1      -9.677  21.021  68.446  1.00  0.00     0.000 HD 
ENDROOT
BRANCH   3   5
HETATM    5  C   UNL     1      -7.939  19.170  67.552  1.00  0.00    -0.257 C  
HETATM    6  H   UNL     1      -6.990  19.248  69.273  1.00  0.00     0.000 HD 
HETATM    7  O   UNL     1      -7.857  19.462  68.951  1.00  0.00    -0.354 OA 
ENDBRANCH   3   5
BRANCH   3   8
HETATM    8  C   UNL     1     -10.057  18.261  66.524  1.00  0.00    -0.385 C  
HETATM    9  O   UNL     1     -10.599  18.176  65.423  1.00  0.00    -0.636 OA 
HETATM   10  H   UNL     1      -9.630  17.352  68.365  1.00  0.00     0.000 HD 
HETATM   11  N   UNL     1     -10.091  17.237  67.462  1.00  0.00    -0.304 N  
BRANCH  11  12
HETATM   12  N   UNL     1     -10.765  16.037  67.160  1.00  0.00    -0.308 NA 
HETATM   13  H   UNL     1     -11.512  16.188  66.482  1.00  0.00     0.000 HD 
BRANCH  12  14
HETATM   14  C   UNL     1      -9.828  14.993  66.707  1.00  0.00    -0.243 C  
BRANCH  14  15
HETATM   15  C   UNL     1     -10.481  14.018  65.750  1.00  0.00    -0.317 A  
HETATM   16  C   UNL     1     -11.292  14.412  64.676  1.00  0.00    -0.371 A  
HETATM   17  O   UNL     1     -11.562  15.727  64.379  1.00  0.00    -0.630 OA 
HETATM   18  C   UNL     1     -11.869  13.462  63.837  1.00  0.00    -0.439 A  
HETATM   19  H   UNL     1     -12.111  15.994  63.651  1.00  0.00     0.000 HD 
HETATM   20  C   UNL     1     -11.672  12.109  64.063  1.00  0.00    -0.430 A  
HETATM   21  O   UNL     1     -12.629  13.857  62.767  1.00  0.00    -0.846 OA 
HETATM   22  H   UNL     1     -13.023  13.208  62.194  1.00  0.00     0.000 HD 
HETATM   23  C   UNL     1     -10.903  11.685  65.134  1.00  0.00    -0.346 A  
HETATM   24  O   UNL     1     -12.239  11.186  63.231  1.00  0.00    -0.531 OA 
HETATM   25  H   UNL     1     -12.104  10.259  63.386  1.00  0.00     0.000 HD 
HETATM   26  C   UNL     1     -10.312  12.636  65.976  1.00  0.00    -0.287 A  
ENDBRANCH  14  15
ENDBRANCH  12  14
ENDBRANCH  11  12
ENDBRANCH   3   8
TORSDOF 5
ENDMDL
MODEL       29
REMARK 921   NORMALIZED FREE ENERGY PREDICTED BY IDOCK:   -6.06 KCAL/MOL
REMARK 922        TOTAL FREE ENERGY PREDICTED BY IDOCK:   -8.28 KCAL/MOL
REMARK 923 INTER-LIGAND FREE ENERGY PREDICTED BY IDOCK:   -7.66 KCAL/MOL
REMARK 924 INTRA-LIGAND FREE ENERGY PREDICTED BY IDOCK:   -0.62 KCAL/MOL
REMARK 927      BINDING AFFINITY PREDICTED BY RF-SCORE:    0.00 PKD
ROOT
HETATM    1  N   UNL     1      -8.323  16.611  68.431  1.00  0.00    -0.199 NA 
HETATM    2  H1  UNL     1      -8.351  15.699  68.887  1.00  0.00     0.000 HD 
HETATM    3  CA  UNL     1      -9.686  17.203  68.320  1.00  0.00    -0.280 C  
HETATM    4  H2  UNL     1      -7.676  17.245  68.902  1.00  0.00     0.000 HD 
ENDROOT
BRANCH   3   5
HETATM    5  C   UNL     1      -9.644  18.575  67.635  1.00  0.00    -0.286 C  
HETATM    6  H   UNL     1     -10.205  20.410  68.065  1.00  0.00     0.000 HD 
HETATM    7  O   UNL     1     -10.231  19.562  68.489  1.00  0.00    -0.425 OA 
ENDBRANCH   3   5
BRANCH   3   8
HETATM    8  C   UNL     1     -10.626  16.251  67.574  1.00  0.00    -0.310 C  
HETATM    9  O   UNL     1     -10.718  16.198  66.348  1.00  0.00    -0.294 OA 
HETATM   10  H   UNL     1     -11.310  15.569  69.435  1.00  0.00     0.000 HD 
HETATM   11  N   UNL     1     -11.419  15.489  68.424  1.00  0.00    -0.353 N  
BRANCH  11  12
HETATM   12  N   UNL     1     -12.373  14.606  67.881  1.00  0.00    -0.588 NA 
HETATM   13  H   UNL     1     -12.662  14.896  66.947  1.00  0.00     0.000 HD 
BRANCH  12  14
HETATM   14  C   UNL     1     -11.883  13.216  67.888  1.00  0.00    -0.348 C  
BRANCH  14  15
HETATM   15  C   UNL     1     -11.596  12.707  66.491  1.00  0.00    -0.441 A  
HETATM   16  C   UNL     1     -12.214  13.214  65.339  1.00  0.00    -0.461 A  
HETATM   17  O   UNL     1     -13.134  14.235  65.366  1.00  0.00    -0.685 OA 
HETATM   18  C   UNL     1     -11.909  12.695  64.083  1.00  0.00    -0.410 A  
HETATM   19  H   UNL     1     -13.553  14.579  64.585  1.00  0.00     0.000 HD 
HETATM   20  C   UNL     1     -11.007  11.651  63.952  1.00  0.00    -0.407 A  
HETATM   21  O   UNL     1     -12.490  13.221  62.959  1.00  0.00    -0.726 OA 
HETATM   22  H   UNL     1     -12.282  12.868  62.102  1.00  0.00     0.000 HD 
HETATM   23  C   UNL     1     -10.403  11.105  65.072  1.00  0.00    -0.362 A  
HETATM   24  O   UNL     1     -10.713  11.153  62.715  1.00  0.00    -0.770 OA 
HETATM   25  H   UNL     1     -10.094  10.437  62.624  1.00  0.00     0.000 HD 
HETATM   26  C   UNL     1     -10.699  11.630  66.337  1.00  0.00    -0.316 A  
ENDBRANCH  14  15
ENDBRANCH  12  14
ENDBRANCH  11  12
ENDBRANCH   3   8
TORSDOF 5
ENDMDL
MODEL       30
REMARK 921   NORMALIZED FREE ENERGY PREDICTED BY IDOCK:   -6.03 KCAL/MOL
REMARK 922        TOTAL FREE ENERGY PREDICTED BY IDOCK:   -8.24 KCAL/MOL
REMARK 923 INTER-LIGAND FREE ENERGY PREDICTED BY IDOCK:   -7.95 KCAL/MOL
REMARK 924 INTRA-LIGAND FREE ENERGY PREDICTED BY IDOCK:   -0.29 KCAL/MOL
REMARK 927      BINDING AFFINITY PREDICTED BY RF-SCORE:    0.00 PKD
ROOT
HETATM    1  N   UNL     1     -12.971   8.650  72.806  1.00  0.00    -0.626 NA 
HETATM    2  H1  UNL     1     -13.284   9.459  73.343  1.00  0.00     0.000 HD 
HETATM    3  CA  UNL     1     -11.849   9.009  71.893  1.00  0.00    -0.376 C  
HETATM    4  H2  UNL     1     -12.724   7.870  73.416  1.00  0.00     0.000 HD 
ENDROOT
BRANCH   3   5
HETATM    5  C   UNL     1     -11.378   7.792  71.086  1.00  0.00    -0.269 C  
HETATM    6  H   UNL     1     -12.168   6.117  70.423  1.00  0.00     0.000 HD 
HETATM    7  O   UNL     1     -12.460   6.870  70.922  1.00  0.00    -0.378 OA 
ENDBRANCH   3   5
BRANCH   3   8
HETATM    8  C   UNL     1     -12.259  10.153  70.961  1.00  0.00    -0.374 C  
HETATM    9  O   UNL     1     -12.982  11.089  71.299  1.00  0.00    -0.386 OA 
HETATM   10  H   UNL     1     -11.187   9.204  69.429  1.00  0.00     0.000 HD 
HETATM   11  N   UNL     1     -11.782   9.998  69.665  1.00  0.00    -0.102 N  
BRANCH  11  12
HETATM   12  N   UNL     1     -12.124  10.945  68.679  1.00  0.00    -0.796 NA 
HETATM   13  H   UNL     1     -12.599  11.751  69.084  1.00  0.00     0.000 HD 
BRANCH  12  14
HETATM   14  C   UNL     1     -10.945  11.352  67.893  1.00  0.00    -0.240 C  
BRANCH  14  15
HETATM   15  C   UNL     1     -11.330  12.109  66.640  1.00  0.00    -0.405 A  
HETATM   16  C   UNL     1     -10.851  11.787  65.362  1.00  0.00    -0.295 A  
HETATM   17  O   UNL     1      -9.992  10.740  65.121  1.00  0.00    -0.250 OA 
HETATM   18  C   UNL     1     -11.241  12.529  64.250  1.00  0.00    -0.355 A  
HETATM   19  H   UNL     1      -9.668  10.522  64.255  1.00  0.00     0.000 HD 
HETATM   20  C   UNL     1     -12.090  13.616  64.390  1.00  0.00    -0.427 A  
HETATM   21  O   UNL     1     -10.797  12.186  63.000  1.00  0.00    -0.656 OA 
HETATM   22  H   UNL     1     -11.063  12.692  62.241  1.00  0.00     0.000 HD 
HETATM   23  C   UNL     1     -12.555  13.981  65.642  1.00  0.00    -0.542 A  
HETATM   24  O   UNL     1     -12.468  14.335  63.292  1.00  0.00    -1.133 OA 
HETATM   25  H   UNL     1     -13.051  15.080  63.388  1.00  0.00     0.000 HD 
HETATM   26  C   UNL     1     -12.175  13.232  66.763  1.00  0.00    -0.340 A  
ENDBRANCH  14  15
ENDBRANCH  12  14
ENDBRANCH  11  12
ENDBRANCH   3   8
TORSDOF 5
ENDMDL
MODEL       31
REMARK 921   NORMALIZED FREE ENERGY PREDICTED BY IDOCK:   -6.01 KCAL/MOL
REMARK 922        TOTAL FREE ENERGY PREDICTED BY IDOCK:   -8.22 KCAL/MOL
REMARK 923 INTER-LIGAND FREE ENERGY PREDICTED BY IDOCK:   -7.39 KCAL/MOL
REMARK 924 INTRA-LIGAND FREE ENERGY PREDICTED BY IDOCK:   -0.83 KCAL/MOL
REMARK 927      BINDING AFFINITY PREDICTED BY RF-SCORE:    0.00 PKD
ROOT
HETATM    1  N   UNL     1     -11.619   8.530  71.939  1.00  0.00    -0.316 NA 
HETATM    2  H1  UNL     1     -12.496   9.037  72.069  1.00  0.00     0.000 HD 
HETATM    3  CA  UNL     1     -10.599   9.380  71.262  1.00  0.00    -0.330 C  
HETATM    4  H2  UNL     1     -11.270   8.154  72.820  1.00  0.00     0.000 HD 
ENDROOT
BRANCH   3   5
HETATM    5  C   UNL     1      -9.281   8.619  71.067  1.00  0.00    -0.203 C  
HETATM    6  H   UNL     1      -7.615   8.353  72.077  1.00  0.00     0.000 HD 
HETATM    7  O   UNL     1      -8.430   8.824  72.199  1.00  0.00    -0.351 OA 
ENDBRANCH   3   5
BRANCH   3   8
HETATM    8  C   UNL     1     -11.132   9.898  69.923  1.00  0.00    -0.275 C  
HETATM    9  O   UNL     1     -12.046  10.714  69.816  1.00  0.00    -0.300 OA 
HETATM   10  H   UNL     1      -9.767   8.628  68.963  1.00  0.00     0.000 HD 
HETATM   11  N   UNL     1     -10.519   9.303  68.826  1.00  0.00    -0.211 N  
BRANCH  11  12
HETATM   12  N   UNL     1     -10.944   9.639  67.525  1.00  0.00    -0.421 NA 
HETATM   13  H   UNL     1     -11.895  10.006  67.525  1.00  0.00     0.000 HD 
BRANCH  12  14
HETATM   14  C   UNL     1     -10.004  10.572  66.878  1.00  0.00    -0.200 C  
BRANCH  14  15
HETATM   15  C   UNL     1     -10.696  11.474  65.878  1.00  0.00    -0.325 A  
HETATM   16  C   UNL     1     -11.742  12.345  66.215  1.00  0.00    -0.395 A  
HETATM   17  O   UNL     1     -12.232  12.475  67.493  1.00  0.00    -0.418 OA 
HETATM   18  C   UNL     1     -12.341  13.144  65.244  1.00  0.00    -0.481 A  
HETATM   19  H   UNL     1     -12.941  13.065  67.721  1.00  0.00     0.000 HD 
HETATM   20  C   UNL     1     -11.930  13.074  63.923  1.00  0.00    -0.485 A  
HETATM   21  O   UNL     1     -13.337  14.020  65.588  1.00  0.00    -0.690 OA 
HETATM   22  H   UNL     1     -13.745  14.565  64.926  1.00  0.00     0.000 HD 
HETATM   23  C   UNL     1     -10.922  12.201  63.550  1.00  0.00    -0.521 A  
HETATM   24  O   UNL     1     -12.522  13.865  62.979  1.00  0.00    -1.099 OA 
HETATM   25  H   UNL     1     -12.241  13.817  62.073  1.00  0.00     0.000 HD 
HETATM   26  C   UNL     1     -10.309  11.402  64.524  1.00  0.00    -0.369 A  
ENDBRANCH  14  15
ENDBRANCH  12  14
ENDBRANCH  11  12
ENDBRANCH   3   8
TORSDOF 5
ENDMDL
MODEL       32
REMARK 921   NORMALIZED FREE ENERGY PREDICTED BY IDOCK:   -6.01 KCAL/MOL
REMARK 922        TOTAL FREE ENERGY PREDICTED BY IDOCK:   -8.21 KCAL/MOL
REMARK 923 INTER-LIGAND FREE ENERGY PREDICTED BY IDOCK:   -7.69 KCAL/MOL
REMARK 924 INTRA-LIGAND FREE ENERGY PREDICTED BY IDOCK:   -0.52 KCAL/MOL
REMARK 927      BINDING AFFINITY PREDICTED BY RF-SCORE:    0.00 PKD
ROOT
HETATM    1  N   UNL     1      -8.430  17.670  65.728  1.00  0.00    -0.473 NA 
HETATM    2  H1  UNL     1      -8.042  16.766  65.456  1.00  0.00     0.000 HD 
HETATM    3  CA  UNL     1      -9.790  17.519  66.319  1.00  0.00    -0.285 C  
HETATM    4  H2  UNL     1      -7.802  18.173  66.356  1.00  0.00     0.000 HD 
ENDROOT
BRANCH   3   5
HETATM    5  C   UNL     1     -10.372  18.878  66.728  1.00  0.00    -0.414 C  
HETATM    6  H   UNL     1     -10.790  19.813  68.408  1.00  0.00     0.000 HD 
HETATM    7  O   UNL     1     -10.429  18.972  68.155  1.00  0.00    -0.377 OA 
ENDBRANCH   3   5
BRANCH   3   8
HETATM    8  C   UNL     1     -10.724  16.800  65.342  1.00  0.00    -0.189 C  
HETATM    9  O   UNL     1     -11.286  17.351  64.396  1.00  0.00    -0.949 OA 
HETATM   10  H   UNL     1     -10.442  15.049  66.461  1.00  0.00     0.000 HD 
HETATM   11  N   UNL     1     -10.928  15.464  65.665  1.00  0.00    -0.337 N  
BRANCH  11  12
HETATM   12  N   UNL     1     -11.808  14.685  64.888  1.00  0.00    -0.396 NA 
HETATM   13  H   UNL     1     -11.397  14.444  63.986  1.00  0.00     0.000 HD 
BRANCH  12  14
HETATM   14  C   UNL     1     -12.251  13.484  65.619  1.00  0.00    -0.458 C  
BRANCH  14  15
HETATM   15  C   UNL     1     -11.392  12.278  65.303  1.00  0.00    -0.384 A  
HETATM   16  C   UNL     1     -11.060  11.883  63.999  1.00  0.00    -0.391 A  
HETATM   17  O   UNL     1     -11.472  12.564  62.877  1.00  0.00    -0.680 OA 
HETATM   18  C   UNL     1     -10.271  10.757  63.777  1.00  0.00    -0.288 A  
HETATM   19  H   UNL     1     -11.247  12.297  61.994  1.00  0.00     0.000 HD 
HETATM   20  C   UNL     1      -9.820   9.992  64.841  1.00  0.00    -0.281 A  
HETATM   21  O   UNL     1      -9.920  10.400  62.502  1.00  0.00    -0.714 OA 
HETATM   22  H   UNL     1      -9.381   9.631  62.351  1.00  0.00     0.000 HD 
HETATM   23  C   UNL     1     -10.156  10.335  66.140  1.00  0.00    -0.307 A  
HETATM   24  O   UNL     1      -9.043   8.892  64.613  1.00  0.00    -0.431 OA 
HETATM   25  H   UNL     1      -8.733   8.367  65.342  1.00  0.00     0.000 HD 
HETATM   26  C   UNL     1     -10.942  11.472  66.370  1.00  0.00    -0.336 A  
ENDBRANCH  14  15
ENDBRANCH  12  14
ENDBRANCH  11  12
ENDBRANCH   3   8
TORSDOF 5
ENDMDL
MODEL       33
REMARK 921   NORMALIZED FREE ENERGY PREDICTED BY IDOCK:   -5.98 KCAL/MOL
REMARK 922        TOTAL FREE ENERGY PREDICTED BY IDOCK:   -8.18 KCAL/MOL
REMARK 923 INTER-LIGAND FREE ENERGY PREDICTED BY IDOCK:   -7.76 KCAL/MOL
REMARK 924 INTRA-LIGAND FREE ENERGY PREDICTED BY IDOCK:   -0.42 KCAL/MOL
REMARK 927      BINDING AFFINITY PREDICTED BY RF-SCORE:    0.00 PKD
ROOT
HETATM    1  N   UNL     1     -13.559   9.573  70.871  1.00  0.00    -0.573 NA 
HETATM    2  H1  UNL     1     -14.031  10.357  70.421  1.00  0.00     0.000 HD 
HETATM    3  CA  UNL     1     -12.237   9.983  71.424  1.00  0.00    -0.416 C  
HETATM    4  H2  UNL     1     -14.147   9.141  71.585  1.00  0.00     0.000 HD 
ENDROOT
BRANCH   3   5
HETATM    5  C   UNL     1     -11.527   8.804  72.101  1.00  0.00    -0.351 C  
HETATM    6  H   UNL     1     -11.734   6.848  72.163  1.00  0.00     0.000 HD 
HETATM    7  O   UNL     1     -12.174   7.578  71.743  1.00  0.00    -0.292 OA 
ENDBRANCH   3   5
BRANCH   3   8
HETATM    8  C   UNL     1     -11.359  10.588  70.325  1.00  0.00    -0.327 C  
HETATM    9  O   UNL     1     -10.368  10.032  69.854  1.00  0.00    -0.243 OA 
HETATM   10  H   UNL     1     -12.583  12.290  70.372  1.00  0.00     0.000 HD 
HETATM   11  N   UNL     1     -11.756  11.866  69.952  1.00  0.00    -0.319 N  
BRANCH  11  12
HETATM   12  N   UNL     1     -11.009  12.574  68.988  1.00  0.00    -0.352 NA 
HETATM   13  H   UNL     1     -10.262  12.000  68.600  1.00  0.00     0.000 HD 
BRANCH  12  14
HETATM   14  C   UNL     1     -11.879  13.119  67.930  1.00  0.00    -0.348 C  
BRANCH  14  15
HETATM   15  C   UNL     1     -11.554  12.536  66.571  1.00  0.00    -0.447 A  
HETATM   16  C   UNL     1     -12.217  12.904  65.391  1.00  0.00    -0.478 A  
HETATM   17  O   UNL     1     -13.220  13.844  65.352  1.00  0.00    -0.750 OA 
HETATM   18  C   UNL     1     -11.874  12.323  64.173  1.00  0.00    -0.419 A  
HETATM   19  H   UNL     1     -13.668  14.094  64.553  1.00  0.00     0.000 HD 
HETATM   20  C   UNL     1     -10.887  11.351  64.109  1.00  0.00    -0.365 A  
HETATM   21  O   UNL     1     -12.500  12.715  63.020  1.00  0.00    -0.679 OA 
HETATM   22  H   UNL     1     -12.266  12.319  62.188  1.00  0.00     0.000 HD 
HETATM   23  C   UNL     1     -10.236  10.941  65.260  1.00  0.00    -0.351 A  
HETATM   24  O   UNL     1     -10.556  10.790  62.908  1.00  0.00    -0.745 OA 
HETATM   25  H   UNL     1      -9.880  10.124  62.864  1.00  0.00     0.000 HD 
HETATM   26  C   UNL     1     -10.570  11.529  66.487  1.00  0.00    -0.301 A  
ENDBRANCH  14  15
ENDBRANCH  12  14
ENDBRANCH  11  12
ENDBRANCH   3   8
TORSDOF 5
ENDMDL
MODEL       34
REMARK 921   NORMALIZED FREE ENERGY PREDICTED BY IDOCK:   -5.98 KCAL/MOL
REMARK 922        TOTAL FREE ENERGY PREDICTED BY IDOCK:   -8.17 KCAL/MOL
REMARK 923 INTER-LIGAND FREE ENERGY PREDICTED BY IDOCK:   -7.51 KCAL/MOL
REMARK 924 INTRA-LIGAND FREE ENERGY PREDICTED BY IDOCK:   -0.66 KCAL/MOL
REMARK 927      BINDING AFFINITY PREDICTED BY RF-SCORE:    0.00 PKD
ROOT
HETATM    1  N   UNL     1      -8.775  11.327  65.312  1.00  0.00    -0.387 NA 
HETATM    2  H1  UNL     1      -8.218  11.140  66.147  1.00  0.00     0.000 HD 
HETATM    3  CA  UNL     1     -10.054  12.009  65.658  1.00  0.00    -0.243 C  
HETATM    4  H2  UNL     1      -8.244  11.856  64.619  1.00  0.00     0.000 HD 
ENDROOT
BRANCH   3   5
HETATM    5  C   UNL     1     -10.891  12.291  64.403  1.00  0.00    -0.329 C  
HETATM    6  H   UNL     1     -11.908  13.806  63.668  1.00  0.00     0.000 HD 
HETATM    7  O   UNL     1     -11.390  13.632  64.444  1.00  0.00    -0.369 OA 
ENDBRANCH   3   5
BRANCH   3   8
HETATM    8  C   UNL     1     -10.851  11.178  66.667  1.00  0.00    -0.253 C  
HETATM    9  O   UNL     1     -11.841  11.590  67.269  1.00  0.00    -0.609 OA 
HETATM   10  H   UNL     1      -9.481   9.619  66.368  1.00  0.00     0.000 HD 
HETATM   11  N   UNL     1     -10.306   9.918  66.887  1.00  0.00    -0.239 N  
BRANCH  11  12
HETATM   12  N   UNL     1     -10.899   9.058  67.833  1.00  0.00    -0.480 NA 
HETATM   13  H   UNL     1     -10.863   8.086  67.528  1.00  0.00     0.000 HD 
BRANCH  12  14
HETATM   14  C   UNL     1     -10.296   9.229  69.167  1.00  0.00    -0.211 C  
BRANCH  14  15
HETATM   15  C   UNL     1     -11.335   9.204  70.268  1.00  0.00    -0.217 A  
HETATM   16  C   UNL     1     -11.951  10.356  70.778  1.00  0.00    -0.363 A  
HETATM   17  O   UNL     1     -11.680  11.623  70.316  1.00  0.00    -0.426 OA 
HETATM   18  C   UNL     1     -12.895  10.264  71.797  1.00  0.00    -0.460 A  
HETATM   19  H   UNL     1     -12.098  12.403  70.661  1.00  0.00     0.000 HD 
HETATM   20  C   UNL     1     -13.225   9.034  72.344  1.00  0.00    -0.447 A  
HETATM   21  O   UNL     1     -13.520  11.391  72.264  1.00  0.00    -0.601 OA 
HETATM   22  H   UNL     1     -14.165  11.328  72.959  1.00  0.00     0.000 HD 
HETATM   23  C   UNL     1     -12.611   7.880  71.886  1.00  0.00    -0.348 A  
HETATM   24  O   UNL     1     -14.155   8.955  73.340  1.00  0.00    -1.256 OA 
HETATM   25  H   UNL     1     -14.382   8.111  73.715  1.00  0.00     0.000 HD 
HETATM   26  C   UNL     1     -11.668   7.965  70.854  1.00  0.00    -0.271 A  
ENDBRANCH  14  15
ENDBRANCH  12  14
ENDBRANCH  11  12
ENDBRANCH   3   8
TORSDOF 5
ENDMDL
MODEL       35
REMARK 921   NORMALIZED FREE ENERGY PREDICTED BY IDOCK:   -5.96 KCAL/MOL
REMARK 922        TOTAL FREE ENERGY PREDICTED BY IDOCK:   -8.14 KCAL/MOL
REMARK 923 INTER-LIGAND FREE ENERGY PREDICTED BY IDOCK:   -7.75 KCAL/MOL
REMARK 924 INTRA-LIGAND FREE ENERGY PREDICTED BY IDOCK:   -0.40 KCAL/MOL
REMARK 927      BINDING AFFINITY PREDICTED BY RF-SCORE:    0.00 PKD
ROOT
HETATM    1  N   UNL     1     -13.025  11.766  62.776  1.00  0.00    -0.641 NA 
HETATM    2  H1  UNL     1     -14.004  12.016  62.919  1.00  0.00     0.000 HD 
HETATM    3  CA  UNL     1     -12.274  11.772  64.063  1.00  0.00    -0.247 C  
HETATM    4  H2  UNL     1     -12.933  10.873  62.292  1.00  0.00     0.000 HD 
ENDROOT
BRANCH   3   5
HETATM    5  C   UNL     1     -10.802  11.397  63.850  1.00  0.00    -0.393 C  
HETATM    6  H   UNL     1      -9.486  10.207  64.701  1.00  0.00     0.000 HD 
HETATM    7  O   UNL     1     -10.397  10.439  64.833  1.00  0.00    -0.317 OA 
ENDBRANCH   3   5
BRANCH   3   8
HETATM    8  C   UNL     1     -12.393  13.135  64.750  1.00  0.00    -0.423 C  
HETATM    9  O   UNL     1     -12.578  14.193  64.150  1.00  0.00    -0.684 OA 
HETATM   10  H   UNL     1     -12.054  12.172  66.581  1.00  0.00     0.000 HD 
HETATM   11  N   UNL     1     -12.208  13.072  66.126  1.00  0.00    -0.407 N  
BRANCH  11  12
HETATM   12  N   UNL     1     -12.234  14.256  66.888  1.00  0.00    -0.559 NA 
HETATM   13  H   UNL     1     -13.176  14.469  67.215  1.00  0.00     0.000 HD 
BRANCH  12  14
HETATM   14  C   UNL     1     -11.273  14.198  68.005  1.00  0.00    -0.281 C  
BRANCH  14  15
HETATM   15  C   UNL     1     -11.947  13.855  69.316  1.00  0.00    -0.402 A  
HETATM   16  C   UNL     1     -12.648  14.788  70.095  1.00  0.00    -0.271 A  
HETATM   17  O   UNL     1     -12.803  16.105  69.733  1.00  0.00    -0.516 OA 
HETATM   18  C   UNL     1     -13.239  14.408  71.297  1.00  0.00    -0.349 A  
HETATM   19  H   UNL     1     -13.278  16.737  70.260  1.00  0.00     0.000 HD 
HETATM   20  C   UNL     1     -13.125  13.106  71.758  1.00  0.00    -0.383 A  
HETATM   21  O   UNL     1     -13.954  15.316  72.033  1.00  0.00    -0.448 OA 
HETATM   22  H   UNL     1     -14.358  15.056  72.853  1.00  0.00     0.000 HD 
HETATM   23  C   UNL     1     -12.412  12.168  71.030  1.00  0.00    -0.369 A  
HETATM   24  O   UNL     1     -13.712  12.743  72.937  1.00  0.00    -0.676 OA 
HETATM   25  H   UNL     1     -13.633  11.850  73.253  1.00  0.00     0.000 HD 
HETATM   26  C   UNL     1     -11.823  12.542  69.815  1.00  0.00    -0.380 A  
ENDBRANCH  14  15
ENDBRANCH  12  14
ENDBRANCH  11  12
ENDBRANCH   3   8
TORSDOF 5
ENDMDL
MODEL       36
REMARK 921   NORMALIZED FREE ENERGY PREDICTED BY IDOCK:   -5.91 KCAL/MOL
REMARK 922        TOTAL FREE ENERGY PREDICTED BY IDOCK:   -8.09 KCAL/MOL
REMARK 923 INTER-LIGAND FREE ENERGY PREDICTED BY IDOCK:   -7.59 KCAL/MOL
REMARK 924 INTRA-LIGAND FREE ENERGY PREDICTED BY IDOCK:   -0.50 KCAL/MOL
REMARK 927      BINDING AFFINITY PREDICTED BY RF-SCORE:    0.00 PKD
ROOT
HETATM    1  N   UNL     1     -14.039   8.650  71.163  1.00  0.00    -0.615 NA 
HETATM    2  H1  UNL     1     -14.920   9.163  71.225  1.00  0.00     0.000 HD 
HETATM    3  CA  UNL     1     -12.945   9.368  71.877  1.00  0.00    -0.417 C  
HETATM    4  H2  UNL     1     -14.140   7.691  71.497  1.00  0.00     0.000 HD 
ENDROOT
BRANCH   3   5
HETATM    5  C   UNL     1     -11.622   8.598  71.783  1.00  0.00    -0.332 C  
HETATM    6  H   UNL     1     -10.667   7.251  72.854  1.00  0.00     0.000 HD 
HETATM    7  O   UNL     1     -11.486   7.728  72.911  1.00  0.00    -0.378 OA 
ENDBRANCH   3   5
BRANCH   3   8
HETATM    8  C   UNL     1     -12.787  10.789  71.328  1.00  0.00    -0.438 C  
HETATM    9  O   UNL     1     -13.169  11.799  71.917  1.00  0.00    -0.482 OA 
HETATM   10  H   UNL     1     -11.921   9.960  69.608  1.00  0.00     0.000 HD 
HETATM   11  N   UNL     1     -12.220  10.824  70.060  1.00  0.00    -0.331 N  
BRANCH  11  12
HETATM   12  N   UNL     1     -12.062  12.060  69.402  1.00  0.00    -0.246 NA 
HETATM   13  H   UNL     1     -12.093  12.840  70.058  1.00  0.00     0.000 HD 
BRANCH  12  14
HETATM   14  C   UNL     1     -10.830  12.083  68.593  1.00  0.00    -0.237 C  
BRANCH  14  15
HETATM   15  C   UNL     1     -11.113  12.369  67.133  1.00  0.00    -0.328 A  
HETATM   16  C   UNL     1     -11.903  13.441  66.693  1.00  0.00    -0.395 A  
HETATM   17  O   UNL     1     -12.488  14.346  67.546  1.00  0.00    -0.599 OA 
HETATM   18  C   UNL     1     -12.130  13.644  65.334  1.00  0.00    -0.403 A  
HETATM   19  H   UNL     1     -13.024  15.072  67.248  1.00  0.00     0.000 HD 
HETATM   20  C   UNL     1     -11.599  12.776  64.393  1.00  0.00    -0.361 A  
HETATM   21  O   UNL     1     -12.873  14.714  64.910  1.00  0.00    -0.509 OA 
HETATM   22  H   UNL     1     -13.027  14.853  63.983  1.00  0.00     0.000 HD 
HETATM   23  C   UNL     1     -10.841  11.689  64.796  1.00  0.00    -0.367 A  
HETATM   24  O   UNL     1     -11.824  12.987  63.063  1.00  0.00    -0.841 OA 
HETATM   25  H   UNL     1     -11.460  12.392  62.417  1.00  0.00     0.000 HD 
HETATM   26  C   UNL     1     -10.601  11.485  66.161  1.00  0.00    -0.314 A  
ENDBRANCH  14  15
ENDBRANCH  12  14
ENDBRANCH  11  12
ENDBRANCH   3   8
TORSDOF 5
ENDMDL
MODEL       37
REMARK 921   NORMALIZED FREE ENERGY PREDICTED BY IDOCK:   -5.89 KCAL/MOL
REMARK 922        TOTAL FREE ENERGY PREDICTED BY IDOCK:   -8.06 KCAL/MOL
REMARK 923 INTER-LIGAND FREE ENERGY PREDICTED BY IDOCK:   -7.18 KCAL/MOL
REMARK 924 INTRA-LIGAND FREE ENERGY PREDICTED BY IDOCK:   -0.88 KCAL/MOL
REMARK 927      BINDING AFFINITY PREDICTED BY RF-SCORE:    0.00 PKD
ROOT
HETATM    1  N   UNL     1     -10.123  13.816  65.323  1.00  0.00    -0.496 NA 
HETATM    2  H1  UNL     1      -9.259  14.139  65.758  1.00  0.00     0.000 HD 
HETATM    3  CA  UNL     1     -11.302  14.094  66.192  1.00  0.00    -0.337 C  
HETATM    4  H2  UNL     1     -10.244  14.211  64.390  1.00  0.00     0.000 HD 
ENDROOT
BRANCH   3   5
HETATM    5  C   UNL     1     -12.602  13.608  65.539  1.00  0.00    -0.496 C  
HETATM    6  H   UNL     1     -13.276  11.934  64.757  1.00  0.00     0.000 HD 
HETATM    7  O   UNL     1     -12.471  12.234  65.161  1.00  0.00    -0.563 OA 
ENDBRANCH   3   5
BRANCH   3   8
HETATM    8  C   UNL     1     -11.116  13.457  67.572  1.00  0.00    -0.274 C  
HETATM    9  O   UNL     1     -11.906  13.593  68.505  1.00  0.00    -0.336 OA 
HETATM   10  H   UNL     1      -9.296  12.667  66.891  1.00  0.00     0.000 HD 
HETATM   11  N   UNL     1      -9.924  12.752  67.690  1.00  0.00    -0.213 N  
BRANCH  11  12
HETATM   12  N   UNL     1      -9.587  12.154  68.921  1.00  0.00    -0.413 NA 
HETATM   13  H   UNL     1     -10.221  12.447  69.665  1.00  0.00     0.000 HD 
BRANCH  12  14
HETATM   14  C   UNL     1      -9.528  10.686  68.807  1.00  0.00    -0.183 C  
BRANCH  14  15
HETATM   15  C   UNL     1     -10.329   9.999  69.893  1.00  0.00    -0.315 A  
HETATM   16  C   UNL     1     -11.729  10.033  69.963  1.00  0.00    -0.175 A  
HETATM   17  O   UNL     1     -12.514  10.685  69.041  1.00  0.00    -0.777 OA 
HETATM   18  C   UNL     1     -12.405   9.384  70.994  1.00  0.00    -0.258 A  
HETATM   19  H   UNL     1     -13.462  10.708  69.088  1.00  0.00     0.000 HD 
HETATM   20  C   UNL     1     -11.704   8.713  71.983  1.00  0.00    -0.369 A  
HETATM   21  O   UNL     1     -13.774   9.391  71.034  1.00  0.00    -0.561 OA 
HETATM   22  H   UNL     1     -14.235   8.948  71.737  1.00  0.00     0.000 HD 
HETATM   23  C   UNL     1     -10.320   8.687  71.962  1.00  0.00    -0.416 A  
HETATM   24  O   UNL     1     -12.377   8.077  72.987  1.00  0.00    -0.657 OA 
HETATM   25  H   UNL     1     -11.896   7.617  73.666  1.00  0.00     0.000 HD 
HETATM   26  C   UNL     1      -9.634   9.330  70.922  1.00  0.00    -0.339 A  
ENDBRANCH  14  15
ENDBRANCH  12  14
ENDBRANCH  11  12
ENDBRANCH   3   8
TORSDOF 5
ENDMDL
MODEL       38
REMARK 921   NORMALIZED FREE ENERGY PREDICTED BY IDOCK:   -5.87 KCAL/MOL
REMARK 922        TOTAL FREE ENERGY PREDICTED BY IDOCK:   -8.04 KCAL/MOL
REMARK 923 INTER-LIGAND FREE ENERGY PREDICTED BY IDOCK:   -7.54 KCAL/MOL
REMARK 924 INTRA-LIGAND FREE ENERGY PREDICTED BY IDOCK:   -0.50 KCAL/MOL
REMARK 927      BINDING AFFINITY PREDICTED BY RF-SCORE:    0.00 PKD
ROOT
HETATM    1  N   UNL     1     -12.379  13.567  62.751  1.00  0.00    -0.802 NA 
HETATM    2  H1  UNL     1     -13.365  13.816  62.842  1.00  0.00     0.000 HD 
HETATM    3  CA  UNL     1     -12.000  12.503  63.724  1.00  0.00    -0.517 C  
HETATM    4  H2  UNL     1     -12.147  13.300  61.794  1.00  0.00     0.000 HD 
ENDROOT
BRANCH   3   5
HETATM    5  C   UNL     1     -10.518  12.128  63.588  1.00  0.00    -0.460 C  
HETATM    6  H   UNL     1      -9.483  10.588  62.933  1.00  0.00     0.000 HD 
HETATM    7  O   UNL     1     -10.400  10.821  63.017  1.00  0.00    -0.207 OA 
ENDBRANCH   3   5
BRANCH   3   8
HETATM    8  C   UNL     1     -12.319  12.944  65.155  1.00  0.00    -0.493 C  
HETATM    9  O   UNL     1     -12.913  13.984  65.438  1.00  0.00    -0.726 OA 
HETATM   10  H   UNL     1     -11.324  11.229  65.838  1.00  0.00     0.000 HD 
HETATM   11  N   UNL     1     -11.813  12.079  66.118  1.00  0.00    -0.262 N  
BRANCH  11  12
HETATM   12  N   UNL     1     -11.980  12.383  67.484  1.00  0.00    -0.506 NA 
HETATM   13  H   UNL     1     -12.876  12.047  67.835  1.00  0.00     0.000 HD 
BRANCH  12  14
HETATM   14  C   UNL     1     -10.857  11.870  68.290  1.00  0.00    -0.224 C  
BRANCH  14  15
HETATM   15  C   UNL     1     -11.331  11.028  69.455  1.00  0.00    -0.352 A  
HETATM   16  C   UNL     1     -12.148  11.518  70.483  1.00  0.00    -0.378 A  
HETATM   17  O   UNL     1     -12.611  12.812  70.526  1.00  0.00    -0.226 OA 
HETATM   18  C   UNL     1     -12.544  10.690  71.531  1.00  0.00    -0.412 A  
HETATM   19  H   UNL     1     -13.165  13.144  71.223  1.00  0.00     0.000 HD 
HETATM   20  C   UNL     1     -12.116   9.373  71.589  1.00  0.00    -0.388 A  
HETATM   21  O   UNL     1     -13.373  11.166  72.513  1.00  0.00    -0.495 OA 
HETATM   22  H   UNL     1     -13.643  10.601  73.228  1.00  0.00     0.000 HD 
HETATM   23  C   UNL     1     -11.282   8.866  70.607  1.00  0.00    -0.308 A  
HETATM   24  O   UNL     1     -12.513   8.569  72.620  1.00  0.00    -0.527 OA 
HETATM   25  H   UNL     1     -12.220   7.666  72.659  1.00  0.00     0.000 HD 
HETATM   26  C   UNL     1     -10.889   9.691  69.545  1.00  0.00    -0.253 A  
ENDBRANCH  14  15
ENDBRANCH  12  14
ENDBRANCH  11  12
ENDBRANCH   3   8
TORSDOF 5
ENDMDL
MODEL       39
REMARK 921   NORMALIZED FREE ENERGY PREDICTED BY IDOCK:   -5.83 KCAL/MOL
REMARK 922        TOTAL FREE ENERGY PREDICTED BY IDOCK:   -7.98 KCAL/MOL
REMARK 923 INTER-LIGAND FREE ENERGY PREDICTED BY IDOCK:   -7.51 KCAL/MOL
REMARK 924 INTRA-LIGAND FREE ENERGY PREDICTED BY IDOCK:   -0.47 KCAL/MOL
REMARK 927      BINDING AFFINITY PREDICTED BY RF-SCORE:    0.00 PKD
ROOT
HETATM    1  N   UNL     1      -9.810  13.646  65.320  1.00  0.00    -0.554 NA 
HETATM    2  H1  UNL     1      -8.993  14.104  64.915  1.00  0.00     0.000 HD 
HETATM    3  CA  UNL     1     -11.064  14.073  64.636  1.00  0.00    -0.382 C  
HETATM    4  H2  UNL     1      -9.709  12.631  65.318  1.00  0.00     0.000 HD 
ENDROOT
BRANCH   3   5
HETATM    5  C   UNL     1     -12.292  13.384  65.244  1.00  0.00    -0.469 C  
HETATM    6  H   UNL     1     -12.756  11.583  65.885  1.00  0.00     0.000 HD 
HETATM    7  O   UNL     1     -11.996  12.009  65.508  1.00  0.00    -0.443 OA 
ENDBRANCH   3   5
BRANCH   3   8
HETATM    8  C   UNL     1     -11.213  15.596  64.688  1.00  0.00    -0.369 C  
HETATM    9  O   UNL     1     -11.871  16.251  63.881  1.00  0.00    -0.994 OA 
HETATM   10  H   UNL     1      -9.940  15.599  66.354  1.00  0.00     0.000 HD 
HETATM   11  N   UNL     1     -10.474  16.182  65.710  1.00  0.00    -0.358 N  
BRANCH  11  12
HETATM   12  N   UNL     1     -10.468  17.584  65.850  1.00  0.00    -0.504 NA 
HETATM   13  H   UNL     1     -11.281  18.008  65.403  1.00  0.00     0.000 HD 
BRANCH  12  14
HETATM   14  C   UNL     1     -10.361  17.982  67.265  1.00  0.00    -0.378 C  
BRANCH  14  15
HETATM   15  C   UNL     1      -9.103  18.778  67.538  1.00  0.00    -0.296 A  
HETATM   16  C   UNL     1      -8.580  19.729  66.651  1.00  0.00    -0.335 A  
HETATM   17  O   UNL     1      -9.169  20.042  65.448  1.00  0.00    -0.322 OA 
HETATM   18  C   UNL     1      -7.413  20.423  66.960  1.00  0.00    -0.310 A  
HETATM   19  H   UNL     1      -8.815  20.687  64.847  1.00  0.00     0.000 HD 
HETATM   20  C   UNL     1      -6.733  20.168  68.141  1.00  0.00    -0.294 A  
HETATM   21  O   UNL     1      -6.929  21.378  66.105  1.00  0.00    -0.572 OA 
HETATM   22  H   UNL     1      -6.133  21.851  66.316  1.00  0.00     0.000 HD 
HETATM   23  C   UNL     1      -7.204  19.211  69.024  1.00  0.00    -0.370 A  
HETATM   24  O   UNL     1      -5.591  20.857  68.436  1.00  0.00    -0.290 OA 
HETATM   25  H   UNL     1      -5.125  20.682  69.246  1.00  0.00     0.000 HD 
HETATM   26  C   UNL     1      -8.383  18.517  68.723  1.00  0.00    -0.274 A  
ENDBRANCH  14  15
ENDBRANCH  12  14
ENDBRANCH  11  12
ENDBRANCH   3   8
TORSDOF 5
ENDMDL
MODEL       40
REMARK 921   NORMALIZED FREE ENERGY PREDICTED BY IDOCK:   -5.77 KCAL/MOL
REMARK 922        TOTAL FREE ENERGY PREDICTED BY IDOCK:   -7.91 KCAL/MOL
REMARK 923 INTER-LIGAND FREE ENERGY PREDICTED BY IDOCK:   -7.61 KCAL/MOL
REMARK 924 INTRA-LIGAND FREE ENERGY PREDICTED BY IDOCK:   -0.30 KCAL/MOL
REMARK 927      BINDING AFFINITY PREDICTED BY RF-SCORE:    0.00 PKD
ROOT
HETATM    1  N   UNL     1     -10.709  11.042  62.964  1.00  0.00    -0.803 NA 
HETATM    2  H1  UNL     1      -9.819  10.547  62.911  1.00  0.00     0.000 HD 
HETATM    3  CA  UNL     1     -10.577  12.311  63.734  1.00  0.00    -0.451 C  
HETATM    4  H2  UNL     1     -11.102  11.205  62.036  1.00  0.00     0.000 HD 
ENDROOT
BRANCH   3   5
HETATM    5  C   UNL     1     -11.917  13.056  63.812  1.00  0.00    -0.518 C  
HETATM    6  H   UNL     1     -13.825  12.592  63.695  1.00  0.00     0.000 HD 
HETATM    7  O   UNL     1     -12.996  12.131  63.646  1.00  0.00    -0.780 OA 
ENDBRANCH   3   5
BRANCH   3   8
HETATM    8  C   UNL     1     -10.026  12.035  65.135  1.00  0.00    -0.239 C  
HETATM    9  O   UNL     1      -9.215  11.146  65.393  1.00  0.00    -0.210 OA 
HETATM   10  H   UNL     1     -11.254  13.577  65.852  1.00  0.00     0.000 HD 
HETATM   11  N   UNL     1     -10.582  12.854  66.111  1.00  0.00    -0.268 N  
BRANCH  11  12
HETATM   12  N   UNL     1     -10.213  12.680  67.460  1.00  0.00    -0.213 NA 
HETATM   13  H   UNL     1     -10.237  13.562  67.971  1.00  0.00     0.000 HD 
BRANCH  12  14
HETATM   14  C   UNL     1     -11.042  11.652  68.115  1.00  0.00    -0.242 C  
BRANCH  14  15
HETATM   15  C   UNL     1     -11.723  12.180  69.360  1.00  0.00    -0.391 A  
HETATM   16  C   UNL     1     -12.310  11.355  70.331  1.00  0.00    -0.319 A  
HETATM   17  O   UNL     1     -12.312   9.982  70.252  1.00  0.00    -0.463 OA 
HETATM   18  C   UNL     1     -12.927  11.906  71.451  1.00  0.00    -0.284 A  
HETATM   19  H   UNL     1     -12.710   9.424  70.910  1.00  0.00     0.000 HD 
HETATM   20  C   UNL     1     -12.994  13.281  71.615  1.00  0.00    -0.349 A  
HETATM   21  O   UNL     1     -13.466  11.093  72.413  1.00  0.00    -0.590 OA 
HETATM   22  H   UNL     1     -13.887  11.469  73.178  1.00  0.00     0.000 HD 
HETATM   23  C   UNL     1     -12.453  14.124  70.659  1.00  0.00    -0.432 A  
HETATM   24  O   UNL     1     -13.598  13.810  72.719  1.00  0.00    -0.666 OA 
HETATM   25  H   UNL     1     -13.644  14.753  72.831  1.00  0.00     0.000 HD 
HETATM   26  C   UNL     1     -11.822  13.576  69.535  1.00  0.00    -0.392 A  
ENDBRANCH  14  15
ENDBRANCH  12  14
ENDBRANCH  11  12
ENDBRANCH   3   8
TORSDOF 5
ENDMDL
MODEL       41
REMARK 921   NORMALIZED FREE ENERGY PREDICTED BY IDOCK:   -5.77 KCAL/MOL
REMARK 922        TOTAL FREE ENERGY PREDICTED BY IDOCK:   -7.91 KCAL/MOL
REMARK 923 INTER-LIGAND FREE ENERGY PREDICTED BY IDOCK:   -7.38 KCAL/MOL
REMARK 924 INTRA-LIGAND FREE ENERGY PREDICTED BY IDOCK:   -0.53 KCAL/MOL
REMARK 927      BINDING AFFINITY PREDICTED BY RF-SCORE:    0.00 PKD
ROOT
HETATM    1  N   UNL     1     -11.035   8.650  72.188  1.00  0.00    -0.364 NA 
HETATM    2  H1  UNL     1     -10.312   7.983  71.916  1.00  0.00     0.000 HD 
HETATM    3  CA  UNL     1     -11.594   9.355  71.000  1.00  0.00    -0.330 C  
HETATM    4  H2  UNL     1     -11.769   8.203  72.739  1.00  0.00     0.000 HD 
ENDROOT
BRANCH   3   5
HETATM    5  C   UNL     1     -12.681  10.358  71.408  1.00  0.00    -0.446 C  
HETATM    6  H   UNL     1     -14.242  10.373  72.606  1.00  0.00     0.000 HD 
HETATM    7  O   UNL     1     -13.569   9.752  72.353  1.00  0.00    -0.407 OA 
ENDBRANCH   3   5
BRANCH   3   8
HETATM    8  C   UNL     1     -10.479  10.052  70.214  1.00  0.00    -0.272 C  
HETATM    9  O   UNL     1      -9.294   9.728  70.270  1.00  0.00    -0.247 OA 
HETATM   10  H   UNL     1     -11.924  11.370  69.458  1.00  0.00     0.000 HD 
HETATM   11  N   UNL     1     -10.931  11.136  69.472  1.00  0.00    -0.239 N  
BRANCH  11  12
HETATM   12  N   UNL     1     -10.010  11.911  68.739  1.00  0.00    -0.381 NA 
HETATM   13  H   UNL     1      -9.724  11.439  67.882  1.00  0.00     0.000 HD 
BRANCH  12  14
HETATM   14  C   UNL     1     -10.541  13.258  68.463  1.00  0.00    -0.256 C  
BRANCH  14  15
HETATM   15  C   UNL     1     -11.020  13.399  67.034  1.00  0.00    -0.298 A  
HETATM   16  C   UNL     1     -10.234  13.074  65.918  1.00  0.00    -0.292 A  
HETATM   17  O   UNL     1      -8.955  12.581  66.016  1.00  0.00    -0.423 OA 
HETATM   18  C   UNL     1     -10.733  13.234  64.628  1.00  0.00    -0.400 A  
HETATM   19  H   UNL     1      -8.423  12.360  65.260  1.00  0.00     0.000 HD 
HETATM   20  C   UNL     1     -12.007  13.741  64.422  1.00  0.00    -0.445 A  
HETATM   21  O   UNL     1      -9.974  12.879  63.544  1.00  0.00    -0.681 OA 
HETATM   22  H   UNL     1     -10.314  12.988  62.664  1.00  0.00     0.000 HD 
HETATM   23  C   UNL     1     -12.796  14.103  65.501  1.00  0.00    -0.404 A  
HETATM   24  O   UNL     1     -12.487  13.891  63.153  1.00  0.00    -1.121 OA 
HETATM   25  H   UNL     1     -13.361  14.238  63.012  1.00  0.00     0.000 HD 
HETATM   26  C   UNL     1     -12.303  13.935  66.802  1.00  0.00    -0.370 A  
ENDBRANCH  14  15
ENDBRANCH  12  14
ENDBRANCH  11  12
ENDBRANCH   3   8
TORSDOF 5
ENDMDL
MODEL       42
REMARK 921   NORMALIZED FREE ENERGY PREDICTED BY IDOCK:   -5.77 KCAL/MOL
REMARK 922        TOTAL FREE ENERGY PREDICTED BY IDOCK:   -7.90 KCAL/MOL
REMARK 923 INTER-LIGAND FREE ENERGY PREDICTED BY IDOCK:   -7.33 KCAL/MOL
REMARK 924 INTRA-LIGAND FREE ENERGY PREDICTED BY IDOCK:   -0.57 KCAL/MOL
REMARK 927      BINDING AFFINITY PREDICTED BY RF-SCORE:    0.00 PKD
ROOT
HETATM    1  N   UNL     1     -12.532  13.453  62.832  1.00  0.00    -0.837 NA 
HETATM    2  H1  UNL     1     -13.531  13.643  62.921  1.00  0.00     0.000 HD 
HETATM    3  CA  UNL     1     -12.091  12.413  63.804  1.00  0.00    -0.529 C  
HETATM    4  H2  UNL     1     -12.283  13.202  61.875  1.00  0.00     0.000 HD 
ENDROOT
BRANCH   3   5
HETATM    5  C   UNL     1     -10.589  12.127  63.670  1.00  0.00    -0.461 C  
HETATM    6  H   UNL     1      -9.451  10.553  63.360  1.00  0.00     0.000 HD 
HETATM    7  O   UNL     1     -10.380  10.730  63.443  1.00  0.00    -0.299 OA 
ENDBRANCH   3   5
BRANCH   3   8
HETATM    8  C   UNL     1     -12.438  12.833  65.235  1.00  0.00    -0.465 C  
HETATM    9  O   UNL     1     -13.181  13.772  65.515  1.00  0.00    -0.662 OA 
HETATM   10  H   UNL     1     -11.166  11.314  65.921  1.00  0.00     0.000 HD 
HETATM   11  N   UNL     1     -11.776  12.082  66.200  1.00  0.00    -0.322 N  
BRANCH  11  12
HETATM   12  N   UNL     1     -11.953  12.389  67.564  1.00  0.00    -0.506 NA 
HETATM   13  H   UNL     1     -12.282  11.579  68.089  1.00  0.00     0.000 HD 
BRANCH  12  14
HETATM   14  C   UNL     1     -10.724  12.952  68.151  1.00  0.00    -0.241 C  
BRANCH  14  15
HETATM   15  C   UNL     1     -10.632  14.449  67.949  1.00  0.00    -0.240 A  
HETATM   16  C   UNL     1      -9.939  15.046  66.885  1.00  0.00    -0.244 A  
HETATM   17  O   UNL     1      -9.287  14.326  65.912  1.00  0.00    -0.504 OA 
HETATM   18  C   UNL     1      -9.887  16.432  66.760  1.00  0.00    -0.256 A  
HETATM   19  H   UNL     1      -8.818  14.730  65.192  1.00  0.00     0.000 HD 
HETATM   20  C   UNL     1     -10.498  17.248  67.700  1.00  0.00    -0.363 A  
HETATM   21  O   UNL     1      -9.240  17.006  65.698  1.00  0.00    -0.508 OA 
HETATM   22  H   UNL     1      -9.205  17.952  65.613  1.00  0.00     0.000 HD 
HETATM   23  C   UNL     1     -11.162  16.692  68.780  1.00  0.00    -0.217 A  
HETATM   24  O   UNL     1     -10.444  18.606  67.566  1.00  0.00    -0.388 OA 
HETATM   25  H   UNL     1     -10.863  19.165  68.210  1.00  0.00     0.000 HD 
HETATM   26  C   UNL     1     -11.227  15.298  68.906  1.00  0.00    -0.291 A  
ENDBRANCH  14  15
ENDBRANCH  12  14
ENDBRANCH  11  12
ENDBRANCH   3   8
TORSDOF 5
ENDMDL
MODEL       43
REMARK 921   NORMALIZED FREE ENERGY PREDICTED BY IDOCK:   -5.76 KCAL/MOL
REMARK 922        TOTAL FREE ENERGY PREDICTED BY IDOCK:   -7.89 KCAL/MOL
REMARK 923 INTER-LIGAND FREE ENERGY PREDICTED BY IDOCK:   -7.18 KCAL/MOL
REMARK 924 INTRA-LIGAND FREE ENERGY PREDICTED BY IDOCK:   -0.71 KCAL/MOL
REMARK 927      BINDING AFFINITY PREDICTED BY RF-SCORE:    0.00 PKD
ROOT
HETATM    1  N   UNL     1     -11.796  11.755  66.850  1.00  0.00    -0.585 NA 
HETATM    2  H1  UNL     1     -10.943  11.580  67.383  1.00  0.00     0.000 HD 
HETATM    3  CA  UNL     1     -11.500  12.475  65.578  1.00  0.00    -0.350 C  
HETATM    4  H2  UNL     1     -12.314  10.892  66.680  1.00  0.00     0.000 HD 
ENDROOT
BRANCH   3   5
HETATM    5  C   UNL     1     -12.781  12.737  64.776  1.00  0.00    -0.393 C  
HETATM    6  H   UNL     1     -13.239  13.322  62.955  1.00  0.00     0.000 HD 
HETATM    7  O   UNL     1     -12.446  13.160  63.451  1.00  0.00    -0.730 OA 
ENDBRANCH   3   5
BRANCH   3   8
HETATM    8  C   UNL     1     -10.759  13.785  65.862  1.00  0.00    -0.285 C  
HETATM    9  O   UNL     1     -10.120  14.410  65.017  1.00  0.00    -0.390 OA 
HETATM   10  H   UNL     1     -11.367  13.620  67.862  1.00  0.00     0.000 HD 
HETATM   11  N   UNL     1     -10.827  14.172  67.195  1.00  0.00    -0.287 N  
BRANCH  11  12
HETATM   12  N   UNL     1     -10.146  15.330  67.620  1.00  0.00    -0.234 NA 
HETATM   13  H   UNL     1      -9.260  15.444  67.129  1.00  0.00     0.000 HD 
BRANCH  12  14
HETATM   14  C   UNL     1     -10.994  16.529  67.490  1.00  0.00    -0.166 C  
BRANCH  14  15
HETATM   15  C   UNL     1     -10.174  17.786  67.293  1.00  0.00    -0.350 A  
HETATM   16  C   UNL     1      -9.038  17.850  66.473  1.00  0.00    -0.261 A  
HETATM   17  O   UNL     1      -8.565  16.776  65.756  1.00  0.00    -0.485 OA 
HETATM   18  C   UNL     1      -8.324  19.038  66.340  1.00  0.00    -0.307 A  
HETATM   19  H   UNL     1      -7.795  16.819  65.200  1.00  0.00     0.000 HD 
HETATM   20  C   UNL     1      -8.709  20.174  67.036  1.00  0.00    -0.337 A  
HETATM   21  O   UNL     1      -7.237  19.102  65.508  1.00  0.00    -0.443 OA 
HETATM   22  H   UNL     1      -6.750  19.913  65.418  1.00  0.00     0.000 HD 
HETATM   23  C   UNL     1      -9.807  20.137  67.879  1.00  0.00    -0.525 A  
HETATM   24  O   UNL     1      -8.003  21.335  66.895  1.00  0.00    -0.625 OA 
HETATM   25  H   UNL     1      -8.267  22.113  67.372  1.00  0.00     0.000 HD 
HETATM   26  C   UNL     1     -10.535  18.946  68.009  1.00  0.00    -0.427 A  
ENDBRANCH  14  15
ENDBRANCH  12  14
ENDBRANCH  11  12
ENDBRANCH   3   8
TORSDOF 5
ENDMDL
MODEL       44
REMARK 921   NORMALIZED FREE ENERGY PREDICTED BY IDOCK:   -5.76 KCAL/MOL
REMARK 922        TOTAL FREE ENERGY PREDICTED BY IDOCK:   -7.89 KCAL/MOL
REMARK 923 INTER-LIGAND FREE ENERGY PREDICTED BY IDOCK:   -7.59 KCAL/MOL
REMARK 924 INTRA-LIGAND FREE ENERGY PREDICTED BY IDOCK:   -0.30 KCAL/MOL
REMARK 927      BINDING AFFINITY PREDICTED BY RF-SCORE:    0.00 PKD
ROOT
HETATM    1  N   UNL     1     -12.594   9.366  72.104  1.00  0.00    -0.365 NA 
HETATM    2  H1  UNL     1     -12.929  10.158  72.654  1.00  0.00     0.000 HD 
HETATM    3  CA  UNL     1     -11.516   9.781  71.162  1.00  0.00    -0.398 C  
HETATM    4  H2  UNL     1     -12.293   8.596  72.702  1.00  0.00     0.000 HD 
ENDROOT
BRANCH   3   5
HETATM    5  C   UNL     1     -11.011   8.591  70.335  1.00  0.00    -0.238 C  
HETATM    6  H   UNL     1     -11.431   6.676  70.173  1.00  0.00     0.000 HD 
HETATM    7  O   UNL     1     -11.744   7.413  70.684  1.00  0.00    -0.290 OA 
ENDBRANCH   3   5
BRANCH   3   8
HETATM    8  C   UNL     1     -12.006  10.908  70.248  1.00  0.00    -0.361 C  
HETATM    9  O   UNL     1     -12.726  11.833  70.622  1.00  0.00    -0.217 OA 
HETATM   10  H   UNL     1     -11.011   9.968  68.660  1.00  0.00     0.000 HD 
HETATM   11  N   UNL     1     -11.606  10.752  68.926  1.00  0.00    -0.294 N  
BRANCH  11  12
HETATM   12  N   UNL     1     -12.027  11.683  67.956  1.00  0.00    -0.609 NA 
HETATM   13  H   UNL     1     -12.106  12.621  68.348  1.00  0.00     0.000 HD 
BRANCH  12  14
HETATM   14  C   UNL     1     -11.145  11.664  66.775  1.00  0.00    -0.309 C  
BRANCH  14  15
HETATM   15  C   UNL     1     -11.188  12.970  66.012  1.00  0.00    -0.320 A  
HETATM   16  C   UNL     1     -10.248  13.997  66.181  1.00  0.00    -0.302 A  
HETATM   17  O   UNL     1      -9.184  13.910  67.048  1.00  0.00    -0.231 OA 
HETATM   18  C   UNL     1     -10.348  15.179  65.451  1.00  0.00    -0.388 A  
HETATM   19  H   UNL     1      -8.548  14.606  67.163  1.00  0.00     0.000 HD 
HETATM   20  C   UNL     1     -11.394  15.372  64.563  1.00  0.00    -0.313 A  
HETATM   21  O   UNL     1      -9.405  16.162  65.594  1.00  0.00    -0.420 OA 
HETATM   22  H   UNL     1      -9.473  16.969  65.096  1.00  0.00     0.000 HD 
HETATM   23  C   UNL     1     -12.358  14.392  64.396  1.00  0.00    -0.428 A  
HETATM   24  O   UNL     1     -11.482  16.534  63.849  1.00  0.00    -1.608 OA 
HETATM   25  H   UNL     1     -12.199  16.666  63.240  1.00  0.00     0.000 HD 
HETATM   26  C   UNL     1     -12.257  13.196  65.120  1.00  0.00    -0.497 A  
ENDBRANCH  14  15
ENDBRANCH  12  14
ENDBRANCH  11  12
ENDBRANCH   3   8
TORSDOF 5
ENDMDL
MODEL       45
REMARK 921   NORMALIZED FREE ENERGY PREDICTED BY IDOCK:   -5.73 KCAL/MOL
REMARK 922        TOTAL FREE ENERGY PREDICTED BY IDOCK:   -7.86 KCAL/MOL
REMARK 923 INTER-LIGAND FREE ENERGY PREDICTED BY IDOCK:   -7.28 KCAL/MOL
REMARK 924 INTRA-LIGAND FREE ENERGY PREDICTED BY IDOCK:   -0.58 KCAL/MOL
REMARK 927      BINDING AFFINITY PREDICTED BY RF-SCORE:    0.00 PKD
ROOT
HETATM    1  N   UNL     1     -14.122  13.616  72.560  1.00  0.00    -0.754 NA 
HETATM    2  H1  UNL     1     -14.285  12.960  71.796  1.00  0.00     0.000 HD 
HETATM    3  CA  UNL     1     -13.776  14.971  72.043  1.00  0.00    -0.446 C  
HETATM    4  H2  UNL     1     -14.916  13.650  73.200  1.00  0.00     0.000 HD 
ENDROOT
BRANCH   3   5
HETATM    5  C   UNL     1     -13.532  15.958  73.192  1.00  0.00    -0.563 C  
HETATM    6  H   UNL     1     -12.418  16.026  74.812  1.00  0.00     0.000 HD 
HETATM    7  O   UNL     1     -12.570  15.415  74.102  1.00  0.00    -0.573 OA 
ENDBRANCH   3   5
BRANCH   3   8
HETATM    8  C   UNL     1     -12.558  14.900  71.119  1.00  0.00    -0.335 C  
HETATM    9  O   UNL     1     -11.923  15.883  70.740  1.00  0.00    -0.377 OA 
HETATM   10  H   UNL     1     -12.827  12.822  71.031  1.00  0.00     0.000 HD 
HETATM   11  N   UNL     1     -12.271  13.608  70.693  1.00  0.00    -0.358 N  
BRANCH  11  12
HETATM   12  N   UNL     1     -11.209  13.391  69.793  1.00  0.00    -0.477 NA 
HETATM   13  H   UNL     1     -10.689  12.546  70.026  1.00  0.00     0.000 HD 
BRANCH  12  14
HETATM   14  C   UNL     1     -11.684  13.366  68.398  1.00  0.00    -0.355 C  
BRANCH  14  15
HETATM   15  C   UNL     1     -11.136  12.181  67.631  1.00  0.00    -0.320 A  
HETATM   16  C   UNL     1     -11.277  10.852  68.055  1.00  0.00    -0.314 A  
HETATM   17  O   UNL     1     -11.942  10.493  69.204  1.00  0.00    -0.504 OA 
HETATM   18  C   UNL     1     -10.742   9.807  67.305  1.00  0.00    -0.227 A  
HETATM   19  H   UNL     1     -12.038   9.593  69.490  1.00  0.00     0.000 HD 
HETATM   20  C   UNL     1     -10.038  10.065  66.139  1.00  0.00    -0.247 A  
HETATM   21  O   UNL     1     -10.916   8.509  67.706  1.00  0.00    -0.495 OA 
HETATM   22  H   UNL     1     -10.551   7.796  67.194  1.00  0.00     0.000 HD 
HETATM   23  C   UNL     1      -9.852  11.368  65.710  1.00  0.00    -0.270 A  
HETATM   24  O   UNL     1      -9.520   9.033  65.410  1.00  0.00    -0.409 OA 
HETATM   25  H   UNL     1      -9.037   9.209  64.610  1.00  0.00     0.000 HD 
HETATM   26  C   UNL     1     -10.397  12.423  66.455  1.00  0.00    -0.255 A  
ENDBRANCH  14  15
ENDBRANCH  12  14
ENDBRANCH  11  12
ENDBRANCH   3   8
TORSDOF 5
ENDMDL
MODEL       46
REMARK 921   NORMALIZED FREE ENERGY PREDICTED BY IDOCK:   -5.72 KCAL/MOL
REMARK 922        TOTAL FREE ENERGY PREDICTED BY IDOCK:   -7.84 KCAL/MOL
REMARK 923 INTER-LIGAND FREE ENERGY PREDICTED BY IDOCK:   -7.14 KCAL/MOL
REMARK 924 INTRA-LIGAND FREE ENERGY PREDICTED BY IDOCK:   -0.70 KCAL/MOL
REMARK 927      BINDING AFFINITY PREDICTED BY RF-SCORE:    0.00 PKD
ROOT
HETATM    1  N   UNL     1      -7.337   9.576  66.341  1.00  0.00    -0.093 NA 
HETATM    2  H1  UNL     1      -6.481  10.048  66.634  1.00  0.00     0.000 HD 
HETATM    3  CA  UNL     1      -8.316  10.542  65.764  1.00  0.00    -0.166 C  
HETATM    4  H2  UNL     1      -7.142   8.810  65.696  1.00  0.00     0.000 HD 
ENDROOT
BRANCH   3   5
HETATM    5  C   UNL     1      -9.603   9.833  65.324  1.00  0.00    -0.300 C  
HETATM    6  H   UNL     1     -11.030  10.139  64.005  1.00  0.00     0.000 HD 
HETATM    7  O   UNL     1     -10.233  10.578  64.277  1.00  0.00    -0.344 OA 
ENDBRANCH   3   5
BRANCH   3   8
HETATM    8  C   UNL     1      -8.625  11.657  66.766  1.00  0.00    -0.180 C  
HETATM    9  O   UNL     1      -7.894  12.627  66.963  1.00  0.00    -0.136 OA 
HETATM   10  H   UNL     1     -10.367  10.615  67.292  1.00  0.00     0.000 HD 
HETATM   11  N   UNL     1      -9.793  11.436  67.486  1.00  0.00    -0.177 N  
BRANCH  11  12
HETATM   12  N   UNL     1     -10.180  12.351  68.486  1.00  0.00    -0.279 NA 
HETATM   13  H   UNL     1      -9.478  13.079  68.618  1.00  0.00     0.000 HD 
BRANCH  12  14
HETATM   14  C   UNL     1     -11.508  12.925  68.203  1.00  0.00    -0.315 C  
BRANCH  14  15
HETATM   15  C   UNL     1     -11.460  13.944  67.084  1.00  0.00    -0.370 A  
HETATM   16  C   UNL     1     -11.983  13.713  65.803  1.00  0.00    -0.395 A  
HETATM   17  O   UNL     1     -12.604  12.540  65.443  1.00  0.00    -0.656 OA 
HETATM   18  C   UNL     1     -11.900  14.691  64.816  1.00  0.00    -0.440 A  
HETATM   19  H   UNL     1     -12.958  12.383  64.576  1.00  0.00     0.000 HD 
HETATM   20  C   UNL     1     -11.278  15.902  65.073  1.00  0.00    -0.290 A  
HETATM   21  O   UNL     1     -12.447  14.472  63.578  1.00  0.00    -1.089 OA 
HETATM   22  H   UNL     1     -12.391  15.139  62.905  1.00  0.00     0.000 HD 
HETATM   23  C   UNL     1     -10.722  16.150  66.318  1.00  0.00    -0.213 A  
HETATM   24  O   UNL     1     -11.206  16.856  64.099  1.00  0.00    -1.386 OA 
HETATM   25  H   UNL     1     -10.779  17.687  64.275  1.00  0.00     0.000 HD 
HETATM   26  C   UNL     1     -10.811  15.173  67.318  1.00  0.00    -0.316 A  
ENDBRANCH  14  15
ENDBRANCH  12  14
ENDBRANCH  11  12
ENDBRANCH   3   8
TORSDOF 5
ENDMDL
MODEL       47
REMARK 921   NORMALIZED FREE ENERGY PREDICTED BY IDOCK:   -5.71 KCAL/MOL
REMARK 922        TOTAL FREE ENERGY PREDICTED BY IDOCK:   -7.83 KCAL/MOL
REMARK 923 INTER-LIGAND FREE ENERGY PREDICTED BY IDOCK:   -7.31 KCAL/MOL
REMARK 924 INTRA-LIGAND FREE ENERGY PREDICTED BY IDOCK:   -0.52 KCAL/MOL
REMARK 927      BINDING AFFINITY PREDICTED BY RF-SCORE:    0.00 PKD
ROOT
HETATM    1  N   UNL     1     -14.203   8.900  73.221  1.00  0.00    -1.237 NA 
HETATM    2  H1  UNL     1     -14.170   9.670  73.891  1.00  0.00     0.000 HD 
HETATM    3  CA  UNL     1     -12.921   8.784  72.469  1.00  0.00    -0.321 C  
HETATM    4  H2  UNL     1     -14.453   8.020  73.673  1.00  0.00     0.000 HD 
ENDROOT
BRANCH   3   5
HETATM    5  C   UNL     1     -12.970   7.628  71.462  1.00  0.00    -0.341 C  
HETATM    6  H   UNL     1     -14.360   6.547  70.585  1.00  0.00     0.000 HD 
HETATM    7  O   UNL     1     -14.330   7.262  71.208  1.00  0.00    -0.402 OA 
ENDBRANCH   3   5
BRANCH   3   8
HETATM    8  C   UNL     1     -12.589  10.103  71.765  1.00  0.00    -0.403 C  
HETATM    9  O   UNL     1     -13.181  11.161  71.973  1.00  0.00    -0.493 OA 
HETATM   10  H   UNL     1     -11.122   9.077  70.673  1.00  0.00     0.000 HD 
HETATM   11  N   UNL     1     -11.584   9.976  70.813  1.00  0.00    -0.332 N  
BRANCH  11  12
HETATM   12  N   UNL     1     -11.207  11.095  70.045  1.00  0.00    -0.451 NA 
HETATM   13  H   UNL     1     -10.201  11.116  69.883  1.00  0.00     0.000 HD 
BRANCH  12  14
HETATM   14  C   UNL     1     -11.960  11.154  68.778  1.00  0.00    -0.268 C  
BRANCH  14  15
HETATM   15  C   UNL     1     -11.717  12.449  68.033  1.00  0.00    -0.414 A  
HETATM   16  C   UNL     1     -11.642  13.702  68.659  1.00  0.00    -0.329 A  
HETATM   17  O   UNL     1     -11.770  13.874  70.017  1.00  0.00    -0.295 OA 
HETATM   18  C   UNL     1     -11.423  14.857  67.913  1.00  0.00    -0.340 A  
HETATM   19  H   UNL     1     -11.719  14.722  70.442  1.00  0.00     0.000 HD 
HETATM   20  C   UNL     1     -11.299  14.792  66.534  1.00  0.00    -0.344 A  
HETATM   21  O   UNL     1     -11.314  16.072  68.536  1.00  0.00    -0.360 OA 
HETATM   22  H   UNL     1     -11.164  16.860  68.027  1.00  0.00     0.000 HD 
HETATM   23  C   UNL     1     -11.400  13.576  65.880  1.00  0.00    -0.321 A  
HETATM   24  O   UNL     1     -11.080  15.931  65.812  1.00  0.00    -0.216 OA 
HETATM   25  H   UNL     1     -10.995  15.887  64.866  1.00  0.00     0.000 HD 
HETATM   26  C   UNL     1     -11.611  12.409  66.627  1.00  0.00    -0.447 A  
ENDBRANCH  14  15
ENDBRANCH  12  14
ENDBRANCH  11  12
ENDBRANCH   3   8
TORSDOF 5
ENDMDL
MODEL       48
REMARK 921   NORMALIZED FREE ENERGY PREDICTED BY IDOCK:   -5.67 KCAL/MOL
REMARK 922        TOTAL FREE ENERGY PREDICTED BY IDOCK:   -7.77 KCAL/MOL
REMARK 923 INTER-LIGAND FREE ENERGY PREDICTED BY IDOCK:   -7.40 KCAL/MOL
REMARK 924 INTRA-LIGAND FREE ENERGY PREDICTED BY IDOCK:   -0.37 KCAL/MOL
REMARK 927      BINDING AFFINITY PREDICTED BY RF-SCORE:    0.00 PKD
ROOT
HETATM    1  N   UNL     1     -11.525   4.604  65.216  1.00  0.00    -1.096 NA 
HETATM    2  H1  UNL     1     -12.398   4.496  65.734  1.00  0.00     0.000 HD 
HETATM    3  CA  UNL     1     -10.357   4.690  66.138  1.00  0.00    -0.275 C  
HETATM    4  H2  UNL     1     -11.405   3.861  64.527  1.00  0.00     0.000 HD 
ENDROOT
BRANCH   3   5
HETATM    5  C   UNL     1      -9.045   4.852  65.360  1.00  0.00    -0.155 C  
HETATM    6  H   UNL     1      -7.338   3.886  65.210  1.00  0.00     0.000 HD 
HETATM    7  O   UNL     1      -8.150   3.786  65.691  1.00  0.00    -0.093 OA 
ENDBRANCH   3   5
BRANCH   3   8
HETATM    8  C   UNL     1     -10.543   5.838  67.135  1.00  0.00    -0.291 C  
HETATM    9  O   UNL     1     -11.080   6.909  66.858  1.00  0.00    -0.379 OA 
HETATM   10  H   UNL     1      -9.545   4.672  68.564  1.00  0.00     0.000 HD 
HETATM   11  N   UNL     1      -9.984   5.574  68.380  1.00  0.00    -0.149 N  
BRANCH  11  12
HETATM   12  N   UNL     1     -10.027   6.560  69.386  1.00  0.00    -0.155 NA 
HETATM   13  H   UNL     1     -10.029   7.499  68.989  1.00  0.00     0.000 HD 
BRANCH  12  14
HETATM   14  C   UNL     1     -11.173   6.354  70.291  1.00  0.00    -0.382 C  
BRANCH  14  15
HETATM   15  C   UNL     1     -11.724   7.662  70.817  1.00  0.00    -0.260 A  
HETATM   16  C   UNL     1     -12.698   7.744  71.823  1.00  0.00    -0.329 A  
HETATM   17  O   UNL     1     -13.238   6.640  72.441  1.00  0.00    -0.492 OA 
HETATM   18  C   UNL     1     -13.168   8.981  72.257  1.00  0.00    -0.460 A  
HETATM   19  H   UNL     1     -13.897   6.695  73.122  1.00  0.00     0.000 HD 
HETATM   20  C   UNL     1     -12.700  10.153  71.685  1.00  0.00    -0.447 A  
HETATM   21  O   UNL     1     -14.092   9.053  73.266  1.00  0.00    -1.218 OA 
HETATM   22  H   UNL     1     -14.413   9.897  73.563  1.00  0.00     0.000 HD 
HETATM   23  C   UNL     1     -11.763  10.107  70.667  1.00  0.00    -0.425 A  
HETATM   24  O   UNL     1     -13.165  11.361  72.121  1.00  0.00    -0.576 OA 
HETATM   25  H   UNL     1     -12.844  12.165  71.729  1.00  0.00     0.000 HD 
HETATM   26  C   UNL     1     -11.279   8.866  70.233  1.00  0.00    -0.219 A  
ENDBRANCH  14  15
ENDBRANCH  12  14
ENDBRANCH  11  12
ENDBRANCH   3   8
TORSDOF 5
ENDMDL
MODEL       49
REMARK 921   NORMALIZED FREE ENERGY PREDICTED BY IDOCK:   -5.62 KCAL/MOL
REMARK 922        TOTAL FREE ENERGY PREDICTED BY IDOCK:   -7.70 KCAL/MOL
REMARK 923 INTER-LIGAND FREE ENERGY PREDICTED BY IDOCK:   -7.60 KCAL/MOL
REMARK 924 INTRA-LIGAND FREE ENERGY PREDICTED BY IDOCK:   -0.10 KCAL/MOL
REMARK 927      BINDING AFFINITY PREDICTED BY RF-SCORE:    0.00 PKD
ROOT
HETATM    1  N   UNL     1     -12.747  10.816  69.586  1.00  0.00    -0.528 NA 
HETATM    2  H1  UNL     1     -12.798  11.724  69.123  1.00  0.00     0.000 HD 
HETATM    3  CA  UNL     1     -11.335  10.435  69.874  1.00  0.00    -0.302 C  
HETATM    4  H2  UNL     1     -13.321  10.792  70.428  1.00  0.00     0.000 HD 
ENDROOT
BRANCH   3   5
HETATM    5  C   UNL     1     -11.257   9.070  70.570  1.00  0.00    -0.260 C  
HETATM    6  H   UNL     1     -12.303   8.084  71.914  1.00  0.00     0.000 HD 
HETATM    7  O   UNL     1     -12.350   8.929  71.483  1.00  0.00    -0.298 OA 
ENDBRANCH   3   5
BRANCH   3   8
HETATM    8  C   UNL     1     -10.503  10.437  68.588  1.00  0.00    -0.196 C  
HETATM    9  O   UNL     1      -9.310  10.141  68.540  1.00  0.00    -0.143 OA 
HETATM   10  H   UNL     1     -12.206  11.110  67.565  1.00  0.00     0.000 HD 
HETATM   11  N   UNL     1     -11.218  10.871  67.478  1.00  0.00    -0.315 N  
BRANCH  11  12
HETATM   12  N   UNL     1     -10.570  10.979  66.231  1.00  0.00    -0.254 NA 
HETATM   13  H   UNL     1     -10.333  10.063  65.852  1.00  0.00     0.000 HD 
BRANCH  12  14
HETATM   14  C   UNL     1     -11.369  11.769  65.277  1.00  0.00    -0.222 C  
BRANCH  14  15
HETATM   15  C   UNL     1     -11.068  13.250  65.373  1.00  0.00    -0.300 A  
HETATM   16  C   UNL     1     -11.523  14.195  64.442  1.00  0.00    -0.332 A  
HETATM   17  O   UNL     1     -12.300  13.868  63.355  1.00  0.00    -1.063 OA 
HETATM   18  C   UNL     1     -11.205  15.543  64.585  1.00  0.00    -0.371 A  
HETATM   19  H   UNL     1     -12.608  14.508  62.724  1.00  0.00     0.000 HD 
HETATM   20  C   UNL     1     -10.411  15.972  65.637  1.00  0.00    -0.397 A  
HETATM   21  O   UNL     1     -11.684  16.465  63.691  1.00  0.00    -1.520 OA 
HETATM   22  H   UNL     1     -11.467  17.385  63.789  1.00  0.00     0.000 HD 
HETATM   23  C   UNL     1      -9.919  15.061  66.556  1.00  0.00    -0.276 A  
HETATM   24  O   UNL     1     -10.108  17.297  65.770  1.00  0.00    -0.533 OA 
HETATM   25  H   UNL     1      -9.564  17.591  66.492  1.00  0.00     0.000 HD 
HETATM   26  C   UNL     1     -10.244  13.704  66.423  1.00  0.00    -0.292 A  
ENDBRANCH  14  15
ENDBRANCH  12  14
ENDBRANCH  11  12
ENDBRANCH   3   8
TORSDOF 5
ENDMDL
MODEL       50
REMARK 921   NORMALIZED FREE ENERGY PREDICTED BY IDOCK:   -5.61 KCAL/MOL
REMARK 922        TOTAL FREE ENERGY PREDICTED BY IDOCK:   -7.70 KCAL/MOL
REMARK 923 INTER-LIGAND FREE ENERGY PREDICTED BY IDOCK:   -6.91 KCAL/MOL
REMARK 924 INTRA-LIGAND FREE ENERGY PREDICTED BY IDOCK:   -0.79 KCAL/MOL
REMARK 927      BINDING AFFINITY PREDICTED BY RF-SCORE:    0.00 PKD
ROOT
HETATM    1  N   UNL     1     -12.242  15.699  63.615  1.00  0.00    -0.932 NA 
HETATM    2  H1  UNL     1     -12.211  16.528  64.210  1.00  0.00     0.000 HD 
HETATM    3  CA  UNL     1     -12.057  14.454  64.414  1.00  0.00    -0.470 C  
HETATM    4  H2  UNL     1     -13.099  15.666  63.063  1.00  0.00     0.000 HD 
ENDROOT
BRANCH   3   5
HETATM    5  C   UNL     1     -12.104  13.208  63.521  1.00  0.00    -0.514 C  
HETATM    6  H   UNL     1     -13.103  11.515  63.473  1.00  0.00     0.000 HD 
HETATM    7  O   UNL     1     -13.075  12.286  64.026  1.00  0.00    -0.764 OA 
ENDBRANCH   3   5
BRANCH   3   8
HETATM    8  C   UNL     1     -10.745  14.510  65.201  1.00  0.00    -0.406 C  
HETATM    9  O   UNL     1     -10.124  15.547  65.430  1.00  0.00    -0.356 OA 
HETATM   10  H   UNL     1     -10.830  12.422  65.369  1.00  0.00     0.000 HD 
HETATM   11  N   UNL     1     -10.284  13.256  65.583  1.00  0.00    -0.288 N  
BRANCH  11  12
HETATM   12  N   UNL     1      -9.057  13.143  66.267  1.00  0.00    -0.457 NA 
HETATM   13  H   UNL     1      -8.660  14.058  66.477  1.00  0.00     0.000 HD 
BRANCH  12  14
HETATM   14  C   UNL     1      -9.195  12.322  67.484  1.00  0.00    -0.181 C  
BRANCH  14  15
HETATM   15  C   UNL     1     -10.185  12.917  68.463  1.00  0.00    -0.210 A  
HETATM   16  C   UNL     1     -10.237  14.282  68.778  1.00  0.00    -0.226 A  
HETATM   17  O   UNL     1      -9.400  15.218  68.217  1.00  0.00    -0.188 OA 
HETATM   18  C   UNL     1     -11.169  14.764  69.694  1.00  0.00    -0.275 A  
HETATM   19  H   UNL     1      -9.436  16.143  68.430  1.00  0.00     0.000 HD 
HETATM   20  C   UNL     1     -12.046  13.899  70.328  1.00  0.00    -0.353 A  
HETATM   21  O   UNL     1     -11.238  16.105  69.968  1.00  0.00    -0.334 OA 
HETATM   22  H   UNL     1     -11.875  16.434  70.593  1.00  0.00     0.000 HD 
HETATM   23  C   UNL     1     -12.000  12.540  70.064  1.00  0.00    -0.372 A  
HETATM   24  O   UNL     1     -12.959  14.383  71.222  1.00  0.00    -0.312 OA 
HETATM   25  H   UNL     1     -13.560  13.790  71.657  1.00  0.00     0.000 HD 
HETATM   26  C   UNL     1     -11.071  12.051  69.137  1.00  0.00    -0.272 A  
ENDBRANCH  14  15
ENDBRANCH  12  14
ENDBRANCH  11  12
ENDBRANCH   3   8
TORSDOF 5
ENDMDL
MODEL       51
REMARK 921   NORMALIZED FREE ENERGY PREDICTED BY IDOCK:   -5.60 KCAL/MOL
REMARK 922        TOTAL FREE ENERGY PREDICTED BY IDOCK:   -7.69 KCAL/MOL
REMARK 923 INTER-LIGAND FREE ENERGY PREDICTED BY IDOCK:   -7.18 KCAL/MOL
REMARK 924 INTRA-LIGAND FREE ENERGY PREDICTED BY IDOCK:   -0.51 KCAL/MOL
REMARK 927      BINDING AFFINITY PREDICTED BY RF-SCORE:    0.00 PKD
ROOT
HETATM    1  N   UNL     1     -11.156   4.934  65.456  1.00  0.00    -0.884 NA 
HETATM    2  H1  UNL     1     -12.155   4.936  65.665  1.00  0.00     0.000 HD 
HETATM    3  CA  UNL     1     -10.346   5.114  66.695  1.00  0.00    -0.281 C  
HETATM    4  H2  UNL     1     -10.881   4.094  64.947  1.00  0.00     0.000 HD 
ENDROOT
BRANCH   3   5
HETATM    5  C   UNL     1      -8.844   5.111  66.383  1.00  0.00    -0.120 C  
HETATM    6  H   UNL     1      -7.169   4.910  67.394  1.00  0.00     0.000 HD 
HETATM    7  O   UNL     1      -8.098   4.912  67.588  1.00  0.00    -0.094 OA 
ENDBRANCH   3   5
BRANCH   3   8
HETATM    8  C   UNL     1     -10.748   6.402  67.419  1.00  0.00    -0.336 C  
HETATM    9  O   UNL     1     -11.344   6.429  68.495  1.00  0.00    -0.303 OA 
HETATM   10  H   UNL     1      -9.936   7.481  65.815  1.00  0.00     0.000 HD 
HETATM   11  N   UNL     1     -10.428   7.551  66.705  1.00  0.00    -0.294 N  
BRANCH  11  12
HETATM   12  N   UNL     1     -10.787   8.813  67.220  1.00  0.00    -0.418 NA 
HETATM   13  H   UNL     1     -10.904   8.784  68.232  1.00  0.00     0.000 HD 
BRANCH  12  14
HETATM   14  C   UNL     1      -9.821   9.851  66.817  1.00  0.00    -0.201 C  
BRANCH  14  15
HETATM   15  C   UNL     1     -10.389  10.780  65.766  1.00  0.00    -0.295 A  
HETATM   16  C   UNL     1     -11.380  11.736  66.031  1.00  0.00    -0.273 A  
HETATM   17  O   UNL     1     -11.922  11.933  67.279  1.00  0.00    -0.605 OA 
HETATM   18  C   UNL     1     -11.865  12.556  65.015  1.00  0.00    -0.396 A  
HETATM   19  H   UNL     1     -12.593  12.582  67.458  1.00  0.00     0.000 HD 
HETATM   20  C   UNL     1     -11.395  12.424  63.718  1.00  0.00    -0.464 A  
HETATM   21  O   UNL     1     -12.806  13.513  65.289  1.00  0.00    -0.660 OA 
HETATM   22  H   UNL     1     -13.137  14.073  64.596  1.00  0.00     0.000 HD 
HETATM   23  C   UNL     1     -10.441  11.467  63.415  1.00  0.00    -0.466 A  
HETATM   24  O   UNL     1     -11.876  13.235  62.729  1.00  0.00    -0.675 OA 
HETATM   25  H   UNL     1     -11.553  13.145  61.840  1.00  0.00     0.000 HD 
HETATM   26  C   UNL     1      -9.942  10.646  64.435  1.00  0.00    -0.415 A  
ENDBRANCH  14  15
ENDBRANCH  12  14
ENDBRANCH  11  12
ENDBRANCH   3   8
TORSDOF 5
ENDMDL
MODEL       52
REMARK 921   NORMALIZED FREE ENERGY PREDICTED BY IDOCK:   -5.57 KCAL/MOL
REMARK 922        TOTAL FREE ENERGY PREDICTED BY IDOCK:   -7.65 KCAL/MOL
REMARK 923 INTER-LIGAND FREE ENERGY PREDICTED BY IDOCK:   -7.38 KCAL/MOL
REMARK 924 INTRA-LIGAND FREE ENERGY PREDICTED BY IDOCK:   -0.26 KCAL/MOL
REMARK 927      BINDING AFFINITY PREDICTED BY RF-SCORE:    0.00 PKD
ROOT
HETATM    1  N   UNL     1     -14.027   8.983  73.029  1.00  0.00    -1.141 NA 
HETATM    2  H1  UNL     1     -14.172   9.700  73.740  1.00  0.00     0.000 HD 
HETATM    3  CA  UNL     1     -12.737   9.188  72.310  1.00  0.00    -0.377 C  
HETATM    4  H2  UNL     1     -14.091   8.045  73.424  1.00  0.00     0.000 HD 
ENDROOT
BRANCH   3   5
HETATM    5  C   UNL     1     -12.519   8.110  71.241  1.00  0.00    -0.252 C  
HETATM    6  H   UNL     1     -12.143   6.179  71.206  1.00  0.00     0.000 HD 
HETATM    7  O   UNL     1     -12.279   6.846  71.868  1.00  0.00    -0.322 OA 
ENDBRANCH   3   5
BRANCH   3   8
HETATM    8  C   UNL     1     -12.683  10.587  71.690  1.00  0.00    -0.445 C  
HETATM    9  O   UNL     1     -13.322  11.550  72.111  1.00  0.00    -0.477 OA 
HETATM   10  H   UNL     1     -11.372   9.825  70.242  1.00  0.00     0.000 HD 
HETATM   11  N   UNL     1     -11.882  10.650  70.556  1.00  0.00    -0.329 N  
BRANCH  11  12
HETATM   12  N   UNL     1     -11.777  11.862  69.844  1.00  0.00    -0.414 NA 
HETATM   13  H   UNL     1     -11.033  12.451  70.216  1.00  0.00     0.000 HD 
BRANCH  12  14
HETATM   14  C   UNL     1     -11.606  11.622  68.400  1.00  0.00    -0.312 C  
BRANCH  14  15
HETATM   15  C   UNL     1     -11.171  12.872  67.664  1.00  0.00    -0.317 A  
HETATM   16  C   UNL     1     -11.533  13.157  66.339  1.00  0.00    -0.334 A  
HETATM   17  O   UNL     1     -12.333  12.333  65.583  1.00  0.00    -0.619 OA 
HETATM   18  C   UNL     1     -11.093  14.323  65.718  1.00  0.00    -0.310 A  
HETATM   19  H   UNL     1     -12.579  12.526  64.686  1.00  0.00     0.000 HD 
HETATM   20  C   UNL     1     -10.268  15.211  66.390  1.00  0.00    -0.281 A  
HETATM   21  O   UNL     1     -11.482  14.612  64.437  1.00  0.00    -0.572 OA 
HETATM   22  H   UNL     1     -11.182  15.408  64.013  1.00  0.00     0.000 HD 
HETATM   23  C   UNL     1      -9.864  14.944  67.687  1.00  0.00    -0.217 A  
HETATM   24  O   UNL     1      -9.845  16.353  65.772  1.00  0.00    -0.421 OA 
HETATM   25  H   UNL     1      -9.279  16.962  66.233  1.00  0.00     0.000 HD 
HETATM   26  C   UNL     1     -10.312  13.777  68.321  1.00  0.00    -0.247 A  
ENDBRANCH  14  15
ENDBRANCH  12  14
ENDBRANCH  11  12
ENDBRANCH   3   8
TORSDOF 5
ENDMDL
MODEL       53
REMARK 921   NORMALIZED FREE ENERGY PREDICTED BY IDOCK:   -5.56 KCAL/MOL
REMARK 922        TOTAL FREE ENERGY PREDICTED BY IDOCK:   -7.63 KCAL/MOL
REMARK 923 INTER-LIGAND FREE ENERGY PREDICTED BY IDOCK:   -7.66 KCAL/MOL
REMARK 924 INTRA-LIGAND FREE ENERGY PREDICTED BY IDOCK:    0.02 KCAL/MOL
REMARK 927      BINDING AFFINITY PREDICTED BY RF-SCORE:    0.00 PKD
ROOT
HETATM    1  N   UNL     1     -12.062  15.714  71.422  1.00  0.00    -0.378 NA 
HETATM    2  H1  UNL     1     -12.667  15.245  72.097  1.00  0.00     0.000 HD 
HETATM    3  CA  UNL     1     -12.384  15.297  70.027  1.00  0.00    -0.328 C  
HETATM    4  H2  UNL     1     -12.099  16.729  71.527  1.00  0.00     0.000 HD 
ENDROOT
BRANCH   3   5
HETATM    5  C   UNL     1     -11.476  16.002  69.012  1.00  0.00    -0.360 C  
HETATM    6  H   UNL     1     -10.098  17.406  69.052  1.00  0.00     0.000 HD 
HETATM    7  O   UNL     1     -10.660  16.969  69.681  1.00  0.00    -0.281 OA 
ENDBRANCH   3   5
BRANCH   3   8
HETATM    8  C   UNL     1     -12.281  13.776  69.884  1.00  0.00    -0.321 C  
HETATM    9  O   UNL     1     -12.363  12.989  70.826  1.00  0.00    -0.363 OA 
HETATM   10  H   UNL     1     -11.958  14.056  67.831  1.00  0.00     0.000 HD 
HETATM   11  N   UNL     1     -12.021  13.367  68.581  1.00  0.00    -0.351 N  
BRANCH  11  12
HETATM   12  N   UNL     1     -11.845  11.997  68.303  1.00  0.00    -0.425 NA 
HETATM   13  H   UNL     1     -12.708  11.473  68.444  1.00  0.00     0.000 HD 
BRANCH  12  14
HETATM   14  C   UNL     1     -11.302  11.790  66.948  1.00  0.00    -0.320 C  
BRANCH  14  15
HETATM   15  C   UNL     1     -11.328  13.060  66.125  1.00  0.00    -0.349 A  
HETATM   16  C   UNL     1     -10.352  14.062  66.215  1.00  0.00    -0.293 A  
HETATM   17  O   UNL     1      -9.264  13.982  67.053  1.00  0.00    -0.233 OA 
HETATM   18  C   UNL     1     -10.439  15.211  65.432  1.00  0.00    -0.393 A  
HETATM   19  H   UNL     1      -8.603  14.661  67.113  1.00  0.00     0.000 HD 
HETATM   20  C   UNL     1     -11.506  15.396  64.568  1.00  0.00    -0.311 A  
HETATM   21  O   UNL     1      -9.461  16.168  65.499  1.00  0.00    -0.428 OA 
HETATM   22  H   UNL     1      -9.520  16.952  64.965  1.00  0.00     0.000 HD 
HETATM   23  C   UNL     1     -12.505  14.441  64.478  1.00  0.00    -0.362 A  
HETATM   24  O   UNL     1     -11.580  16.524  63.802  1.00  0.00    -1.617 OA 
HETATM   25  H   UNL     1     -12.312  16.651  63.210  1.00  0.00     0.000 HD 
HETATM   26  C   UNL     1     -12.418  13.278  65.256  1.00  0.00    -0.543 A  
ENDBRANCH  14  15
ENDBRANCH  12  14
ENDBRANCH  11  12
ENDBRANCH   3   8
TORSDOF 5
ENDMDL
MODEL       54
REMARK 921   NORMALIZED FREE ENERGY PREDICTED BY IDOCK:   -5.55 KCAL/MOL
REMARK 922        TOTAL FREE ENERGY PREDICTED BY IDOCK:   -7.63 KCAL/MOL
REMARK 923 INTER-LIGAND FREE ENERGY PREDICTED BY IDOCK:   -7.38 KCAL/MOL
REMARK 924 INTRA-LIGAND FREE ENERGY PREDICTED BY IDOCK:   -0.25 KCAL/MOL
REMARK 927      BINDING AFFINITY PREDICTED BY RF-SCORE:    0.00 PKD
ROOT
HETATM    1  N   UNL     1     -12.640  14.524  63.515  1.00  0.00    -0.977 NA 
HETATM    2  H1  UNL     1     -13.377  15.224  63.602  1.00  0.00     0.000 HD 
HETATM    3  CA  UNL     1     -11.716  14.565  64.685  1.00  0.00    -0.431 C  
HETATM    4  H2  UNL     1     -13.025  13.589  63.374  1.00  0.00     0.000 HD 
ENDROOT
BRANCH   3   5
HETATM    5  C   UNL     1     -10.607  13.512  64.555  1.00  0.00    -0.424 C  
HETATM    6  H   UNL     1     -10.280  11.899  63.478  1.00  0.00     0.000 HD 
HETATM    7  O   UNL     1     -10.966  12.551  63.558  1.00  0.00    -0.445 OA 
ENDBRANCH   3   5
BRANCH   3   8
HETATM    8  C   UNL     1     -11.120  15.965  64.850  1.00  0.00    -0.389 C  
HETATM    9  O   UNL     1     -11.477  16.946  64.200  1.00  0.00    -1.174 OA 
HETATM   10  H   UNL     1      -9.816  15.170  66.288  1.00  0.00     0.000 HD 
HETATM   11  N   UNL     1     -10.081  16.010  65.773  1.00  0.00    -0.347 N  
BRANCH  11  12
HETATM   12  N   UNL     1      -9.397  17.222  65.993  1.00  0.00    -0.507 NA 
HETATM   13  H   UNL     1      -9.823  17.761  66.745  1.00  0.00     0.000 HD 
BRANCH  12  14
HETATM   14  C   UNL     1      -7.962  16.990  66.240  1.00  0.00    -0.308 C  
BRANCH  14  15
HETATM   15  C   UNL     1      -7.405  17.935  67.284  1.00  0.00    -0.209 A  
HETATM   16  C   UNL     1      -6.731  17.507  68.436  1.00  0.00    -0.193 A  
HETATM   17  O   UNL     1      -6.497  16.183  68.724  1.00  0.00    -0.114 OA 
HETATM   18  C   UNL     1      -6.249  18.429  69.362  1.00  0.00    -0.259 A  
HETATM   19  H   UNL     1      -6.040  15.892  69.505  1.00  0.00     0.000 HD 
HETATM   20  C   UNL     1      -6.449  19.788  69.172  1.00  0.00    -0.327 A  
HETATM   21  O   UNL     1      -5.559  18.004  70.466  1.00  0.00    -0.246 OA 
HETATM   22  H   UNL     1      -5.230  18.634  71.097  1.00  0.00     0.000 HD 
HETATM   23  C   UNL     1      -7.139  20.243  68.061  1.00  0.00    -0.316 A  
HETATM   24  O   UNL     1      -5.969  20.684  70.084  1.00  0.00    -0.462 OA 
HETATM   25  H   UNL     1      -6.106  21.616  69.954  1.00  0.00     0.000 HD 
HETATM   26  C   UNL     1      -7.618  19.320  67.122  1.00  0.00    -0.250 A  
ENDBRANCH  14  15
ENDBRANCH  12  14
ENDBRANCH  11  12
ENDBRANCH   3   8
TORSDOF 5
ENDMDL
MODEL       55
REMARK 921   NORMALIZED FREE ENERGY PREDICTED BY IDOCK:   -5.55 KCAL/MOL
REMARK 922        TOTAL FREE ENERGY PREDICTED BY IDOCK:   -7.62 KCAL/MOL
REMARK 923 INTER-LIGAND FREE ENERGY PREDICTED BY IDOCK:   -7.22 KCAL/MOL
REMARK 924 INTRA-LIGAND FREE ENERGY PREDICTED BY IDOCK:   -0.39 KCAL/MOL
REMARK 927      BINDING AFFINITY PREDICTED BY RF-SCORE:    0.00 PKD
ROOT
HETATM    1  N   UNL     1     -11.175   8.560  69.361  1.00  0.00    -0.431 NA 
HETATM    2  H1  UNL     1     -12.177   8.371  69.396  1.00  0.00     0.000 HD 
HETATM    3  CA  UNL     1     -10.845   9.852  70.029  1.00  0.00    -0.294 C  
HETATM    4  H2  UNL     1     -10.634   7.788  69.750  1.00  0.00     0.000 HD 
ENDROOT
BRANCH   3   5
HETATM    5  C   UNL     1      -9.338  10.136  69.976  1.00  0.00    -0.013 C  
HETATM    6  H   UNL     1      -7.722   9.477  70.884  1.00  0.00     0.000 HD 
HETATM    7  O   UNL     1      -8.654   9.301  70.916  1.00  0.00    -0.207 OA 
ENDBRANCH   3   5
BRANCH   3   8
HETATM    8  C   UNL     1     -11.637  11.001  69.399  1.00  0.00    -0.312 C  
HETATM    9  O   UNL     1     -12.646  10.845  68.712  1.00  0.00    -0.317 OA 
HETATM   10  H   UNL     1     -10.226  12.328  70.202  1.00  0.00     0.000 HD 
HETATM   11  N   UNL     1     -11.066  12.247  69.628  1.00  0.00    -0.041 N  
BRANCH  11  12
HETATM   12  N   UNL     1     -11.653  13.397  69.064  1.00  0.00    -0.290 NA 
HETATM   13  H   UNL     1     -12.040  14.009  69.781  1.00  0.00     0.000 HD 
BRANCH  12  14
HETATM   14  C   UNL     1     -10.701  14.115  68.196  1.00  0.00    -0.245 C  
BRANCH  14  15
HETATM   15  C   UNL     1     -11.161  14.148  66.754  1.00  0.00    -0.330 A  
HETATM   16  C   UNL     1     -11.086  15.290  65.943  1.00  0.00    -0.287 A  
HETATM   17  O   UNL     1     -10.574  16.490  66.377  1.00  0.00    -0.295 OA 
HETATM   18  C   UNL     1     -11.534  15.255  64.625  1.00  0.00    -0.354 A  
HETATM   19  H   UNL     1     -10.523  17.263  65.828  1.00  0.00     0.000 HD 
HETATM   20  C   UNL     1     -12.084  14.097  64.098  1.00  0.00    -0.406 A  
HETATM   21  O   UNL     1     -11.423  16.364  63.828  1.00  0.00    -1.590 OA 
HETATM   22  H   UNL     1     -11.728  16.340  62.928  1.00  0.00     0.000 HD 
HETATM   23  C   UNL     1     -12.203  12.962  64.881  1.00  0.00    -0.504 A  
HETATM   24  O   UNL     1     -12.516  14.073  62.802  1.00  0.00    -0.867 OA 
HETATM   25  H   UNL     1     -12.894  13.279  62.441  1.00  0.00     0.000 HD 
HETATM   26  C   UNL     1     -11.745  12.988  66.205  1.00  0.00    -0.440 A  
ENDBRANCH  14  15
ENDBRANCH  12  14
ENDBRANCH  11  12
ENDBRANCH   3   8
TORSDOF 5
ENDMDL
MODEL       56
REMARK 921   NORMALIZED FREE ENERGY PREDICTED BY IDOCK:   -5.54 KCAL/MOL
REMARK 922        TOTAL FREE ENERGY PREDICTED BY IDOCK:   -7.61 KCAL/MOL
REMARK 923 INTER-LIGAND FREE ENERGY PREDICTED BY IDOCK:   -7.20 KCAL/MOL
REMARK 924 INTRA-LIGAND FREE ENERGY PREDICTED BY IDOCK:   -0.40 KCAL/MOL
REMARK 927      BINDING AFFINITY PREDICTED BY RF-SCORE:    0.00 PKD
ROOT
HETATM    1  N   UNL     1     -14.193   8.903  73.119  1.00  0.00    -1.200 NA 
HETATM    2  H1  UNL     1     -14.187   9.633  73.832  1.00  0.00     0.000 HD 
HETATM    3  CA  UNL     1     -12.894   8.849  72.391  1.00  0.00    -0.380 C  
HETATM    4  H2  UNL     1     -14.440   7.995  73.514  1.00  0.00     0.000 HD 
ENDROOT
BRANCH   3   5
HETATM    5  C   UNL     1     -12.902   7.751  71.319  1.00  0.00    -0.233 C  
HETATM    6  H   UNL     1     -12.728   5.792  71.270  1.00  0.00     0.000 HD 
HETATM    7  O   UNL     1     -12.723   6.472  71.934  1.00  0.00    -0.325 OA 
ENDBRANCH   3   5
BRANCH   3   8
HETATM    8  C   UNL     1     -12.567  10.211  71.772  1.00  0.00    -0.403 C  
HETATM    9  O   UNL     1     -13.163  11.251  72.046  1.00  0.00    -0.506 OA 
HETATM   10  H   UNL     1     -11.098   9.261  70.615  1.00  0.00     0.000 HD 
HETATM   11  N   UNL     1     -11.563  10.147  70.813  1.00  0.00    -0.331 N  
BRANCH  11  12
HETATM   12  N   UNL     1     -11.191  11.314  70.116  1.00  0.00    -0.490 NA 
HETATM   13  H   UNL     1     -10.232  11.256  69.774  1.00  0.00     0.000 HD 
BRANCH  12  14
HETATM   14  C   UNL     1     -12.136  11.611  69.024  1.00  0.00    -0.225 C  
BRANCH  14  15
HETATM   15  C   UNL     1     -11.454  11.637  67.673  1.00  0.00    -0.373 A  
HETATM   16  C   UNL     1     -10.903  10.501  67.061  1.00  0.00    -0.225 A  
HETATM   17  O   UNL     1     -10.942   9.248  67.625  1.00  0.00    -0.483 OA 
HETATM   18  C   UNL     1     -10.283  10.595  65.818  1.00  0.00    -0.252 A  
HETATM   19  H   UNL     1     -10.569   8.479  67.211  1.00  0.00     0.000 HD 
HETATM   20  C   UNL     1     -10.176  11.817  65.174  1.00  0.00    -0.268 A  
HETATM   21  O   UNL     1      -9.780   9.475  65.210  1.00  0.00    -0.380 OA 
HETATM   22  H   UNL     1      -9.357   9.538  64.362  1.00  0.00     0.000 HD 
HETATM   23  C   UNL     1     -10.680  12.964  65.764  1.00  0.00    -0.293 A  
HETATM   24  O   UNL     1      -9.569  11.897  63.953  1.00  0.00    -0.481 OA 
HETATM   25  H   UNL     1      -9.496  12.736  63.511  1.00  0.00     0.000 HD 
HETATM   26  C   UNL     1     -11.315  12.874  67.011  1.00  0.00    -0.355 A  
ENDBRANCH  14  15
ENDBRANCH  12  14
ENDBRANCH  11  12
ENDBRANCH   3   8
TORSDOF 5
ENDMDL
MODEL       57
REMARK 921   NORMALIZED FREE ENERGY PREDICTED BY IDOCK:   -5.53 KCAL/MOL
REMARK 922        TOTAL FREE ENERGY PREDICTED BY IDOCK:   -7.60 KCAL/MOL
REMARK 923 INTER-LIGAND FREE ENERGY PREDICTED BY IDOCK:   -6.60 KCAL/MOL
REMARK 924 INTRA-LIGAND FREE ENERGY PREDICTED BY IDOCK:   -1.00 KCAL/MOL
REMARK 927      BINDING AFFINITY PREDICTED BY RF-SCORE:    0.00 PKD
ROOT
HETATM    1  N   UNL     1      -9.396  11.646  63.512  1.00  0.00    -0.518 NA 
HETATM    2  H1  UNL     1      -9.889  11.946  62.671  1.00  0.00     0.000 HD 
HETATM    3  CA  UNL     1     -10.350  11.217  64.573  1.00  0.00    -0.337 C  
HETATM    4  H2  UNL     1      -8.711  10.918  63.306  1.00  0.00     0.000 HD 
ENDROOT
BRANCH   3   5
HETATM    5  C   UNL     1      -9.609  10.766  65.839  1.00  0.00    -0.208 C  
HETATM    6  H   UNL     1      -8.514  11.611  67.238  1.00  0.00     0.000 HD 
HETATM    7  O   UNL     1      -8.973  11.890  66.455  1.00  0.00    -0.202 OA 
ENDBRANCH   3   5
BRANCH   3   8
HETATM    8  C   UNL     1     -11.339  12.341  64.894  1.00  0.00    -0.325 C  
HETATM    9  O   UNL     1     -12.357  12.190  65.569  1.00  0.00    -0.548 OA 
HETATM   10  H   UNL     1     -10.154  13.627  63.738  1.00  0.00     0.000 HD 
HETATM   11  N   UNL     1     -11.007  13.548  64.292  1.00  0.00    -0.375 N  
BRANCH  11  12
HETATM   12  N   UNL     1     -11.854  14.663  64.451  1.00  0.00    -0.608 NA 
HETATM   13  H   UNL     1     -12.645  14.448  65.058  1.00  0.00     0.000 HD 
BRANCH  12  14
HETATM   14  C   UNL     1     -11.108  15.840  64.931  1.00  0.00    -0.399 C  
BRANCH  14  15
HETATM   15  C   UNL     1     -10.371  15.558  66.223  1.00  0.00    -0.312 A  
HETATM   16  C   UNL     1     -10.973  14.974  67.347  1.00  0.00    -0.315 A  
HETATM   17  O   UNL     1     -12.292  14.588  67.380  1.00  0.00    -0.614 OA 
HETATM   18  C   UNL     1     -10.238  14.747  68.509  1.00  0.00    -0.232 A  
HETATM   19  H   UNL     1     -12.700  14.192  68.142  1.00  0.00     0.000 HD 
HETATM   20  C   UNL     1      -8.905  15.118  68.583  1.00  0.00    -0.186 A  
HETATM   21  O   UNL     1     -10.824  14.143  69.589  1.00  0.00    -0.427 OA 
HETATM   22  H   UNL     1     -10.323  13.988  70.382  1.00  0.00     0.000 HD 
HETATM   23  C   UNL     1      -8.288  15.726  67.502  1.00  0.00    -0.183 A  
HETATM   24  O   UNL     1      -8.193  14.887  69.725  1.00  0.00    -0.430 OA 
HETATM   25  H   UNL     1      -7.278  15.141  69.776  1.00  0.00     0.000 HD 
HETATM   26  C   UNL     1      -9.020  15.948  66.328  1.00  0.00    -0.381 A  
ENDBRANCH  14  15
ENDBRANCH  12  14
ENDBRANCH  11  12
ENDBRANCH   3   8
TORSDOF 5
ENDMDL
MODEL       58
REMARK 921   NORMALIZED FREE ENERGY PREDICTED BY IDOCK:   -5.49 KCAL/MOL
REMARK 922        TOTAL FREE ENERGY PREDICTED BY IDOCK:   -7.54 KCAL/MOL
REMARK 923 INTER-LIGAND FREE ENERGY PREDICTED BY IDOCK:   -7.06 KCAL/MOL
REMARK 924 INTRA-LIGAND FREE ENERGY PREDICTED BY IDOCK:   -0.48 KCAL/MOL
REMARK 927      BINDING AFFINITY PREDICTED BY RF-SCORE:    0.00 PKD
ROOT
HETATM    1  N   UNL     1     -12.783  12.475  65.491  1.00  0.00    -0.460 NA 
HETATM    2  H1  UNL     1     -12.883  12.974  66.376  1.00  0.00     0.000 HD 
HETATM    3  CA  UNL     1     -11.655  13.022  64.686  1.00  0.00    -0.346 C  
HETATM    4  H2  UNL     1     -12.687  11.469  65.637  1.00  0.00     0.000 HD 
ENDROOT
BRANCH   3   5
HETATM    5  C   UNL     1     -11.505  12.272  63.356  1.00  0.00    -0.430 C  
HETATM    6  H   UNL     1     -10.050  11.414  62.349  1.00  0.00     0.000 HD 
HETATM    7  O   UNL     1     -10.142  11.878  63.172  1.00  0.00    -0.425 OA 
ENDBRANCH   3   5
BRANCH   3   8
HETATM    8  C   UNL     1     -11.844  14.522  64.445  1.00  0.00    -0.403 C  
HETATM    9  O   UNL     1     -12.853  15.016  63.942  1.00  0.00    -0.679 OA 
HETATM   10  H   UNL     1      -9.914  14.824  65.207  1.00  0.00     0.000 HD 
HETATM   11  N   UNL     1     -10.730  15.276  64.796  1.00  0.00    -0.381 N  
BRANCH  11  12
HETATM   12  N   UNL     1     -10.735  16.669  64.580  1.00  0.00    -0.772 NA 
HETATM   13  H   UNL     1     -11.324  16.922  63.786  1.00  0.00     0.000 HD 
BRANCH  12  14
HETATM   14  C   UNL     1     -11.127  17.400  65.798  1.00  0.00     0.388 C  
BRANCH  14  15
HETATM   15  C   UNL     1     -10.092  18.429  66.201  1.00  0.00    -0.376 A  
HETATM   16  C   UNL     1      -8.716  18.164  66.254  1.00  0.00    -0.172 A  
HETATM   17  O   UNL     1      -8.170  16.945  65.930  1.00  0.00    -0.478 OA 
HETATM   18  C   UNL     1      -7.816  19.156  66.639  1.00  0.00    -0.267 A  
HETATM   19  H   UNL     1      -7.238  16.766  65.966  1.00  0.00     0.000 HD 
HETATM   20  C   UNL     1      -8.268  20.414  67.002  1.00  0.00    -0.292 A  
HETATM   21  O   UNL     1      -6.470  18.900  66.652  1.00  0.00    -0.185 OA 
HETATM   22  H   UNL     1      -5.857  19.577  66.915  1.00  0.00     0.000 HD 
HETATM   23  C   UNL     1      -9.624  20.699  66.993  1.00  0.00    -0.484 A  
HETATM   24  O   UNL     1      -7.377  21.380  67.375  1.00  0.00    -0.683 OA 
HETATM   25  H   UNL     1      -7.687  22.244  67.624  1.00  0.00     0.000 HD 
HETATM   26  C   UNL     1     -10.532  19.709  66.596  1.00  0.00    -0.610 A  
ENDBRANCH  14  15
ENDBRANCH  12  14
ENDBRANCH  11  12
ENDBRANCH   3   8
TORSDOF 5
ENDMDL
MODEL       59
REMARK 921   NORMALIZED FREE ENERGY PREDICTED BY IDOCK:   -5.48 KCAL/MOL
REMARK 922        TOTAL FREE ENERGY PREDICTED BY IDOCK:   -7.53 KCAL/MOL
REMARK 923 INTER-LIGAND FREE ENERGY PREDICTED BY IDOCK:   -6.73 KCAL/MOL
REMARK 924 INTRA-LIGAND FREE ENERGY PREDICTED BY IDOCK:   -0.79 KCAL/MOL
REMARK 927      BINDING AFFINITY PREDICTED BY RF-SCORE:    0.00 PKD
ROOT
HETATM    1  N   UNL     1     -12.023  10.708  68.153  1.00  0.00    -0.783 NA 
HETATM    2  H1  UNL     1     -13.015  10.828  68.360  1.00  0.00     0.000 HD 
HETATM    3  CA  UNL     1     -11.192  11.697  68.896  1.00  0.00    -0.246 C  
HETATM    4  H2  UNL     1     -11.716   9.751  68.332  1.00  0.00     0.000 HD 
ENDROOT
BRANCH   3   5
HETATM    5  C   UNL     1      -9.700  11.516  68.586  1.00  0.00    -0.165 C  
HETATM    6  H   UNL     1      -8.393  10.047  68.633  1.00  0.00     0.000 HD 
HETATM    7  O   UNL     1      -9.316  10.158  68.825  1.00  0.00    -0.152 OA 
ENDBRANCH   3   5
BRANCH   3   8
HETATM    8  C   UNL     1     -11.644  13.125  68.579  1.00  0.00    -0.326 C  
HETATM    9  O   UNL     1     -12.184  13.458  67.525  1.00  0.00    -0.311 OA 
HETATM   10  H   UNL     1     -10.873  13.714  70.439  1.00  0.00     0.000 HD 
HETATM   11  N   UNL     1     -11.325  14.033  69.582  1.00  0.00    -0.240 N  
BRANCH  11  12
HETATM   12  N   UNL     1     -11.629  15.398  69.408  1.00  0.00    -0.317 NA 
HETATM   13  H   UNL     1     -12.336  15.711  70.072  1.00  0.00     0.000 HD 
BRANCH  12  14
HETATM   14  C   UNL     1     -10.415  16.232  69.479  1.00  0.00    -0.299 C  
BRANCH  14  15
HETATM   15  C   UNL     1     -10.399  17.304  68.410  1.00  0.00    -0.366 A  
HETATM   16  C   UNL     1     -10.660  17.053  67.056  1.00  0.00    -0.226 A  
HETATM   17  O   UNL     1     -10.971  15.805  66.567  1.00  0.00    -0.278 OA 
HETATM   18  C   UNL     1     -10.623  18.085  66.121  1.00  0.00    -0.261 A  
HETATM   19  H   UNL     1     -11.149  15.635  65.650  1.00  0.00     0.000 HD 
HETATM   20  C   UNL     1     -10.302  19.376  66.510  1.00  0.00    -0.469 A  
HETATM   21  O   UNL     1     -10.916  17.837  64.806  1.00  0.00    -0.855 OA 
HETATM   22  H   UNL     1     -10.891  18.542  64.168  1.00  0.00     0.000 HD 
HETATM   23  C   UNL     1     -10.006  19.653  67.834  1.00  0.00    -0.527 A  
HETATM   24  O   UNL     1     -10.271  20.381  65.586  1.00  0.00    -0.514 OA 
HETATM   25  H   UNL     1     -10.051  21.267  65.852  1.00  0.00     0.000 HD 
HETATM   26  C   UNL     1     -10.052  18.620  68.780  1.00  0.00    -0.398 A  
ENDBRANCH  14  15
ENDBRANCH  12  14
ENDBRANCH  11  12
ENDBRANCH   3   8
TORSDOF 5
ENDMDL
MODEL       60
REMARK 921   NORMALIZED FREE ENERGY PREDICTED BY IDOCK:   -5.48 KCAL/MOL
REMARK 922        TOTAL FREE ENERGY PREDICTED BY IDOCK:   -7.52 KCAL/MOL
REMARK 923 INTER-LIGAND FREE ENERGY PREDICTED BY IDOCK:   -6.72 KCAL/MOL
REMARK 924 INTRA-LIGAND FREE ENERGY PREDICTED BY IDOCK:   -0.80 KCAL/MOL
REMARK 927      BINDING AFFINITY PREDICTED BY RF-SCORE:    0.00 PKD
ROOT
HETATM    1  N   UNL     1      -9.053   9.410  70.764  1.00  0.00    -0.238 NA 
HETATM    2  H1  UNL     1      -8.323  10.070  70.494  1.00  0.00     0.000 HD 
HETATM    3  CA  UNL     1      -9.788   8.901  69.571  1.00  0.00    -0.180 C  
HETATM    4  H2  UNL     1      -8.678   8.646  71.327  1.00  0.00     0.000 HD 
ENDROOT
BRANCH   3   5
HETATM    5  C   UNL     1     -10.885   7.908  69.975  1.00  0.00    -0.238 C  
HETATM    6  H   UNL     1     -12.354   7.847  71.282  1.00  0.00     0.000 HD 
HETATM    7  O   UNL     1     -11.675   8.462  71.031  1.00  0.00    -0.277 OA 
ENDBRANCH   3   5
BRANCH   3   8
HETATM    8  C   UNL     1     -10.376  10.062  68.765  1.00  0.00    -0.198 C  
HETATM    9  O   UNL     1     -10.807   9.955  67.618  1.00  0.00    -0.274 OA 
HETATM   10  H   UNL     1      -9.951  11.319  70.389  1.00  0.00     0.000 HD 
HETATM   11  N   UNL     1     -10.319  11.277  69.439  1.00  0.00    -0.080 N  
BRANCH  11  12
HETATM   12  N   UNL     1     -10.774  12.449  68.802  1.00  0.00    -0.291 NA 
HETATM   13  H   UNL     1     -11.220  13.084  69.462  1.00  0.00     0.000 HD 
BRANCH  12  14
HETATM   14  C   UNL     1      -9.687  13.114  68.061  1.00  0.00    -0.224 C  
BRANCH  14  15
HETATM   15  C   UNL     1     -10.213  13.998  66.951  1.00  0.00    -0.260 A  
HETATM   16  C   UNL     1     -11.205  13.596  66.044  1.00  0.00    -0.296 A  
HETATM   17  O   UNL     1     -11.807  12.360  66.086  1.00  0.00    -0.459 OA 
HETATM   18  C   UNL     1     -11.640  14.457  65.040  1.00  0.00    -0.374 A  
HETATM   19  H   UNL     1     -12.479  12.088  65.472  1.00  0.00     0.000 HD 
HETATM   20  C   UNL     1     -11.082  15.718  64.902  1.00  0.00    -0.399 A  
HETATM   21  O   UNL     1     -12.636  14.070  64.182  1.00  0.00    -0.680 OA 
HETATM   22  H   UNL     1     -12.933  14.658  63.497  1.00  0.00     0.000 HD 
HETATM   23  C   UNL     1     -10.078  16.135  65.760  1.00  0.00    -0.390 A  
HETATM   24  O   UNL     1     -11.519  16.556  63.916  1.00  0.00    -1.608 OA 
HETATM   25  H   UNL     1     -11.137  17.421  63.822  1.00  0.00     0.000 HD 
HETATM   26  C   UNL     1      -9.643  15.276  66.779  1.00  0.00    -0.257 A  
ENDBRANCH  14  15
ENDBRANCH  12  14
ENDBRANCH  11  12
ENDBRANCH   3   8
TORSDOF 5
ENDMDL
MODEL       61
REMARK 921   NORMALIZED FREE ENERGY PREDICTED BY IDOCK:   -5.42 KCAL/MOL
REMARK 922        TOTAL FREE ENERGY PREDICTED BY IDOCK:   -7.45 KCAL/MOL
REMARK 923 INTER-LIGAND FREE ENERGY PREDICTED BY IDOCK:   -6.87 KCAL/MOL
REMARK 924 INTRA-LIGAND FREE ENERGY PREDICTED BY IDOCK:   -0.58 KCAL/MOL
REMARK 927      BINDING AFFINITY PREDICTED BY RF-SCORE:    0.00 PKD
ROOT
HETATM    1  N   UNL     1      -8.876  11.600  62.622  1.00  0.00    -0.597 NA 
HETATM    2  H1  UNL     1      -9.233  11.883  61.709  1.00  0.00     0.000 HD 
HETATM    3  CA  UNL     1      -9.971  11.090  63.496  1.00  0.00    -0.370 C  
HETATM    4  H2  UNL     1      -8.119  10.920  62.534  1.00  0.00     0.000 HD 
ENDROOT
BRANCH   3   5
HETATM    5  C   UNL     1      -9.435  10.664  64.868  1.00  0.00    -0.243 C  
HETATM    6  H   UNL     1     -10.194  10.186  66.619  1.00  0.00     0.000 HD 
HETATM    7  O   UNL     1     -10.526  10.450  65.770  1.00  0.00    -0.210 OA 
ENDBRANCH   3   5
BRANCH   3   8
HETATM    8  C   UNL     1     -11.073  12.143  63.646  1.00  0.00    -0.457 C  
HETATM    9  O   UNL     1     -12.231  11.985  63.263  1.00  0.00    -0.506 OA 
HETATM   10  H   UNL     1      -9.648  13.419  64.505  1.00  0.00     0.000 HD 
HETATM   11  N   UNL     1     -10.619  13.332  64.205  1.00  0.00    -0.419 N  
BRANCH  11  12
HETATM   12  N   UNL     1     -11.508  14.415  64.356  1.00  0.00    -0.588 NA 
HETATM   13  H   UNL     1     -12.314  14.325  63.738  1.00  0.00     0.000 HD 
BRANCH  12  14
HETATM   14  C   UNL     1     -11.920  14.580  65.761  1.00  0.00    -0.306 C  
BRANCH  14  15
HETATM   15  C   UNL     1     -11.182  15.713  66.441  1.00  0.00    -0.038 A  
HETATM   16  C   UNL     1     -10.900  16.938  65.819  1.00  0.00    -0.060 A  
HETATM   17  O   UNL     1     -11.280  17.234  64.531  1.00  0.00    -1.083 OA 
HETATM   18  C   UNL     1     -10.210  17.938  66.499  1.00  0.00    -0.379 A  
HETATM   19  H   UNL     1     -11.089  18.063  64.109  1.00  0.00     0.000 HD 
HETATM   20  C   UNL     1      -9.767  17.731  67.796  1.00  0.00    -0.285 A  
HETATM   21  O   UNL     1      -9.971  19.145  65.897  1.00  0.00    -0.458 OA 
HETATM   22  H   UNL     1      -9.500  19.828  66.361  1.00  0.00     0.000 HD 
HETATM   23  C   UNL     1     -10.000  16.522  68.429  1.00  0.00    -0.250 A  
HETATM   24  O   UNL     1      -9.095  18.720  68.456  1.00  0.00    -0.324 OA 
HETATM   25  H   UNL     1      -8.791  18.579  69.345  1.00  0.00     0.000 HD 
HETATM   26  C   UNL     1     -10.703  15.515  67.753  1.00  0.00    -0.297 A  
ENDBRANCH  14  15
ENDBRANCH  12  14
ENDBRANCH  11  12
ENDBRANCH   3   8
TORSDOF 5
ENDMDL
MODEL       62
REMARK 921   NORMALIZED FREE ENERGY PREDICTED BY IDOCK:   -5.41 KCAL/MOL
REMARK 922        TOTAL FREE ENERGY PREDICTED BY IDOCK:   -7.44 KCAL/MOL
REMARK 923 INTER-LIGAND FREE ENERGY PREDICTED BY IDOCK:   -7.17 KCAL/MOL
REMARK 924 INTRA-LIGAND FREE ENERGY PREDICTED BY IDOCK:   -0.27 KCAL/MOL
REMARK 927      BINDING AFFINITY PREDICTED BY RF-SCORE:    0.00 PKD
ROOT
HETATM    1  N   UNL     1      -9.956  17.222  67.857  1.00  0.00    -0.284 NA 
HETATM    2  H1  UNL     1     -10.179  17.681  68.741  1.00  0.00     0.000 HD 
HETATM    3  CA  UNL     1     -10.797  16.009  67.651  1.00  0.00    -0.311 C  
HETATM    4  H2  UNL     1     -10.030  17.868  67.071  1.00  0.00     0.000 HD 
ENDROOT
BRANCH   3   5
HETATM    5  C   UNL     1     -10.461  15.319  66.322  1.00  0.00    -0.307 C  
HETATM    6  H   UNL     1     -10.311  15.843  64.432  1.00  0.00     0.000 HD 
HETATM    7  O   UNL     1     -10.519  16.270  65.254  1.00  0.00    -0.541 OA 
ENDBRANCH   3   5
BRANCH   3   8
HETATM    8  C   UNL     1     -10.636  15.037  68.823  1.00  0.00    -0.240 C  
HETATM    9  O   UNL     1     -10.219  15.363  69.934  1.00  0.00    -0.282 OA 
HETATM   10  H   UNL     1     -11.289  13.500  67.556  1.00  0.00     0.000 HD 
HETATM   11  N   UNL     1     -10.950  13.725  68.491  1.00  0.00    -0.253 N  
BRANCH  11  12
HETATM   12  N   UNL     1     -10.797  12.707  69.453  1.00  0.00    -0.446 NA 
HETATM   13  H   UNL     1     -10.060  12.931  70.121  1.00  0.00     0.000 HD 
BRANCH  12  14
HETATM   14  C   UNL     1     -12.072  12.416  70.134  1.00  0.00    -0.290 C  
BRANCH  14  15
HETATM   15  C   UNL     1     -12.061  11.059  70.807  1.00  0.00    -0.467 A  
HETATM   16  C   UNL     1     -12.980  10.676  71.794  1.00  0.00    -0.472 A  
HETATM   17  O   UNL     1     -13.994  11.493  72.237  1.00  0.00    -0.200 OA 
HETATM   18  C   UNL     1     -12.910   9.414  72.378  1.00  0.00    -0.319 A  
HETATM   19  H   UNL     1     -14.617  11.233  72.906  1.00  0.00     0.000 HD 
HETATM   20  C   UNL     1     -11.914   8.523  72.012  1.00  0.00    -0.361 A  
HETATM   21  O   UNL     1     -13.835   9.034  73.315  1.00  0.00    -1.159 OA 
HETATM   22  H   UNL     1     -13.787   8.172  73.713  1.00  0.00     0.000 HD 
HETATM   23  C   UNL     1     -10.970   8.881  71.064  1.00  0.00    -0.341 A  
HETATM   24  O   UNL     1     -11.856   7.286  72.589  1.00  0.00    -0.495 OA 
HETATM   25  H   UNL     1     -11.173   6.674  72.338  1.00  0.00     0.000 HD 
HETATM   26  C   UNL     1     -11.042  10.146  70.466  1.00  0.00    -0.400 A  
ENDBRANCH  14  15
ENDBRANCH  12  14
ENDBRANCH  11  12
ENDBRANCH   3   8
TORSDOF 5
ENDMDL
MODEL       63
REMARK 921   NORMALIZED FREE ENERGY PREDICTED BY IDOCK:   -5.40 KCAL/MOL
REMARK 922        TOTAL FREE ENERGY PREDICTED BY IDOCK:   -7.43 KCAL/MOL
REMARK 923 INTER-LIGAND FREE ENERGY PREDICTED BY IDOCK:   -7.16 KCAL/MOL
REMARK 924 INTRA-LIGAND FREE ENERGY PREDICTED BY IDOCK:   -0.27 KCAL/MOL
REMARK 927      BINDING AFFINITY PREDICTED BY RF-SCORE:    0.00 PKD
ROOT
HETATM    1  N   UNL     1     -10.620  18.391  67.645  1.00  0.00    -0.420 NA 
HETATM    2  H1  UNL     1     -11.619  18.501  67.464  1.00  0.00     0.000 HD 
HETATM    3  CA  UNL     1      -9.921  17.791  66.473  1.00  0.00    -0.346 C  
HETATM    4  H2  UNL     1     -10.191  19.273  67.927  1.00  0.00     0.000 HD 
ENDROOT
BRANCH   3   5
HETATM    5  C   UNL     1      -8.420  17.626  66.746  1.00  0.00    -0.251 C  
HETATM    6  H   UNL     1      -6.749  17.804  65.724  1.00  0.00     0.000 HD 
HETATM    7  O   UNL     1      -7.678  17.906  65.555  1.00  0.00    -0.505 OA 
ENDBRANCH   3   5
BRANCH   3   8
HETATM    8  C   UNL     1     -10.556  16.450  66.097  1.00  0.00    -0.255 C  
HETATM    9  O   UNL     1     -10.626  16.020  64.946  1.00  0.00    -0.587 OA 
HETATM   10  H   UNL     1     -11.030  16.179  68.122  1.00  0.00     0.000 HD 
HETATM   11  N   UNL     1     -11.109  15.784  67.185  1.00  0.00    -0.241 N  
BRANCH  11  12
HETATM   12  N   UNL     1     -11.778  14.560  66.986  1.00  0.00    -0.391 NA 
HETATM   13  H   UNL     1     -11.987  14.404  66.000  1.00  0.00     0.000 HD 
BRANCH  12  14
HETATM   14  C   UNL     1     -11.021  13.434  67.562  1.00  0.00    -0.267 C  
BRANCH  14  15
HETATM   15  C   UNL     1     -11.650  12.920  68.839  1.00  0.00    -0.360 A  
HETATM   16  C   UNL     1     -12.032  11.585  69.032  1.00  0.00    -0.311 A  
HETATM   17  O   UNL     1     -11.859  10.607  68.081  1.00  0.00    -0.748 OA 
HETATM   18  C   UNL     1     -12.613  11.178  70.231  1.00  0.00    -0.210 A  
HETATM   19  H   UNL     1     -12.118   9.702  68.212  1.00  0.00     0.000 HD 
HETATM   20  C   UNL     1     -12.846  12.092  71.247  1.00  0.00    -0.250 A  
HETATM   21  O   UNL     1     -12.949   9.865  70.426  1.00  0.00    -0.562 OA 
HETATM   22  H   UNL     1     -13.345   9.587  71.244  1.00  0.00     0.000 HD 
HETATM   23  C   UNL     1     -12.510  13.425  71.077  1.00  0.00    -0.437 A  
HETATM   24  O   UNL     1     -13.412  11.683  72.420  1.00  0.00    -0.602 OA 
HETATM   25  H   UNL     1     -13.572  12.309  73.116  1.00  0.00     0.000 HD 
HETATM   26  C   UNL     1     -11.917  13.838  69.876  1.00  0.00    -0.412 A  
ENDBRANCH  14  15
ENDBRANCH  12  14
ENDBRANCH  11  12
ENDBRANCH   3   8
TORSDOF 5
ENDMDL
MODEL       64
REMARK 921   NORMALIZED FREE ENERGY PREDICTED BY IDOCK:   -5.40 KCAL/MOL
REMARK 922        TOTAL FREE ENERGY PREDICTED BY IDOCK:   -7.42 KCAL/MOL
REMARK 923 INTER-LIGAND FREE ENERGY PREDICTED BY IDOCK:   -6.97 KCAL/MOL
REMARK 924 INTRA-LIGAND FREE ENERGY PREDICTED BY IDOCK:   -0.45 KCAL/MOL
REMARK 927      BINDING AFFINITY PREDICTED BY RF-SCORE:    0.00 PKD
ROOT
HETATM    1  N   UNL     1     -12.344  16.388  72.140  1.00  0.00    -0.531 NA 
HETATM    2  H1  UNL     1     -12.941  16.564  72.949  1.00  0.00     0.000 HD 
HETATM    3  CA  UNL     1     -13.015  15.487  71.160  1.00  0.00    -0.496 C  
HETATM    4  H2  UNL     1     -12.040  17.258  71.702  1.00  0.00     0.000 HD 
ENDROOT
BRANCH   3   5
HETATM    5  C   UNL     1     -12.118  15.222  69.944  1.00  0.00    -0.343 C  
HETATM    6  H   UNL     1     -10.336  15.783  69.326  1.00  0.00     0.000 HD 
HETATM    7  O   UNL     1     -10.891  15.946  70.079  1.00  0.00    -0.298 OA 
ENDBRANCH   3   5
BRANCH   3   8
HETATM    8  C   UNL     1     -13.422  14.172  71.831  1.00  0.00    -0.405 C  
HETATM    9  O   UNL     1     -14.139  14.102  72.828  1.00  0.00    -0.610 OA 
HETATM   10  H   UNL     1     -12.257  13.160  70.410  1.00  0.00     0.000 HD 
HETATM   11  N   UNL     1     -12.848  13.055  71.235  1.00  0.00    -0.333 N  
BRANCH  11  12
HETATM   12  N   UNL     1     -13.088  11.776  71.777  1.00  0.00    -0.445 NA 
HETATM   13  H   UNL     1     -13.988  11.735  72.255  1.00  0.00     0.000 HD 
BRANCH  12  14
HETATM   14  C   UNL     1     -12.974  10.727  70.747  1.00  0.00    -0.262 C  
BRANCH  14  15
HETATM   15  C   UNL     1     -11.942   9.681  71.113  1.00  0.00    -0.452 A  
HETATM   16  C   UNL     1     -12.147   8.701  72.095  1.00  0.00    -0.381 A  
HETATM   17  O   UNL     1     -13.314   8.586  72.813  1.00  0.00    -0.647 OA 
HETATM   18  C   UNL     1     -11.152   7.771  72.388  1.00  0.00    -0.323 A  
HETATM   19  H   UNL     1     -13.452   7.922  73.478  1.00  0.00     0.000 HD 
HETATM   20  C   UNL     1      -9.933   7.813  71.731  1.00  0.00    -0.175 A  
HETATM   21  O   UNL     1     -11.374   6.794  73.322  1.00  0.00    -0.500 OA 
HETATM   22  H   UNL     1     -10.695   6.159  73.522  1.00  0.00     0.000 HD 
HETATM   23  C   UNL     1      -9.686   8.788  70.779  1.00  0.00    -0.257 A  
HETATM   24  O   UNL     1      -8.966   6.894  72.023  1.00  0.00    -0.133 OA 
HETATM   25  H   UNL     1      -8.129   6.923  71.573  1.00  0.00     0.000 HD 
HETATM   26  C   UNL     1     -10.686   9.720  70.473  1.00  0.00    -0.381 A  
ENDBRANCH  14  15
ENDBRANCH  12  14
ENDBRANCH  11  12
ENDBRANCH   3   8
TORSDOF 5
ENDMDL
MODEL       65
REMARK 921   NORMALIZED FREE ENERGY PREDICTED BY IDOCK:   -5.39 KCAL/MOL
REMARK 922        TOTAL FREE ENERGY PREDICTED BY IDOCK:   -7.42 KCAL/MOL
REMARK 923 INTER-LIGAND FREE ENERGY PREDICTED BY IDOCK:   -7.05 KCAL/MOL
REMARK 924 INTRA-LIGAND FREE ENERGY PREDICTED BY IDOCK:   -0.36 KCAL/MOL
REMARK 927      BINDING AFFINITY PREDICTED BY RF-SCORE:    0.00 PKD
ROOT
HETATM    1  N   UNL     1     -11.097   7.792  67.382  1.00  0.00    -0.481 NA 
HETATM    2  H1  UNL     1     -11.530   8.512  67.961  1.00  0.00     0.000 HD 
HETATM    3  CA  UNL     1      -9.627   8.009  67.260  1.00  0.00    -0.162 C  
HETATM    4  H2  UNL     1     -11.310   6.856  67.727  1.00  0.00     0.000 HD 
ENDROOT
BRANCH   3   5
HETATM    5  C   UNL     1      -8.975   6.927  66.390  1.00  0.00    -0.153 C  
HETATM    6  H   UNL     1      -7.816   5.363  66.674  1.00  0.00     0.000 HD 
HETATM    7  O   UNL     1      -8.219   6.033  67.213  1.00  0.00    -0.106 OA 
ENDBRANCH   3   5
BRANCH   3   8
HETATM    8  C   UNL     1      -9.334   9.405  66.702  1.00  0.00    -0.163 C  
HETATM    9  O   UNL     1      -8.706  10.271  67.310  1.00  0.00    -0.126 OA 
HETATM   10  H   UNL     1     -10.420   8.877  64.987  1.00  0.00     0.000 HD 
HETATM   11  N   UNL     1      -9.905   9.624  65.454  1.00  0.00    -0.309 N  
BRANCH  11  12
HETATM   12  N   UNL     1      -9.767  10.883  64.836  1.00  0.00    -0.244 NA 
HETATM   13  H   UNL     1      -9.375  10.799  63.899  1.00  0.00     0.000 HD 
BRANCH  12  14
HETATM   14  C   UNL     1     -11.045  11.617  64.823  1.00  0.00    -0.264 C  
BRANCH  14  15
HETATM   15  C   UNL     1     -10.849  13.105  65.022  1.00  0.00    -0.331 A  
HETATM   16  C   UNL     1     -11.482  14.082  64.240  1.00  0.00    -0.297 A  
HETATM   17  O   UNL     1     -12.358  13.782  63.223  1.00  0.00    -1.069 OA 
HETATM   18  C   UNL     1     -11.252  15.436  64.472  1.00  0.00    -0.299 A  
HETATM   19  H   UNL     1     -12.787  14.443  62.694  1.00  0.00     0.000 HD 
HETATM   20  C   UNL     1     -10.373  15.842  65.463  1.00  0.00    -0.404 A  
HETATM   21  O   UNL     1     -11.904  16.384  63.728  1.00  0.00    -1.455 OA 
HETATM   22  H   UNL     1     -11.747  17.308  63.886  1.00  0.00     0.000 HD 
HETATM   23  C   UNL     1      -9.705  14.902  66.231  1.00  0.00    -0.320 A  
HETATM   24  O   UNL     1     -10.157  17.172  65.684  1.00  0.00    -0.561 OA 
HETATM   25  H   UNL     1      -9.554  17.451  66.363  1.00  0.00     0.000 HD 
HETATM   26  C   UNL     1      -9.940  13.539  66.010  1.00  0.00    -0.308 A  
ENDBRANCH  14  15
ENDBRANCH  12  14
ENDBRANCH  11  12
ENDBRANCH   3   8
TORSDOF 5
ENDMDL
MODEL       66
REMARK 921   NORMALIZED FREE ENERGY PREDICTED BY IDOCK:   -5.39 KCAL/MOL
REMARK 922        TOTAL FREE ENERGY PREDICTED BY IDOCK:   -7.41 KCAL/MOL
REMARK 923 INTER-LIGAND FREE ENERGY PREDICTED BY IDOCK:   -6.86 KCAL/MOL
REMARK 924 INTRA-LIGAND FREE ENERGY PREDICTED BY IDOCK:   -0.55 KCAL/MOL
REMARK 927      BINDING AFFINITY PREDICTED BY RF-SCORE:    0.00 PKD
ROOT
HETATM    1  N   UNL     1     -10.008  11.716  62.738  1.00  0.00    -0.557 NA 
HETATM    2  H1  UNL     1     -10.328  12.144  61.868  1.00  0.00     0.000 HD 
HETATM    3  CA  UNL     1     -11.119  11.602  63.725  1.00  0.00    -0.420 C  
HETATM    4  H2  UNL     1      -9.562  10.814  62.570  1.00  0.00     0.000 HD 
ENDROOT
BRANCH   3   5
HETATM    5  C   UNL     1     -10.639  10.959  65.032  1.00  0.00    -0.217 C  
HETATM    6  H   UNL     1      -9.496   9.444  65.550  1.00  0.00     0.000 HD 
HETATM    7  O   UNL     1      -9.793   9.842  64.741  1.00  0.00    -0.307 OA 
ENDBRANCH   3   5
BRANCH   3   8
HETATM    8  C   UNL     1     -11.744  12.975  63.992  1.00  0.00    -0.436 C  
HETATM    9  O   UNL     1     -12.611  13.485  63.284  1.00  0.00    -0.773 OA 
HETATM   10  H   UNL     1     -10.467  13.163  65.645  1.00  0.00     0.000 HD 
HETATM   11  N   UNL     1     -11.187  13.624  65.087  1.00  0.00    -0.302 N  
BRANCH  11  12
HETATM   12  N   UNL     1     -11.622  14.921  65.424  1.00  0.00    -0.317 NA 
HETATM   13  H   UNL     1     -12.003  14.954  66.369  1.00  0.00     0.000 HD 
BRANCH  12  14
HETATM   14  C   UNL     1     -10.547  15.913  65.240  1.00  0.00    -0.419 C  
BRANCH  14  15
HETATM   15  C   UNL     1     -10.473  16.892  66.392  1.00  0.00    -0.252 A  
HETATM   16  C   UNL     1     -10.543  16.510  67.739  1.00  0.00    -0.332 A  
HETATM   17  O   UNL     1     -10.672  15.203  68.146  1.00  0.00    -0.244 OA 
HETATM   18  C   UNL     1     -10.476  17.464  68.752  1.00  0.00    -0.333 A  
HETATM   19  H   UNL     1     -10.719  14.945  69.059  1.00  0.00     0.000 HD 
HETATM   20  C   UNL     1     -10.364  18.811  68.445  1.00  0.00    -0.307 A  
HETATM   21  O   UNL     1     -10.507  17.079  70.066  1.00  0.00    -0.058 OA 
HETATM   22  H   UNL     1     -10.461  17.730  70.757  1.00  0.00     0.000 HD 
HETATM   23  C   UNL     1     -10.325  19.225  67.124  1.00  0.00    -0.533 A  
HETATM   24  O   UNL     1     -10.295  19.738  69.446  1.00  0.00    -0.638 OA 
HETATM   25  H   UNL     1     -10.218  20.661  69.236  1.00  0.00     0.000 HD 
HETATM   26  C   UNL     1     -10.382  18.269  66.101  1.00  0.00    -0.414 A  
ENDBRANCH  14  15
ENDBRANCH  12  14
ENDBRANCH  11  12
ENDBRANCH   3   8
TORSDOF 5
ENDMDL
MODEL       67
REMARK 921   NORMALIZED FREE ENERGY PREDICTED BY IDOCK:   -5.39 KCAL/MOL
REMARK 922        TOTAL FREE ENERGY PREDICTED BY IDOCK:   -7.41 KCAL/MOL
REMARK 923 INTER-LIGAND FREE ENERGY PREDICTED BY IDOCK:   -7.05 KCAL/MOL
REMARK 924 INTRA-LIGAND FREE ENERGY PREDICTED BY IDOCK:   -0.36 KCAL/MOL
REMARK 927      BINDING AFFINITY PREDICTED BY RF-SCORE:    0.00 PKD
ROOT
HETATM    1  N   UNL     1     -10.924   5.829  70.245  1.00  0.00    -0.304 NA 
HETATM    2  H1  UNL     1     -11.693   5.443  69.697  1.00  0.00     0.000 HD 
HETATM    3  CA  UNL     1     -11.398   6.315  71.573  1.00  0.00    -0.296 C  
HETATM    4  H2  UNL     1     -10.160   5.160  70.342  1.00  0.00     0.000 HD 
ENDROOT
BRANCH   3   5
HETATM    5  C   UNL     1     -10.241   6.896  72.397  1.00  0.00    -0.187 C  
HETATM    6  H   UNL     1      -9.944   7.445  74.263  1.00  0.00     0.000 HD 
HETATM    7  O   UNL     1     -10.659   7.085  73.753  1.00  0.00    -0.375 OA 
ENDBRANCH   3   5
BRANCH   3   8
HETATM    8  C   UNL     1     -12.515   7.348  71.400  1.00  0.00    -0.368 C  
HETATM    9  O   UNL     1     -13.710   7.099  71.548  1.00  0.00    -0.377 OA 
HETATM   10  H   UNL     1     -11.048   8.754  70.882  1.00  0.00     0.000 HD 
HETATM   11  N   UNL     1     -12.049   8.593  70.995  1.00  0.00    -0.260 N  
BRANCH  11  12
HETATM   12  N   UNL     1     -12.966   9.632  70.742  1.00  0.00    -0.559 NA 
HETATM   13  H   UNL     1     -13.925   9.286  70.716  1.00  0.00     0.000 HD 
BRANCH  12  14
HETATM   14  C   UNL     1     -12.814  10.732  71.712  1.00  0.00    -0.423 C  
BRANCH  14  15
HETATM   15  C   UNL     1     -12.637  12.071  71.029  1.00  0.00    -0.370 A  
HETATM   16  C   UNL     1     -13.209  13.262  71.499  1.00  0.00    -0.299 A  
HETATM   17  O   UNL     1     -13.977  13.331  72.638  1.00  0.00    -0.741 OA 
HETATM   18  C   UNL     1     -13.013  14.462  70.819  1.00  0.00    -0.326 A  
HETATM   19  H   UNL     1     -14.364  14.138  72.957  1.00  0.00     0.000 HD 
HETATM   20  C   UNL     1     -12.269  14.495  69.650  1.00  0.00    -0.292 A  
HETATM   21  O   UNL     1     -13.544  15.627  71.306  1.00  0.00    -0.546 OA 
HETATM   22  H   UNL     1     -13.410  16.445  70.841  1.00  0.00     0.000 HD 
HETATM   23  C   UNL     1     -11.717  13.332  69.140  1.00  0.00    -0.379 A  
HETATM   24  O   UNL     1     -12.079  15.677  68.993  1.00  0.00    -0.545 OA 
HETATM   25  H   UNL     1     -11.569  15.700  68.192  1.00  0.00     0.000 HD 
HETATM   26  C   UNL     1     -11.903  12.124  69.826  1.00  0.00    -0.397 A  
ENDBRANCH  14  15
ENDBRANCH  12  14
ENDBRANCH  11  12
ENDBRANCH   3   8
TORSDOF 5
ENDMDL
MODEL       68
REMARK 921   NORMALIZED FREE ENERGY PREDICTED BY IDOCK:   -5.37 KCAL/MOL
REMARK 922        TOTAL FREE ENERGY PREDICTED BY IDOCK:   -7.38 KCAL/MOL
REMARK 923 INTER-LIGAND FREE ENERGY PREDICTED BY IDOCK:   -6.58 KCAL/MOL
REMARK 924 INTRA-LIGAND FREE ENERGY PREDICTED BY IDOCK:   -0.80 KCAL/MOL
REMARK 927      BINDING AFFINITY PREDICTED BY RF-SCORE:    0.00 PKD
ROOT
HETATM    1  N   UNL     1     -10.326  17.307  65.313  1.00  0.00    -0.561 NA 
HETATM    2  H1  UNL     1     -10.017  16.370  65.052  1.00  0.00     0.000 HD 
HETATM    3  CA  UNL     1      -9.619  17.789  66.533  1.00  0.00    -0.308 C  
HETATM    4  H2  UNL     1     -10.228  17.964  64.538  1.00  0.00     0.000 HD 
ENDROOT
BRANCH   3   5
HETATM    5  C   UNL     1     -10.084  19.198  66.926  1.00  0.00    -0.373 C  
HETATM    6  H   UNL     1     -10.287  20.941  66.037  1.00  0.00     0.000 HD 
HETATM    7  O   UNL     1     -10.000  20.069  65.794  1.00  0.00    -0.428 OA 
ENDBRANCH   3   5
BRANCH   3   8
HETATM    8  C   UNL     1      -9.816  16.809  67.692  1.00  0.00    -0.261 C  
HETATM    9  O   UNL     1      -9.924  17.149  68.870  1.00  0.00    -0.286 OA 
HETATM   10  H   UNL     1      -9.705  15.243  66.303  1.00  0.00     0.000 HD 
HETATM   11  N   UNL     1      -9.800  15.479  67.291  1.00  0.00    -0.223 N  
BRANCH  11  12
HETATM   12  N   UNL     1      -9.915  14.458  68.255  1.00  0.00    -0.226 NA 
HETATM   13  H   UNL     1      -9.862  14.831  69.203  1.00  0.00     0.000 HD 
BRANCH  12  14
HETATM   14  C   UNL     1     -11.142  13.665  68.054  1.00  0.00    -0.262 C  
BRANCH  14  15
HETATM   15  C   UNL     1     -11.922  13.489  69.339  1.00  0.00    -0.383 A  
HETATM   16  C   UNL     1     -12.587  14.537  69.992  1.00  0.00    -0.232 A  
HETATM   17  O   UNL     1     -12.606  15.828  69.519  1.00  0.00    -0.528 OA 
HETATM   18  C   UNL     1     -13.282  14.308  71.177  1.00  0.00    -0.321 A  
HETATM   19  H   UNL     1     -13.056  16.538  69.961  1.00  0.00     0.000 HD 
HETATM   20  C   UNL     1     -13.309  13.045  71.746  1.00  0.00    -0.378 A  
HETATM   21  O   UNL     1     -13.960  15.330  71.789  1.00  0.00    -0.453 OA 
HETATM   22  H   UNL     1     -14.434  15.173  72.598  1.00  0.00     0.000 HD 
HETATM   23  C   UNL     1     -12.636  11.994  71.144  1.00  0.00    -0.372 A  
HETATM   24  O   UNL     1     -13.996  12.830  72.906  1.00  0.00    -0.605 OA 
HETATM   25  H   UNL     1     -14.015  11.964  73.296  1.00  0.00     0.000 HD 
HETATM   26  C   UNL     1     -11.943  12.216  69.947  1.00  0.00    -0.380 A  
ENDBRANCH  14  15
ENDBRANCH  12  14
ENDBRANCH  11  12
ENDBRANCH   3   8
TORSDOF 5
ENDMDL
MODEL       69
REMARK 921   NORMALIZED FREE ENERGY PREDICTED BY IDOCK:   -5.34 KCAL/MOL
REMARK 922        TOTAL FREE ENERGY PREDICTED BY IDOCK:   -7.35 KCAL/MOL
REMARK 923 INTER-LIGAND FREE ENERGY PREDICTED BY IDOCK:   -6.97 KCAL/MOL
REMARK 924 INTRA-LIGAND FREE ENERGY PREDICTED BY IDOCK:   -0.38 KCAL/MOL
REMARK 927      BINDING AFFINITY PREDICTED BY RF-SCORE:    0.00 PKD
ROOT
HETATM    1  N   UNL     1     -13.227   9.742  70.628  1.00  0.00    -0.599 NA 
HETATM    2  H1  UNL     1     -13.247   9.370  69.678  1.00  0.00     0.000 HD 
HETATM    3  CA  UNL     1     -12.977  11.211  70.628  1.00  0.00    -0.082 C  
HETATM    4  H2  UNL     1     -14.077   9.506  71.141  1.00  0.00     0.000 HD 
ENDROOT
BRANCH   3   5
HETATM    5  C   UNL     1     -12.947  11.771  72.056  1.00  0.00    -0.265 C  
HETATM    6  H   UNL     1     -13.734  13.297  73.016  1.00  0.00     0.000 HD 
HETATM    7  O   UNL     1     -13.753  12.951  72.132  1.00  0.00    -0.501 OA 
ENDBRANCH   3   5
BRANCH   3   8
HETATM    8  C   UNL     1     -11.675  11.535  69.889  1.00  0.00    -0.343 C  
HETATM    9  O   UNL     1     -10.766  10.726  69.710  1.00  0.00    -0.245 OA 
HETATM   10  H   UNL     1     -12.368  13.502  69.663  1.00  0.00     0.000 HD 
HETATM   11  N   UNL     1     -11.590  12.864  69.491  1.00  0.00    -0.295 N  
BRANCH  11  12
HETATM   12  N   UNL     1     -10.425  13.325  68.847  1.00  0.00    -0.404 NA 
HETATM   13  H   UNL     1      -9.833  12.551  68.545  1.00  0.00     0.000 HD 
BRANCH  12  14
HETATM   14  C   UNL     1     -10.751  14.225  67.726  1.00  0.00    -0.251 C  
BRANCH  14  15
HETATM   15  C   UNL     1     -10.930  13.471  66.425  1.00  0.00    -0.297 A  
HETATM   16  C   UNL     1     -11.596  13.998  65.309  1.00  0.00    -0.337 A  
HETATM   17  O   UNL     1     -12.142  15.260  65.284  1.00  0.00    -0.003 OA 
HETATM   18  C   UNL     1     -11.731  13.248  64.143  1.00  0.00    -0.420 A  
HETATM   19  H   UNL     1     -12.593  15.617  64.528  1.00  0.00     0.000 HD 
HETATM   20  C   UNL     1     -11.231  11.958  64.074  1.00  0.00    -0.396 A  
HETATM   21  O   UNL     1     -12.351  13.784  63.045  1.00  0.00    -1.089 OA 
HETATM   22  H   UNL     1     -12.443  13.272  62.250  1.00  0.00     0.000 HD 
HETATM   23  C   UNL     1     -10.596  11.395  65.168  1.00  0.00    -0.352 A  
HETATM   24  O   UNL     1     -11.366  11.232  62.924  1.00  0.00    -0.826 OA 
HETATM   25  H   UNL     1     -11.023  10.347  62.876  1.00  0.00     0.000 HD 
HETATM   26  C   UNL     1     -10.449  12.148  66.341  1.00  0.00    -0.261 A  
ENDBRANCH  14  15
ENDBRANCH  12  14
ENDBRANCH  11  12
ENDBRANCH   3   8
TORSDOF 5
ENDMDL
MODEL       70
REMARK 921   NORMALIZED FREE ENERGY PREDICTED BY IDOCK:   -5.33 KCAL/MOL
REMARK 922        TOTAL FREE ENERGY PREDICTED BY IDOCK:   -7.34 KCAL/MOL
REMARK 923 INTER-LIGAND FREE ENERGY PREDICTED BY IDOCK:   -6.83 KCAL/MOL
REMARK 924 INTRA-LIGAND FREE ENERGY PREDICTED BY IDOCK:   -0.51 KCAL/MOL
REMARK 927      BINDING AFFINITY PREDICTED BY RF-SCORE:    0.00 PKD
ROOT
HETATM    1  N   UNL     1     -10.115   9.592  71.162  1.00  0.00    -0.263 NA 
HETATM    2  H1  UNL     1      -9.282   9.974  70.712  1.00  0.00     0.000 HD 
HETATM    3  CA  UNL     1     -10.318   8.161  70.797  1.00  0.00    -0.196 C  
HETATM    4  H2  UNL     1     -10.087   9.721  72.174  1.00  0.00     0.000 HD 
ENDROOT
BRANCH   3   5
HETATM    5  C   UNL     1     -11.570   7.586  71.473  1.00  0.00    -0.272 C  
HETATM    6  H   UNL     1     -12.421   7.694  73.243  1.00  0.00     0.000 HD 
HETATM    7  O   UNL     1     -11.647   8.049  72.825  1.00  0.00    -0.405 OA 
ENDBRANCH   3   5
BRANCH   3   8
HETATM    8  C   UNL     1     -10.398   7.999  69.277  1.00  0.00    -0.220 C  
HETATM    9  O   UNL     1     -10.107   6.965  68.678  1.00  0.00    -0.152 OA 
HETATM   10  H   UNL     1     -11.006  10.003  69.160  1.00  0.00     0.000 HD 
HETATM   11  N   UNL     1     -10.776   9.167  68.623  1.00  0.00    -0.165 N  
BRANCH  11  12
HETATM   12  N   UNL     1     -10.841   9.188  67.216  1.00  0.00    -0.381 NA 
HETATM   13  H   UNL     1     -11.795   9.333  66.888  1.00  0.00     0.000 HD 
BRANCH  12  14
HETATM   14  C   UNL     1      -9.916  10.187  66.651  1.00  0.00    -0.216 C  
BRANCH  14  15
HETATM   15  C   UNL     1     -10.606  11.106  65.665  1.00  0.00    -0.286 A  
HETATM   16  C   UNL     1     -11.604  12.022  66.027  1.00  0.00    -0.305 A  
HETATM   17  O   UNL     1     -12.045  12.184  67.319  1.00  0.00    -0.565 OA 
HETATM   18  C   UNL     1     -12.204  12.835  65.068  1.00  0.00    -0.473 A  
HETATM   19  H   UNL     1     -12.721  12.805  67.565  1.00  0.00     0.000 HD 
HETATM   20  C   UNL     1     -11.842  12.735  63.734  1.00  0.00    -0.499 A  
HETATM   21  O   UNL     1     -13.152  13.753  65.436  1.00  0.00    -0.727 OA 
HETATM   22  H   UNL     1     -13.561  14.308  64.781  1.00  0.00     0.000 HD 
HETATM   23  C   UNL     1     -10.883  11.818  63.337  1.00  0.00    -0.460 A  
HETATM   24  O   UNL     1     -12.434  13.539  62.802  1.00  0.00    -0.829 OA 
HETATM   25  H   UNL     1     -12.186  13.471  61.887  1.00  0.00     0.000 HD 
HETATM   26  C   UNL     1     -10.269  11.005  64.299  1.00  0.00    -0.414 A  
ENDBRANCH  14  15
ENDBRANCH  12  14
ENDBRANCH  11  12
ENDBRANCH   3   8
TORSDOF 5
ENDMDL
MODEL       71
REMARK 921   NORMALIZED FREE ENERGY PREDICTED BY IDOCK:   -5.33 KCAL/MOL
REMARK 922        TOTAL FREE ENERGY PREDICTED BY IDOCK:   -7.34 KCAL/MOL
REMARK 923 INTER-LIGAND FREE ENERGY PREDICTED BY IDOCK:   -6.84 KCAL/MOL
REMARK 924 INTRA-LIGAND FREE ENERGY PREDICTED BY IDOCK:   -0.49 KCAL/MOL
REMARK 927      BINDING AFFINITY PREDICTED BY RF-SCORE:    0.00 PKD
ROOT
HETATM    1  N   UNL     1      -8.145   7.914  64.832  1.00  0.00    -0.145 NA 
HETATM    2  H1  UNL     1      -8.714   7.067  64.855  1.00  0.00     0.000 HD 
HETATM    3  CA  UNL     1      -8.195   8.634  66.136  1.00  0.00    -0.121 C  
HETATM    4  H2  UNL     1      -7.184   7.713  64.552  1.00  0.00     0.000 HD 
ENDROOT
BRANCH   3   5
HETATM    5  C   UNL     1      -7.340   9.907  66.102  1.00  0.00    -0.104 C  
HETATM    6  H   UNL     1      -5.655  10.525  66.906  1.00  0.00     0.000 HD 
HETATM    7  O   UNL     1      -6.184   9.737  66.927  1.00  0.00    -0.062 OA 
ENDBRANCH   3   5
BRANCH   3   8
HETATM    8  C   UNL     1      -9.643   8.962  66.514  1.00  0.00    -0.232 C  
HETATM    9  O   UNL     1     -10.499   8.113  66.759  1.00  0.00    -0.326 OA 
HETATM   10  H   UNL     1      -9.177  10.993  66.280  1.00  0.00     0.000 HD 
HETATM   11  N   UNL     1      -9.917  10.324  66.492  1.00  0.00    -0.215 N  
BRANCH  11  12
HETATM   12  N   UNL     1     -11.224  10.776  66.765  1.00  0.00    -0.218 NA 
HETATM   13  H   UNL     1     -11.747  10.097  67.316  1.00  0.00     0.000 HD 
BRANCH  12  14
HETATM   14  C   UNL     1     -11.210  12.101  67.411  1.00  0.00    -0.302 C  
BRANCH  14  15
HETATM   15  C   UNL     1     -11.309  13.226  66.403  1.00  0.00    -0.341 A  
HETATM   16  C   UNL     1     -12.010  13.123  65.193  1.00  0.00    -0.394 A  
HETATM   17  O   UNL     1     -12.690  11.991  64.810  1.00  0.00    -0.421 OA 
HETATM   18  C   UNL     1     -12.056  14.196  64.305  1.00  0.00    -0.444 A  
HETATM   19  H   UNL     1     -13.165  11.921  63.990  1.00  0.00     0.000 HD 
HETATM   20  C   UNL     1     -11.388  15.376  64.591  1.00  0.00    -0.355 A  
HETATM   21  O   UNL     1     -12.774  14.100  63.143  1.00  0.00    -0.922 OA 
HETATM   22  H   UNL     1     -12.806  14.832  62.537  1.00  0.00     0.000 HD 
HETATM   23  C   UNL     1     -10.659  15.500  65.762  1.00  0.00    -0.370 A  
HETATM   24  O   UNL     1     -11.443  16.423  63.715  1.00  0.00    -1.590 OA 
HETATM   25  H   UNL     1     -10.985  17.232  63.911  1.00  0.00     0.000 HD 
HETATM   26  C   UNL     1     -10.617  14.428  66.663  1.00  0.00    -0.282 A  
ENDBRANCH  14  15
ENDBRANCH  12  14
ENDBRANCH  11  12
ENDBRANCH   3   8
TORSDOF 5
ENDMDL
MODEL       72
REMARK 921   NORMALIZED FREE ENERGY PREDICTED BY IDOCK:   -5.33 KCAL/MOL
REMARK 922        TOTAL FREE ENERGY PREDICTED BY IDOCK:   -7.33 KCAL/MOL
REMARK 923 INTER-LIGAND FREE ENERGY PREDICTED BY IDOCK:   -6.79 KCAL/MOL
REMARK 924 INTRA-LIGAND FREE ENERGY PREDICTED BY IDOCK:   -0.54 KCAL/MOL
REMARK 927      BINDING AFFINITY PREDICTED BY RF-SCORE:    0.00 PKD
ROOT
HETATM    1  N   UNL     1     -10.583  17.301  65.513  1.00  0.00    -0.589 NA 
HETATM    2  H1  UNL     1     -10.587  16.296  65.691  1.00  0.00     0.000 HD 
HETATM    3  CA  UNL     1      -9.702  18.017  66.479  1.00  0.00    -0.338 C  
HETATM    4  H2  UNL     1     -10.328  17.509  64.548  1.00  0.00     0.000 HD 
ENDROOT
BRANCH   3   5
HETATM    5  C   UNL     1      -9.695  19.527  66.212  1.00  0.00    -0.402 C  
HETATM    6  H   UNL     1      -8.358  20.899  65.764  1.00  0.00     0.000 HD 
HETATM    7  O   UNL     1      -8.362  19.964  65.929  1.00  0.00    -0.347 OA 
ENDBRANCH   3   5
BRANCH   3   8
HETATM    8  C   UNL     1     -10.130  17.721  67.919  1.00  0.00    -0.342 C  
HETATM    9  O   UNL     1     -10.238  18.579  68.795  1.00  0.00    -0.379 OA 
HETATM   10  H   UNL     1     -10.226  15.690  67.407  1.00  0.00     0.000 HD 
HETATM   11  N   UNL     1     -10.329  16.367  68.163  1.00  0.00    -0.271 N  
BRANCH  11  12
HETATM   12  N   UNL     1     -10.673  15.936  69.459  1.00  0.00    -0.262 NA 
HETATM   13  H   UNL     1     -10.331  16.580  70.171  1.00  0.00     0.000 HD 
BRANCH  12  14
HETATM   14  C   UNL     1     -12.125  15.714  69.583  1.00  0.00    -0.308 C  
BRANCH  14  15
HETATM   15  C   UNL     1     -12.444  14.421  70.303  1.00  0.00    -0.413 A  
HETATM   16  C   UNL     1     -11.985  13.165  69.880  1.00  0.00    -0.317 A  
HETATM   17  O   UNL     1     -11.187  12.988  68.774  1.00  0.00    -0.252 OA 
HETATM   18  C   UNL     1     -12.321  12.012  70.585  1.00  0.00    -0.304 A  
HETATM   19  H   UNL     1     -10.876  12.138  68.488  1.00  0.00     0.000 HD 
HETATM   20  C   UNL     1     -13.136  12.082  71.703  1.00  0.00    -0.318 A  
HETATM   21  O   UNL     1     -11.838  10.794  70.186  1.00  0.00    -0.282 OA 
HETATM   22  H   UNL     1     -12.067  10.007  70.667  1.00  0.00     0.000 HD 
HETATM   23  C   UNL     1     -13.633  13.303  72.129  1.00  0.00    -0.655 A  
HETATM   24  O   UNL     1     -13.456  10.946  72.390  1.00  0.00    -0.587 OA 
HETATM   25  H   UNL     1     -14.014  10.993  73.157  1.00  0.00     0.000 HD 
HETATM   26  C   UNL     1     -13.290  14.467  71.430  1.00  0.00    -0.427 A  
ENDBRANCH  14  15
ENDBRANCH  12  14
ENDBRANCH  11  12
ENDBRANCH   3   8
TORSDOF 5
ENDMDL
MODEL       73
REMARK 921   NORMALIZED FREE ENERGY PREDICTED BY IDOCK:   -5.30 KCAL/MOL
REMARK 922        TOTAL FREE ENERGY PREDICTED BY IDOCK:   -7.30 KCAL/MOL
REMARK 923 INTER-LIGAND FREE ENERGY PREDICTED BY IDOCK:   -6.66 KCAL/MOL
REMARK 924 INTRA-LIGAND FREE ENERGY PREDICTED BY IDOCK:   -0.63 KCAL/MOL
REMARK 927      BINDING AFFINITY PREDICTED BY RF-SCORE:    0.00 PKD
ROOT
HETATM    1  N   UNL     1     -10.545  19.204  66.169  1.00  0.00    -0.452 NA 
HETATM    2  H1  UNL     1     -11.510  18.981  65.925  1.00  0.00     0.000 HD 
HETATM    3  CA  UNL     1      -9.715  17.970  66.267  1.00  0.00    -0.270 C  
HETATM    4  H2  UNL     1     -10.140  19.878  65.519  1.00  0.00     0.000 HD 
ENDROOT
BRANCH   3   5
HETATM    5  C   UNL     1      -8.263  18.304  66.635  1.00  0.00    -0.262 C  
HETATM    6  H   UNL     1      -6.470  17.770  66.026  1.00  0.00     0.000 HD 
HETATM    7  O   UNL     1      -7.368  17.564  65.798  1.00  0.00    -0.456 OA 
ENDBRANCH   3   5
BRANCH   3   8
HETATM    8  C   UNL     1     -10.320  16.993  67.279  1.00  0.00    -0.311 C  
HETATM    9  O   UNL     1     -10.529  17.267  68.460  1.00  0.00    -0.343 OA 
HETATM   10  H   UNL     1     -10.365  15.548  65.760  1.00  0.00     0.000 HD 
HETATM   11  N   UNL     1     -10.557  15.732  66.745  1.00  0.00    -0.310 N  
BRANCH  11  12
HETATM   12  N   UNL     1     -11.062  14.709  67.571  1.00  0.00    -0.302 NA 
HETATM   13  H   UNL     1     -11.362  15.072  68.475  1.00  0.00     0.000 HD 
BRANCH  12  14
HETATM   14  C   UNL     1     -12.144  13.963  66.903  1.00  0.00    -0.430 C  
BRANCH  14  15
HETATM   15  C   UNL     1     -11.623  13.084  65.786  1.00  0.00    -0.396 A  
HETATM   16  C   UNL     1     -10.520  12.230  65.924  1.00  0.00    -0.256 A  
HETATM   17  O   UNL     1      -9.810  12.098  67.094  1.00  0.00    -0.195 OA 
HETATM   18  C   UNL     1     -10.087  11.450  64.853  1.00  0.00    -0.274 A  
HETATM   19  H   UNL     1      -9.062  11.519  67.187  1.00  0.00     0.000 HD 
HETATM   20  C   UNL     1     -10.725  11.524  63.625  1.00  0.00    -0.424 A  
HETATM   21  O   UNL     1      -9.031  10.591  65.007  1.00  0.00    -0.183 OA 
HETATM   22  H   UNL     1      -8.736  10.059  64.276  1.00  0.00     0.000 HD 
HETATM   23  C   UNL     1     -11.798  12.381  63.446  1.00  0.00    -0.571 A  
HETATM   24  O   UNL     1     -10.295  10.753  62.583  1.00  0.00    -0.761 OA 
HETATM   25  H   UNL     1     -10.732  10.803  61.741  1.00  0.00     0.000 HD 
HETATM   26  C   UNL     1     -12.244  13.160  64.522  1.00  0.00    -0.466 A  
ENDBRANCH  14  15
ENDBRANCH  12  14
ENDBRANCH  11  12
ENDBRANCH   3   8
TORSDOF 5
ENDMDL
MODEL       74
REMARK 921   NORMALIZED FREE ENERGY PREDICTED BY IDOCK:   -5.29 KCAL/MOL
REMARK 922        TOTAL FREE ENERGY PREDICTED BY IDOCK:   -7.28 KCAL/MOL
REMARK 923 INTER-LIGAND FREE ENERGY PREDICTED BY IDOCK:   -6.82 KCAL/MOL
REMARK 924 INTRA-LIGAND FREE ENERGY PREDICTED BY IDOCK:   -0.46 KCAL/MOL
REMARK 927      BINDING AFFINITY PREDICTED BY RF-SCORE:    0.00 PKD
ROOT
HETATM    1  N   UNL     1     -10.638  17.472  68.481  1.00  0.00    -0.345 NA 
HETATM    2  H1  UNL     1     -11.557  17.116  68.214  1.00  0.00     0.000 HD 
HETATM    3  CA  UNL     1      -9.971  18.155  67.336  1.00  0.00    -0.323 C  
HETATM    4  H2  UNL     1     -10.695  18.080  69.298  1.00  0.00     0.000 HD 
ENDROOT
BRANCH   3   5
HETATM    5  C   UNL     1      -8.590  18.691  67.737  1.00  0.00    -0.275 C  
HETATM    6  H   UNL     1      -7.792  20.444  68.136  1.00  0.00     0.000 HD 
HETATM    7  O   UNL     1      -8.647  20.113  67.888  1.00  0.00    -0.290 OA 
ENDBRANCH   3   5
BRANCH   3   8
HETATM    8  C   UNL     1      -9.860  17.210  66.137  1.00  0.00    -0.262 C  
HETATM    9  O   UNL     1      -8.833  16.606  65.830  1.00  0.00    -0.493 OA 
HETATM   10  H   UNL     1     -11.853  17.668  65.672  1.00  0.00     0.000 HD 
HETATM   11  N   UNL     1     -11.025  17.148  65.382  1.00  0.00    -0.116 N  
BRANCH  11  12
HETATM   12  N   UNL     1     -11.057  16.360  64.214  1.00  0.00    -1.233 NA 
HETATM   13  H   UNL     1     -10.120  16.084  63.923  1.00  0.00     0.000 HD 
BRANCH  12  14
HETATM   14  C   UNL     1     -11.938  15.190  64.379  1.00  0.00    -0.310 C  
BRANCH  14  15
HETATM   15  C   UNL     1     -11.354  14.169  65.332  1.00  0.00    -0.322 A  
HETATM   16  C   UNL     1     -10.355  13.254  64.971  1.00  0.00    -0.340 A  
HETATM   17  O   UNL     1      -9.797  13.204  63.716  1.00  0.00    -0.704 OA 
HETATM   18  C   UNL     1      -9.865  12.335  65.897  1.00  0.00    -0.251 A  
HETATM   19  H   UNL     1      -9.119  12.585  63.471  1.00  0.00     0.000 HD 
HETATM   20  C   UNL     1     -10.375  12.292  67.184  1.00  0.00    -0.218 A  
HETATM   21  O   UNL     1      -8.863  11.469  65.546  1.00  0.00    -0.378 OA 
HETATM   22  H   UNL     1      -8.529  10.843  66.178  1.00  0.00     0.000 HD 
HETATM   23  C   UNL     1     -11.386  13.160  67.565  1.00  0.00    -0.336 A  
HETATM   24  O   UNL     1      -9.885  11.389  68.085  1.00  0.00    -0.178 OA 
HETATM   25  H   UNL     1     -10.235  11.360  68.968  1.00  0.00     0.000 HD 
HETATM   26  C   UNL     1     -11.875  14.093  66.641  1.00  0.00    -0.447 A  
ENDBRANCH  14  15
ENDBRANCH  12  14
ENDBRANCH  11  12
ENDBRANCH   3   8
TORSDOF 5
ENDMDL
MODEL       75
REMARK 921   NORMALIZED FREE ENERGY PREDICTED BY IDOCK:   -5.26 KCAL/MOL
REMARK 922        TOTAL FREE ENERGY PREDICTED BY IDOCK:   -7.25 KCAL/MOL
REMARK 923 INTER-LIGAND FREE ENERGY PREDICTED BY IDOCK:   -6.77 KCAL/MOL
REMARK 924 INTRA-LIGAND FREE ENERGY PREDICTED BY IDOCK:   -0.48 KCAL/MOL
REMARK 927      BINDING AFFINITY PREDICTED BY RF-SCORE:    0.00 PKD
ROOT
HETATM    1  N   UNL     1     -10.586  10.936  63.048  1.00  0.00    -0.764 NA 
HETATM    2  H1  UNL     1      -9.576  10.801  62.982  1.00  0.00     0.000 HD 
HETATM    3  CA  UNL     1     -10.916  12.315  63.508  1.00  0.00    -0.459 C  
HETATM    4  H2  UNL     1     -11.053  10.711  62.169  1.00  0.00     0.000 HD 
ENDROOT
BRANCH   3   5
HETATM    5  C   UNL     1     -12.434  12.519  63.608  1.00  0.00    -0.470 C  
HETATM    6  H   UNL     1     -13.691  14.025  63.464  1.00  0.00     0.000 HD 
HETATM    7  O   UNL     1     -12.752  13.899  63.402  1.00  0.00    -0.806 OA 
ENDBRANCH   3   5
BRANCH   3   8
HETATM    8  C   UNL     1     -10.238  12.612  64.848  1.00  0.00    -0.272 C  
HETATM    9  O   UNL     1     -10.023  11.765  65.713  1.00  0.00    -0.224 OA 
HETATM   10  H   UNL     1     -10.141  14.628  64.278  1.00  0.00     0.000 HD 
HETATM   11  N   UNL     1      -9.942  13.959  65.022  1.00  0.00    -0.261 N  
BRANCH  11  12
HETATM   12  N   UNL     1      -9.365  14.395  66.232  1.00  0.00    -0.449 NA 
HETATM   13  H   UNL     1      -8.394  14.677  66.102  1.00  0.00     0.000 HD 
BRANCH  12  14
HETATM   14  C   UNL     1     -10.162  15.469  66.851  1.00  0.00    -0.279 C  
BRANCH  14  15
HETATM   15  C   UNL     1      -9.520  16.828  66.673  1.00  0.00    -0.275 A  
HETATM   16  C   UNL     1      -8.146  17.063  66.828  1.00  0.00    -0.242 A  
HETATM   17  O   UNL     1      -7.244  16.074  67.145  1.00  0.00    -0.188 OA 
HETATM   18  C   UNL     1      -7.620  18.341  66.657  1.00  0.00    -0.233 A  
HETATM   19  H   UNL     1      -6.314  16.233  67.250  1.00  0.00     0.000 HD 
HETATM   20  C   UNL     1      -8.449  19.409  66.354  1.00  0.00    -0.346 A  
HETATM   21  O   UNL     1      -6.272  18.555  66.774  1.00  0.00    -0.166 OA 
HETATM   22  H   UNL     1      -5.913  19.427  66.656  1.00  0.00     0.000 HD 
HETATM   23  C   UNL     1      -9.815  19.219  66.226  1.00  0.00    -0.456 A  
HETATM   24  O   UNL     1      -7.923  20.658  66.184  1.00  0.00    -0.509 OA 
HETATM   25  H   UNL     1      -8.491  21.391  65.976  1.00  0.00     0.000 HD 
HETATM   26  C   UNL     1     -10.349  17.933  66.388  1.00  0.00    -0.365 A  
ENDBRANCH  14  15
ENDBRANCH  12  14
ENDBRANCH  11  12
ENDBRANCH   3   8
TORSDOF 5
ENDMDL
MODEL       76
REMARK 921   NORMALIZED FREE ENERGY PREDICTED BY IDOCK:   -5.26 KCAL/MOL
REMARK 922        TOTAL FREE ENERGY PREDICTED BY IDOCK:   -7.24 KCAL/MOL
REMARK 923 INTER-LIGAND FREE ENERGY PREDICTED BY IDOCK:   -6.71 KCAL/MOL
REMARK 924 INTRA-LIGAND FREE ENERGY PREDICTED BY IDOCK:   -0.53 KCAL/MOL
REMARK 927      BINDING AFFINITY PREDICTED BY RF-SCORE:    0.00 PKD
ROOT
HETATM    1  N   UNL     1     -10.562  11.988  64.974  1.00  0.00    -0.278 NA 
HETATM    2  H1  UNL     1      -9.993  11.343  65.523  1.00  0.00     0.000 HD 
HETATM    3  CA  UNL     1     -10.934  13.192  65.771  1.00  0.00    -0.277 C  
HETATM    4  H2  UNL     1     -10.100  12.244  64.101  1.00  0.00     0.000 HD 
ENDROOT
BRANCH   3   5
HETATM    5  C   UNL     1     -11.789  14.162  64.946  1.00  0.00    -0.402 C  
HETATM    6  H   UNL     1     -13.506  14.103  63.987  1.00  0.00     0.000 HD 
HETATM    7  O   UNL     1     -12.977  13.502  64.498  1.00  0.00    -0.643 OA 
ENDBRANCH   3   5
BRANCH   3   8
HETATM    8  C   UNL     1     -11.662  12.783  67.054  1.00  0.00    -0.374 C  
HETATM    9  O   UNL     1     -12.275  13.568  67.777  1.00  0.00    -0.311 OA 
HETATM   10  H   UNL     1     -10.989  10.823  66.736  1.00  0.00     0.000 HD 
HETATM   11  N   UNL     1     -11.509  11.437  67.363  1.00  0.00    -0.285 N  
BRANCH  11  12
HETATM   12  N   UNL     1     -12.078  10.924  68.546  1.00  0.00    -0.812 NA 
HETATM   13  H   UNL     1     -12.634  10.090  68.363  1.00  0.00     0.000 HD 
BRANCH  12  14
HETATM   14  C   UNL     1     -11.048  10.673  69.571  1.00  0.00    -0.274 C  
BRANCH  14  15
HETATM   15  C   UNL     1     -11.299   9.385  70.325  1.00  0.00    -0.261 A  
HETATM   16  C   UNL     1     -11.173   8.113  69.749  1.00  0.00     0.032 A  
HETATM   17  O   UNL     1     -10.795   7.911  68.442  1.00  0.00    -0.411 OA 
HETATM   18  C   UNL     1     -11.426   6.966  70.498  1.00  0.00    -0.342 A  
HETATM   19  H   UNL     1     -10.710   7.050  68.052  1.00  0.00     0.000 HD 
HETATM   20  C   UNL     1     -11.830   7.062  71.820  1.00  0.00    -0.312 A  
HETATM   21  O   UNL     1     -11.264   5.726  69.938  1.00  0.00    -0.346 OA 
HETATM   22  H   UNL     1     -11.436   4.943  70.449  1.00  0.00     0.000 HD 
HETATM   23  C   UNL     1     -11.995   8.304  72.411  1.00  0.00    -0.447 A  
HETATM   24  O   UNL     1     -12.071   5.931  72.547  1.00  0.00    -0.495 OA 
HETATM   25  H   UNL     1     -12.348   5.997  73.453  1.00  0.00     0.000 HD 
HETATM   26  C   UNL     1     -11.733   9.461  71.665  1.00  0.00    -0.468 A  
ENDBRANCH  14  15
ENDBRANCH  12  14
ENDBRANCH  11  12
ENDBRANCH   3   8
TORSDOF 5
ENDMDL
MODEL       77
REMARK 921   NORMALIZED FREE ENERGY PREDICTED BY IDOCK:   -5.23 KCAL/MOL
REMARK 922        TOTAL FREE ENERGY PREDICTED BY IDOCK:   -7.20 KCAL/MOL
REMARK 923 INTER-LIGAND FREE ENERGY PREDICTED BY IDOCK:   -6.40 KCAL/MOL
REMARK 924 INTRA-LIGAND FREE ENERGY PREDICTED BY IDOCK:   -0.80 KCAL/MOL
REMARK 927      BINDING AFFINITY PREDICTED BY RF-SCORE:    0.00 PKD
ROOT
HETATM    1  N   UNL     1     -12.333  14.354  63.728  1.00  0.00    -1.079 NA 
HETATM    2  H1  UNL     1     -12.808  13.687  63.118  1.00  0.00     0.000 HD 
HETATM    3  CA  UNL     1     -11.039  13.805  64.225  1.00  0.00    -0.283 C  
HETATM    4  H2  UNL     1     -12.205  15.256  63.268  1.00  0.00     0.000 HD 
ENDROOT
BRANCH   3   5
HETATM    5  C   UNL     1     -10.325  14.807  65.141  1.00  0.00    -0.410 C  
HETATM    6  H   UNL     1     -10.159  16.763  65.274  1.00  0.00     0.000 HD 
HETATM    7  O   UNL     1     -10.601  16.143  64.707  1.00  0.00    -0.630 OA 
ENDBRANCH   3   5
BRANCH   3   8
HETATM    8  C   UNL     1     -11.263  12.473  64.947  1.00  0.00    -0.305 C  
HETATM    9  O   UNL     1     -11.182  11.373  64.401  1.00  0.00    -0.304 OA 
HETATM   10  H   UNL     1     -11.689  13.561  66.688  1.00  0.00     0.000 HD 
HETATM   11  N   UNL     1     -11.631  12.629  66.278  1.00  0.00    -0.364 N  
BRANCH  11  12
HETATM   12  N   UNL     1     -11.925  11.492  67.057  1.00  0.00    -0.448 NA 
HETATM   13  H   UNL     1     -12.243  10.715  66.480  1.00  0.00     0.000 HD 
BRANCH  12  14
HETATM   14  C   UNL     1     -10.777  11.107  67.898  1.00  0.00    -0.216 C  
BRANCH  14  15
HETATM   15  C   UNL     1     -10.654   9.604  68.038  1.00  0.00    -0.292 A  
HETATM   16  C   UNL     1     -10.396   8.744  66.961  1.00  0.00    -0.283 A  
HETATM   17  O   UNL     1     -10.215   9.185  65.671  1.00  0.00    -0.337 OA 
HETATM   18  C   UNL     1     -10.302   7.368  67.158  1.00  0.00    -0.307 A  
HETATM   19  H   UNL     1     -10.040   8.602  64.942  1.00  0.00     0.000 HD 
HETATM   20  C   UNL     1     -10.486   6.822  68.418  1.00  0.00    -0.205 A  
HETATM   21  O   UNL     1     -10.012   6.538  66.107  1.00  0.00    -0.407 OA 
HETATM   22  H   UNL     1      -9.948   5.600  66.241  1.00  0.00     0.000 HD 
HETATM   23  C   UNL     1     -10.775   7.641  69.498  1.00  0.00    -0.211 A  
HETATM   24  O   UNL     1     -10.388   5.473  68.601  1.00  0.00    -0.186 OA 
HETATM   25  H   UNL     1     -10.514   5.098  69.465  1.00  0.00     0.000 HD 
HETATM   26  C   UNL     1     -10.861   9.026  69.308  1.00  0.00    -0.131 A  
ENDBRANCH  14  15
ENDBRANCH  12  14
ENDBRANCH  11  12
ENDBRANCH   3   8
TORSDOF 5
ENDMDL
MODEL       78
REMARK 921   NORMALIZED FREE ENERGY PREDICTED BY IDOCK:   -5.22 KCAL/MOL
REMARK 922        TOTAL FREE ENERGY PREDICTED BY IDOCK:   -7.19 KCAL/MOL
REMARK 923 INTER-LIGAND FREE ENERGY PREDICTED BY IDOCK:   -6.57 KCAL/MOL
REMARK 924 INTRA-LIGAND FREE ENERGY PREDICTED BY IDOCK:   -0.62 KCAL/MOL
REMARK 927      BINDING AFFINITY PREDICTED BY RF-SCORE:    0.00 PKD
ROOT
HETATM    1  N   UNL     1     -14.223  13.814  72.331  1.00  0.00    -0.697 NA 
HETATM    2  H1  UNL     1     -14.436  13.272  71.493  1.00  0.00     0.000 HD 
HETATM    3  CA  UNL     1     -13.534  15.090  71.987  1.00  0.00    -0.401 C  
HETATM    4  H2  UNL     1     -15.059  13.978  72.893  1.00  0.00     0.000 HD 
ENDROOT
BRANCH   3   5
HETATM    5  C   UNL     1     -13.214  15.906  73.247  1.00  0.00    -0.595 C  
HETATM    6  H   UNL     1     -12.158  15.656  74.887  1.00  0.00     0.000 HD 
HETATM    7  O   UNL     1     -12.356  15.151  74.108  1.00  0.00    -0.597 OA 
ENDBRANCH   3   5
BRANCH   3   8
HETATM    8  C   UNL     1     -12.263  14.815  71.180  1.00  0.00    -0.325 C  
HETATM    9  O   UNL     1     -11.324  15.605  71.085  1.00  0.00    -0.340 OA 
HETATM   10  H   UNL     1     -13.097  12.976  70.614  1.00  0.00     0.000 HD 
HETATM   11  N   UNL     1     -12.296  13.599  70.508  1.00  0.00    -0.355 N  
BRANCH  11  12
HETATM   12  N   UNL     1     -11.218  13.232  69.678  1.00  0.00    -0.470 NA 
HETATM   13  H   UNL     1     -10.898  12.285  69.879  1.00  0.00     0.000 HD 
BRANCH  12  14
HETATM   14  C   UNL     1     -11.555  13.398  68.253  1.00  0.00    -0.344 C  
BRANCH  14  15
HETATM   15  C   UNL     1     -10.620  14.364  67.556  1.00  0.00    -0.265 A  
HETATM   16  C   UNL     1      -9.226  14.217  67.541  1.00  0.00    -0.197 A  
HETATM   17  O   UNL     1      -8.571  13.171  68.149  1.00  0.00    -0.169 OA 
HETATM   18  C   UNL     1      -8.421  15.146  66.886  1.00  0.00    -0.244 A  
HETATM   19  H   UNL     1      -7.627  13.072  68.138  1.00  0.00     0.000 HD 
HETATM   20  C   UNL     1      -8.983  16.247  66.258  1.00  0.00    -0.331 A  
HETATM   21  O   UNL     1      -7.062  14.976  66.845  1.00  0.00    -0.312 OA 
HETATM   22  H   UNL     1      -6.513  15.610  66.397  1.00  0.00     0.000 HD 
HETATM   23  C   UNL     1     -10.354  16.439  66.282  1.00  0.00    -0.337 A  
HETATM   24  O   UNL     1      -8.185  17.150  65.615  1.00  0.00    -0.429 OA 
HETATM   25  H   UNL     1      -8.570  17.904  65.185  1.00  0.00     0.000 HD 
HETATM   26  C   UNL     1     -11.170  15.502  66.931  1.00  0.00    -0.159 A  
ENDBRANCH  14  15
ENDBRANCH  12  14
ENDBRANCH  11  12
ENDBRANCH   3   8
TORSDOF 5
ENDMDL
MODEL       79
REMARK 921   NORMALIZED FREE ENERGY PREDICTED BY IDOCK:   -5.22 KCAL/MOL
REMARK 922        TOTAL FREE ENERGY PREDICTED BY IDOCK:   -7.19 KCAL/MOL
REMARK 923 INTER-LIGAND FREE ENERGY PREDICTED BY IDOCK:   -6.67 KCAL/MOL
REMARK 924 INTRA-LIGAND FREE ENERGY PREDICTED BY IDOCK:   -0.52 KCAL/MOL
REMARK 927      BINDING AFFINITY PREDICTED BY RF-SCORE:    0.00 PKD
ROOT
HETATM    1  N   UNL     1     -12.611   7.236  70.795  1.00  0.00    -0.598 NA 
HETATM    2  H1  UNL     1     -12.145   6.938  69.937  1.00  0.00     0.000 HD 
HETATM    3  CA  UNL     1     -12.624   8.722  70.915  1.00  0.00     0.030 C  
HETATM    4  H2  UNL     1     -13.552   6.846  70.865  1.00  0.00     0.000 HD 
ENDROOT
BRANCH   3   5
HETATM    5  C   UNL     1     -13.325   9.170  72.204  1.00  0.00    -0.463 C  
HETATM    6  H   UNL     1     -13.783  10.876  73.069  1.00  0.00     0.000 HD 
HETATM    7  O   UNL     1     -13.349  10.599  72.271  1.00  0.00    -0.386 OA 
ENDBRANCH   3   5
BRANCH   3   8
HETATM    8  C   UNL     1     -11.199   9.279  70.849  1.00  0.00    -0.306 C  
HETATM    9  O   UNL     1     -10.346   9.090  71.715  1.00  0.00    -0.332 OA 
HETATM   10  H   UNL     1     -11.715  10.211  69.043  1.00  0.00     0.000 HD 
HETATM   11  N   UNL     1     -10.977  10.079  69.735  1.00  0.00    -0.260 N  
BRANCH  11  12
HETATM   12  N   UNL     1      -9.728  10.708  69.566  1.00  0.00    -0.416 NA 
HETATM   13  H   UNL     1      -8.987  10.203  70.052  1.00  0.00     0.000 HD 
BRANCH  12  14
HETATM   14  C   UNL     1      -9.409  10.895  68.139  1.00  0.00    -0.165 C  
BRANCH  14  15
HETATM   15  C   UNL     1     -10.403  11.804  67.449  1.00  0.00    -0.228 A  
HETATM   16  C   UNL     1     -10.944  12.954  68.042  1.00  0.00    -0.247 A  
HETATM   17  O   UNL     1     -10.611  13.376  69.307  1.00  0.00    -0.438 OA 
HETATM   18  C   UNL     1     -11.861  13.744  67.353  1.00  0.00    -0.396 A  
HETATM   19  H   UNL     1     -10.977  14.156  69.709  1.00  0.00     0.000 HD 
HETATM   20  C   UNL     1     -12.275  13.394  66.078  1.00  0.00    -0.437 A  
HETATM   21  O   UNL     1     -12.356  14.886  67.925  1.00  0.00    -0.543 OA 
HETATM   22  H   UNL     1     -12.981  15.425  67.455  1.00  0.00     0.000 HD 
HETATM   23  C   UNL     1     -11.786  12.247  65.475  1.00  0.00    -0.433 A  
HETATM   24  O   UNL     1     -13.172  14.178  65.410  1.00  0.00    -0.741 OA 
HETATM   25  H   UNL     1     -13.456  13.938  64.535  1.00  0.00     0.000 HD 
HETATM   26  C   UNL     1     -10.855  11.453  66.160  1.00  0.00    -0.310 A  
ENDBRANCH  14  15
ENDBRANCH  12  14
ENDBRANCH  11  12
ENDBRANCH   3   8
TORSDOF 5
ENDMDL
MODEL       80
REMARK 921   NORMALIZED FREE ENERGY PREDICTED BY IDOCK:   -5.21 KCAL/MOL
REMARK 922        TOTAL FREE ENERGY PREDICTED BY IDOCK:   -7.18 KCAL/MOL
REMARK 923 INTER-LIGAND FREE ENERGY PREDICTED BY IDOCK:   -6.72 KCAL/MOL
REMARK 924 INTRA-LIGAND FREE ENERGY PREDICTED BY IDOCK:   -0.46 KCAL/MOL
REMARK 927      BINDING AFFINITY PREDICTED BY RF-SCORE:    0.00 PKD
ROOT
HETATM    1  N   UNL     1     -12.319  13.827  63.036  1.00  0.00    -1.030 NA 
HETATM    2  H1  UNL     1     -13.326  13.707  62.923  1.00  0.00     0.000 HD 
HETATM    3  CA  UNL     1     -11.724  12.697  63.805  1.00  0.00    -0.491 C  
HETATM    4  H2  UNL     1     -11.854  13.955  62.137  1.00  0.00     0.000 HD 
ENDROOT
BRANCH   3   5
HETATM    5  C   UNL     1     -10.209  12.876  63.975  1.00  0.00    -0.231 C  
HETATM    6  H   UNL     1      -8.990  14.311  64.546  1.00  0.00     0.000 HD 
HETATM    7  O   UNL     1      -9.927  14.200  64.441  1.00  0.00    -0.117 OA 
ENDBRANCH   3   5
BRANCH   3   8
HETATM    8  C   UNL     1     -12.410  12.552  65.166  1.00  0.00    -0.429 C  
HETATM    9  O   UNL     1     -13.504  13.042  65.440  1.00  0.00    -0.267 OA 
HETATM   10  H   UNL     1     -10.737  11.472  65.823  1.00  0.00     0.000 HD 
HETATM   11  N   UNL     1     -11.641  11.859  66.093  1.00  0.00    -0.305 N  
BRANCH  11  12
HETATM   12  N   UNL     1     -12.118  11.693  67.409  1.00  0.00    -0.485 NA 
HETATM   13  H   UNL     1     -12.555  10.781  67.536  1.00  0.00     0.000 HD 
BRANCH  12  14
HETATM   14  C   UNL     1     -11.052  11.925  68.400  1.00  0.00    -0.244 C  
BRANCH  14  15
HETATM   15  C   UNL     1     -11.302  13.170  69.224  1.00  0.00    -0.312 A  
HETATM   16  C   UNL     1     -10.667  14.397  68.988  1.00  0.00    -0.250 A  
HETATM   17  O   UNL     1      -9.761  14.593  67.971  1.00  0.00    -0.208 OA 
HETATM   18  C   UNL     1     -10.938  15.503  69.789  1.00  0.00    -0.294 A  
HETATM   19  H   UNL     1      -9.331  15.425  67.811  1.00  0.00     0.000 HD 
HETATM   20  C   UNL     1     -11.823  15.404  70.851  1.00  0.00    -0.356 A  
HETATM   21  O   UNL     1     -10.341  16.709  69.528  1.00  0.00    -0.287 OA 
HETATM   22  H   UNL     1     -10.526  17.464  70.075  1.00  0.00     0.000 HD 
HETATM   23  C   UNL     1     -12.443  14.199  71.133  1.00  0.00    -0.445 A  
HETATM   24  O   UNL     1     -12.085  16.497  71.628  1.00  0.00    -0.603 OA 
HETATM   25  H   UNL     1     -12.691  16.429  72.357  1.00  0.00     0.000 HD 
HETATM   26  C   UNL     1     -12.182  13.085  70.324  1.00  0.00    -0.368 A  
ENDBRANCH  14  15
ENDBRANCH  12  14
ENDBRANCH  11  12
ENDBRANCH   3   8
TORSDOF 5
ENDMDL
MODEL       81
REMARK 921   NORMALIZED FREE ENERGY PREDICTED BY IDOCK:   -5.17 KCAL/MOL
REMARK 922        TOTAL FREE ENERGY PREDICTED BY IDOCK:   -7.13 KCAL/MOL
REMARK 923 INTER-LIGAND FREE ENERGY PREDICTED BY IDOCK:   -6.75 KCAL/MOL
REMARK 924 INTRA-LIGAND FREE ENERGY PREDICTED BY IDOCK:   -0.37 KCAL/MOL
REMARK 927      BINDING AFFINITY PREDICTED BY RF-SCORE:    0.00 PKD
ROOT
HETATM    1  N   UNL     1     -10.774  18.695  67.895  1.00  0.00    -0.350 NA 
HETATM    2  H1  UNL     1     -11.537  18.043  68.079  1.00  0.00     0.000 HD 
HETATM    3  CA  UNL     1     -10.345  18.636  66.469  1.00  0.00    -0.421 C  
HETATM    4  H2  UNL     1     -11.018  19.645  68.175  1.00  0.00     0.000 HD 
ENDROOT
BRANCH   3   5
HETATM    5  C   UNL     1      -9.198  19.617  66.192  1.00  0.00    -0.340 C  
HETATM    6  H   UNL     1      -8.201  20.980  67.202  1.00  0.00     0.000 HD 
HETATM    7  O   UNL     1      -8.911  20.373  67.373  1.00  0.00    -0.346 OA 
ENDBRANCH   3   5
BRANCH   3   8
HETATM    8  C   UNL     1      -9.944  17.209  66.086  1.00  0.00    -0.281 C  
HETATM    9  O   UNL     1      -8.815  16.887  65.717  1.00  0.00    -0.522 OA 
HETATM   10  H   UNL     1     -11.925  16.624  66.445  1.00  0.00     0.000 HD 
HETATM   11  N   UNL     1     -11.005  16.312  66.136  1.00  0.00    -0.084 N  
BRANCH  11  12
HETATM   12  N   UNL     1     -10.801  14.971  65.757  1.00  0.00    -0.337 NA 
HETATM   13  H   UNL     1      -9.975  14.576  66.206  1.00  0.00     0.000 HD 
BRANCH  12  14
HETATM   14  C   UNL     1     -11.999  14.152  66.016  1.00  0.00    -0.413 C  
BRANCH  14  15
HETATM   15  C   UNL     1     -11.853  13.309  67.265  1.00  0.00    -0.421 A  
HETATM   16  C   UNL     1     -11.992  13.817  68.564  1.00  0.00    -0.367 A  
HETATM   17  O   UNL     1     -12.291  15.133  68.830  1.00  0.00    -0.589 OA 
HETATM   18  C   UNL     1     -11.838  12.988  69.672  1.00  0.00    -0.319 A  
HETATM   19  H   UNL     1     -12.386  15.478  69.710  1.00  0.00     0.000 HD 
HETATM   20  C   UNL     1     -11.519  11.649  69.511  1.00  0.00    -0.304 A  
HETATM   21  O   UNL     1     -12.013  13.484  70.937  1.00  0.00    -0.483 OA 
HETATM   22  H   UNL     1     -11.908  12.918  71.693  1.00  0.00     0.000 HD 
HETATM   23  C   UNL     1     -11.342  11.121  68.243  1.00  0.00    -0.365 A  
HETATM   24  O   UNL     1     -11.374  10.843  70.604  1.00  0.00    -0.428 OA 
HETATM   25  H   UNL     1     -11.155   9.925  70.494  1.00  0.00     0.000 HD 
HETATM   26  C   UNL     1     -11.505  11.949  67.124  1.00  0.00    -0.386 A  
ENDBRANCH  14  15
ENDBRANCH  12  14
ENDBRANCH  11  12
ENDBRANCH   3   8
TORSDOF 5
ENDMDL
MODEL       82
REMARK 921   NORMALIZED FREE ENERGY PREDICTED BY IDOCK:   -5.17 KCAL/MOL
REMARK 922        TOTAL FREE ENERGY PREDICTED BY IDOCK:   -7.12 KCAL/MOL
REMARK 923 INTER-LIGAND FREE ENERGY PREDICTED BY IDOCK:   -6.35 KCAL/MOL
REMARK 924 INTRA-LIGAND FREE ENERGY PREDICTED BY IDOCK:   -0.78 KCAL/MOL
REMARK 927      BINDING AFFINITY PREDICTED BY RF-SCORE:    0.00 PKD
ROOT
HETATM    1  N   UNL     1      -7.931  11.366  65.807  1.00  0.00    -0.365 NA 
HETATM    2  H1  UNL     1      -7.663  11.541  66.776  1.00  0.00     0.000 HD 
HETATM    3  CA  UNL     1      -9.369  11.684  65.578  1.00  0.00    -0.156 C  
HETATM    4  H2  UNL     1      -7.327  11.867  65.155  1.00  0.00     0.000 HD 
ENDROOT
BRANCH   3   5
HETATM    5  C   UNL     1      -9.771  11.421  64.121  1.00  0.00    -0.235 C  
HETATM    6  H   UNL     1     -10.982  12.230  62.799  1.00  0.00     0.000 HD 
HETATM    7  O   UNL     1     -10.733  12.394  63.700  1.00  0.00    -0.417 OA 
ENDBRANCH   3   5
BRANCH   3   8
HETATM    8  C   UNL     1     -10.256  10.888  66.539  1.00  0.00    -0.232 C  
HETATM    9  O   UNL     1     -10.174   9.672  66.703  1.00  0.00    -0.234 OA 
HETATM   10  H   UNL     1     -11.249  12.676  67.002  1.00  0.00     0.000 HD 
HETATM   11  N   UNL     1     -11.215  11.671  67.170  1.00  0.00    -0.297 N  
BRANCH  11  12
HETATM   12  N   UNL     1     -12.142  11.067  68.044  1.00  0.00    -0.727 NA 
HETATM   13  H   UNL     1     -12.056  10.051  68.037  1.00  0.00     0.000 HD 
BRANCH  12  14
HETATM   14  C   UNL     1     -12.025  11.610  69.409  1.00  0.00    -0.316 C  
BRANCH  14  15
HETATM   15  C   UNL     1     -11.835  10.519  70.441  1.00  0.00    -0.431 A  
HETATM   16  C   UNL     1     -10.655   9.774  70.574  1.00  0.00    -0.312 A  
HETATM   17  O   UNL     1      -9.545   9.974  69.786  1.00  0.00    -0.222 OA 
HETATM   18  C   UNL     1     -10.548   8.778  71.541  1.00  0.00    -0.309 A  
HETATM   19  H   UNL     1      -8.745   9.470  69.876  1.00  0.00     0.000 HD 
HETATM   20  C   UNL     1     -11.617   8.487  72.374  1.00  0.00    -0.354 A  
HETATM   21  O   UNL     1      -9.378   8.081  71.689  1.00  0.00    -0.145 OA 
HETATM   22  H   UNL     1      -9.306   7.401  72.349  1.00  0.00     0.000 HD 
HETATM   23  C   UNL     1     -12.809   9.181  72.248  1.00  0.00    -0.472 A  
HETATM   24  O   UNL     1     -11.501   7.510  73.321  1.00  0.00    -0.613 OA 
HETATM   25  H   UNL     1     -12.234   7.311  73.893  1.00  0.00     0.000 HD 
HETATM   26  C   UNL     1     -12.919  10.191  71.283  1.00  0.00    -0.510 A  
ENDBRANCH  14  15
ENDBRANCH  12  14
ENDBRANCH  11  12
ENDBRANCH   3   8
TORSDOF 5
ENDMDL
MODEL       83
REMARK 921   NORMALIZED FREE ENERGY PREDICTED BY IDOCK:   -5.17 KCAL/MOL
REMARK 922        TOTAL FREE ENERGY PREDICTED BY IDOCK:   -7.12 KCAL/MOL
REMARK 923 INTER-LIGAND FREE ENERGY PREDICTED BY IDOCK:   -6.33 KCAL/MOL
REMARK 924 INTRA-LIGAND FREE ENERGY PREDICTED BY IDOCK:   -0.80 KCAL/MOL
REMARK 927      BINDING AFFINITY PREDICTED BY RF-SCORE:    0.00 PKD
ROOT
HETATM    1  N   UNL     1     -13.328   7.689  71.199  1.00  0.00    -0.579 NA 
HETATM    2  H1  UNL     1     -14.135   8.141  70.767  1.00  0.00     0.000 HD 
HETATM    3  CA  UNL     1     -12.581   8.638  72.072  1.00  0.00    -0.378 C  
HETATM    4  H2  UNL     1     -13.598   6.846  71.707  1.00  0.00     0.000 HD 
ENDROOT
BRANCH   3   5
HETATM    5  C   UNL     1     -11.368   7.960  72.721  1.00  0.00    -0.393 C  
HETATM    6  H   UNL     1     -10.513   6.189  72.662  1.00  0.00     0.000 HD 
HETATM    7  O   UNL     1     -11.263   6.609  72.260  1.00  0.00    -0.247 OA 
ENDBRANCH   3   5
BRANCH   3   8
HETATM    8  C   UNL     1     -12.150   9.874  71.277  1.00  0.00    -0.394 C  
HETATM    9  O   UNL     1     -12.802  10.916  71.219  1.00  0.00    -0.382 OA 
HETATM   10  H   UNL     1     -10.464   8.801  70.643  1.00  0.00     0.000 HD 
HETATM   11  N   UNL     1     -10.970   9.683  70.568  1.00  0.00    -0.287 N  
BRANCH  11  12
HETATM   12  N   UNL     1     -10.477  10.716  69.745  1.00  0.00    -0.407 NA 
HETATM   13  H   UNL     1      -9.474  10.847  69.870  1.00  0.00     0.000 HD 
BRANCH  12  14
HETATM   14  C   UNL     1     -10.819  10.484  68.330  1.00  0.00    -0.248 C  
BRANCH  14  15
HETATM   15  C   UNL     1     -10.982  11.780  67.564  1.00  0.00    -0.310 A  
HETATM   16  C   UNL     1     -11.541  12.941  68.117  1.00  0.00    -0.336 A  
HETATM   17  O   UNL     1     -11.984  13.019  69.417  1.00  0.00    -0.306 OA 
HETATM   18  C   UNL     1     -11.669  14.100  67.355  1.00  0.00    -0.391 A  
HETATM   19  H   UNL     1     -12.362  13.806  69.791  1.00  0.00     0.000 HD 
HETATM   20  C   UNL     1     -11.269  14.119  66.029  1.00  0.00    -0.319 A  
HETATM   21  O   UNL     1     -12.182  15.241  67.914  1.00  0.00    -0.412 OA 
HETATM   22  H   UNL     1     -12.269  16.032  67.394  1.00  0.00     0.000 HD 
HETATM   23  C   UNL     1     -10.743  12.980  65.442  1.00  0.00    -0.309 A  
HETATM   24  O   UNL     1     -11.395  15.261  65.292  1.00  0.00    -0.338 OA 
HETATM   25  H   UNL     1     -11.120  15.275  64.382  1.00  0.00     0.000 HD 
HETATM   26  C   UNL     1     -10.602  11.814  66.206  1.00  0.00    -0.292 A  
ENDBRANCH  14  15
ENDBRANCH  12  14
ENDBRANCH  11  12
ENDBRANCH   3   8
TORSDOF 5
ENDMDL
MODEL       84
REMARK 921   NORMALIZED FREE ENERGY PREDICTED BY IDOCK:   -5.16 KCAL/MOL
REMARK 922        TOTAL FREE ENERGY PREDICTED BY IDOCK:   -7.11 KCAL/MOL
REMARK 923 INTER-LIGAND FREE ENERGY PREDICTED BY IDOCK:   -6.82 KCAL/MOL
REMARK 924 INTRA-LIGAND FREE ENERGY PREDICTED BY IDOCK:   -0.29 KCAL/MOL
REMARK 927      BINDING AFFINITY PREDICTED BY RF-SCORE:    0.00 PKD
ROOT
HETATM    1  N   UNL     1     -12.574   7.865  72.469  1.00  0.00    -0.560 NA 
HETATM    2  H1  UNL     1     -13.501   8.202  72.208  1.00  0.00     0.000 HD 
HETATM    3  CA  UNL     1     -11.520   8.860  72.120  1.00  0.00    -0.317 C  
HETATM    4  H2  UNL     1     -12.534   7.607  73.455  1.00  0.00     0.000 HD 
ENDROOT
BRANCH   3   5
HETATM    5  C   UNL     1     -10.126   8.355  72.513  1.00  0.00    -0.292 C  
HETATM    6  H   UNL     1      -9.367   7.154  73.874  1.00  0.00     0.000 HD 
HETATM    7  O   UNL     1     -10.230   7.467  73.631  1.00  0.00    -0.341 OA 
ENDBRANCH   3   5
BRANCH   3   8
HETATM    8  C   UNL     1     -11.574   9.200  70.628  1.00  0.00    -0.235 C  
HETATM    9  O   UNL     1     -10.916   8.619  69.766  1.00  0.00    -0.216 OA 
HETATM   10  H   UNL     1     -12.926  10.734  71.091  1.00  0.00     0.000 HD 
HETATM   11  N   UNL     1     -12.401  10.280  70.344  1.00  0.00    -0.264 N  
BRANCH  11  12
HETATM   12  N   UNL     1     -12.509  10.745  69.018  1.00  0.00    -0.728 NA 
HETATM   13  H   UNL     1     -13.483  10.829  68.730  1.00  0.00     0.000 HD 
BRANCH  12  14
HETATM   14  C   UNL     1     -11.779  12.013  68.833  1.00  0.00    -0.326 C  
BRANCH  14  15
HETATM   15  C   UNL     1     -11.435  12.263  67.380  1.00  0.00    -0.422 A  
HETATM   16  C   UNL     1     -11.826  13.413  66.678  1.00  0.00    -0.395 A  
HETATM   17  O   UNL     1     -12.550  14.434  67.247  1.00  0.00    -0.538 OA 
HETATM   18  C   UNL     1     -11.481  13.578  65.338  1.00  0.00    -0.302 A  
HETATM   19  H   UNL     1     -12.815  15.212  66.771  1.00  0.00     0.000 HD 
HETATM   20  C   UNL     1     -10.767  12.598  64.668  1.00  0.00    -0.326 A  
HETATM   21  O   UNL     1     -11.835  14.721  64.670  1.00  0.00    -0.420 OA 
HETATM   22  H   UNL     1     -11.600  14.833  63.756  1.00  0.00     0.000 HD 
HETATM   23  C   UNL     1     -10.394  11.436  65.323  1.00  0.00    -0.336 A  
HETATM   24  O   UNL     1     -10.431  12.771  63.356  1.00  0.00    -0.483 OA 
HETATM   25  H   UNL     1      -9.941  12.099  62.896  1.00  0.00     0.000 HD 
HETATM   26  C   UNL     1     -10.729  11.268  66.673  1.00  0.00    -0.321 A  
ENDBRANCH  14  15
ENDBRANCH  12  14
ENDBRANCH  11  12
ENDBRANCH   3   8
TORSDOF 5
ENDMDL
MODEL       85
REMARK 921   NORMALIZED FREE ENERGY PREDICTED BY IDOCK:   -5.13 KCAL/MOL
REMARK 922        TOTAL FREE ENERGY PREDICTED BY IDOCK:   -7.08 KCAL/MOL
REMARK 923 INTER-LIGAND FREE ENERGY PREDICTED BY IDOCK:   -6.80 KCAL/MOL
REMARK 924 INTRA-LIGAND FREE ENERGY PREDICTED BY IDOCK:   -0.28 KCAL/MOL
REMARK 927      BINDING AFFINITY PREDICTED BY RF-SCORE:    0.00 PKD
ROOT
HETATM    1  N   UNL     1     -11.909  15.847  63.837  1.00  0.00    -1.258 NA 
HETATM    2  H1  UNL     1     -12.006  16.788  64.218  1.00  0.00     0.000 HD 
HETATM    3  CA  UNL     1     -11.690  14.846  64.919  1.00  0.00    -0.371 C  
HETATM    4  H2  UNL     1     -12.706  15.596  63.250  1.00  0.00     0.000 HD 
ENDROOT
BRANCH   3   5
HETATM    5  C   UNL     1     -11.544  13.430  64.346  1.00  0.00    -0.384 C  
HETATM    6  H   UNL     1     -12.096  11.612  64.856  1.00  0.00     0.000 HD 
HETATM    7  O   UNL     1     -12.187  12.488  65.211  1.00  0.00    -0.454 OA 
ENDBRANCH   3   5
BRANCH   3   8
HETATM    8  C   UNL     1     -10.466  15.221  65.759  1.00  0.00    -0.349 C  
HETATM    9  O   UNL     1     -10.208  16.367  66.125  1.00  0.00    -0.315 OA 
HETATM   10  H   UNL     1      -9.883  13.207  65.692  1.00  0.00     0.000 HD 
HETATM   11  N   UNL     1      -9.631  14.141  66.018  1.00  0.00    -0.264 N  
BRANCH  11  12
HETATM   12  N   UNL     1      -8.434  14.342  66.735  1.00  0.00    -0.423 NA 
HETATM   13  H   UNL     1      -8.246  15.333  66.878  1.00  0.00     0.000 HD 
BRANCH  12  14
HETATM   14  C   UNL     1      -8.442  13.603  68.011  1.00  0.00    -0.174 C  
BRANCH  14  15
HETATM   15  C   UNL     1      -9.189  12.291  67.904  1.00  0.00    -0.190 A  
HETATM   16  C   UNL     1     -10.450  12.068  68.477  1.00  0.00    -0.229 A  
HETATM   17  O   UNL     1     -11.137  13.028  69.182  1.00  0.00    -0.315 OA 
HETATM   18  C   UNL     1     -11.081  10.834  68.347  1.00  0.00    -0.266 A  
HETATM   19  H   UNL     1     -11.991  12.878  69.569  1.00  0.00     0.000 HD 
HETATM   20  C   UNL     1     -10.463   9.794  67.670  1.00  0.00    -0.251 A  
HETATM   21  O   UNL     1     -12.328  10.636  68.878  1.00  0.00    -0.800 OA 
HETATM   22  H   UNL     1     -12.759   9.794  68.789  1.00  0.00     0.000 HD 
HETATM   23  C   UNL     1      -9.204   9.970  67.120  1.00  0.00    -0.161 A  
HETATM   24  O   UNL     1     -11.092   8.589  67.545  1.00  0.00    -0.459 OA 
HETATM   25  H   UNL     1     -10.668   7.876  67.081  1.00  0.00     0.000 HD 
HETATM   26  C   UNL     1      -8.568  11.213  67.239  1.00  0.00    -0.140 A  
ENDBRANCH  14  15
ENDBRANCH  12  14
ENDBRANCH  11  12
ENDBRANCH   3   8
TORSDOF 5
ENDMDL
MODEL       86
REMARK 921   NORMALIZED FREE ENERGY PREDICTED BY IDOCK:   -5.13 KCAL/MOL
REMARK 922        TOTAL FREE ENERGY PREDICTED BY IDOCK:   -7.07 KCAL/MOL
REMARK 923 INTER-LIGAND FREE ENERGY PREDICTED BY IDOCK:   -6.61 KCAL/MOL
REMARK 924 INTRA-LIGAND FREE ENERGY PREDICTED BY IDOCK:   -0.46 KCAL/MOL
REMARK 927      BINDING AFFINITY PREDICTED BY RF-SCORE:    0.00 PKD
ROOT
HETATM    1  N   UNL     1     -10.410  18.637  65.799  1.00  0.00    -0.592 NA 
HETATM    2  H1  UNL     1     -10.438  18.496  64.789  1.00  0.00     0.000 HD 
HETATM    3  CA  UNL     1      -9.294  17.868  66.421  1.00  0.00    -0.255 C  
HETATM    4  H2  UNL     1     -10.361  19.628  66.038  1.00  0.00     0.000 HD 
ENDROOT
BRANCH   3   5
HETATM    5  C   UNL     1      -9.252  18.079  67.940  1.00  0.00    -0.268 C  
HETATM    6  H   UNL     1     -10.494  17.873  69.452  1.00  0.00     0.000 HD 
HETATM    7  O   UNL     1     -10.520  17.742  68.512  1.00  0.00    -0.366 OA 
ENDBRANCH   3   5
BRANCH   3   8
HETATM    8  C   UNL     1      -9.413  16.379  66.082  1.00  0.00    -0.329 C  
HETATM    9  O   UNL     1      -8.603  15.526  66.440  1.00  0.00    -0.294 OA 
HETATM   10  H   UNL     1     -11.149  16.831  64.995  1.00  0.00     0.000 HD 
HETATM   11  N   UNL     1     -10.504  16.090  65.270  1.00  0.00    -0.391 N  
BRANCH  11  12
HETATM   12  N   UNL     1     -10.713  14.768  64.830  1.00  0.00    -0.567 NA 
HETATM   13  H   UNL     1      -9.957  14.151  65.126  1.00  0.00     0.000 HD 
BRANCH  12  14
HETATM   14  C   UNL     1     -12.027  14.259  65.262  1.00  0.00    -0.389 C  
BRANCH  14  15
HETATM   15  C   UNL     1     -11.982  13.688  66.664  1.00  0.00    -0.458 A  
HETATM   16  C   UNL     1     -11.870  12.317  66.938  1.00  0.00    -0.264 A  
HETATM   17  O   UNL     1     -11.775  11.357  65.958  1.00  0.00    -0.223 OA 
HETATM   18  C   UNL     1     -11.841  11.856  68.252  1.00  0.00    -0.277 A  
HETATM   19  H   UNL     1     -11.699  10.429  66.144  1.00  0.00     0.000 HD 
HETATM   20  C   UNL     1     -11.948  12.742  69.312  1.00  0.00    -0.246 A  
HETATM   21  O   UNL     1     -11.693  10.519  68.512  1.00  0.00    -0.587 OA 
HETATM   22  H   UNL     1     -11.673  10.205  69.409  1.00  0.00     0.000 HD 
HETATM   23  C   UNL     1     -12.093  14.099  69.076  1.00  0.00    -0.348 A  
HETATM   24  O   UNL     1     -11.914  12.280  70.597  1.00  0.00    -0.491 OA 
HETATM   25  H   UNL     1     -11.987  12.887  71.324  1.00  0.00     0.000 HD 
HETATM   26  C   UNL     1     -12.112  14.570  67.756  1.00  0.00    -0.269 A  
ENDBRANCH  14  15
ENDBRANCH  12  14
ENDBRANCH  11  12
ENDBRANCH   3   8
TORSDOF 5
ENDMDL
MODEL       87
REMARK 921   NORMALIZED FREE ENERGY PREDICTED BY IDOCK:   -5.09 KCAL/MOL
REMARK 922        TOTAL FREE ENERGY PREDICTED BY IDOCK:   -7.02 KCAL/MOL
REMARK 923 INTER-LIGAND FREE ENERGY PREDICTED BY IDOCK:   -6.53 KCAL/MOL
REMARK 924 INTRA-LIGAND FREE ENERGY PREDICTED BY IDOCK:   -0.49 KCAL/MOL
REMARK 927      BINDING AFFINITY PREDICTED BY RF-SCORE:    0.00 PKD
ROOT
HETATM    1  N   UNL     1      -9.371  11.658  64.925  1.00  0.00    -0.417 NA 
HETATM    2  H1  UNL     1     -10.304  11.950  65.218  1.00  0.00     0.000 HD 
HETATM    3  CA  UNL     1      -9.327  10.195  64.645  1.00  0.00    -0.277 C  
HETATM    4  H2  UNL     1      -9.040  12.203  64.129  1.00  0.00     0.000 HD 
ENDROOT
BRANCH   3   5
HETATM    5  C   UNL     1      -7.924   9.755  64.205  1.00  0.00    -0.143 C  
HETATM    6  H   UNL     1      -7.155   8.585  62.823  1.00  0.00     0.000 HD 
HETATM    7  O   UNL     1      -8.023   8.857  63.095  1.00  0.00    -0.138 OA 
ENDBRANCH   3   5
BRANCH   3   8
HETATM    8  C   UNL     1      -9.788   9.398  65.869  1.00  0.00    -0.291 C  
HETATM    9  O   UNL     1      -9.589   8.194  66.020  1.00  0.00    -0.158 OA 
HETATM   10  H   UNL     1     -10.658  11.158  66.606  1.00  0.00     0.000 HD 
HETATM   11  N   UNL     1     -10.515  10.162  66.774  1.00  0.00    -0.224 N  
BRANCH  11  12
HETATM   12  N   UNL     1     -11.053   9.552  67.925  1.00  0.00    -0.515 NA 
HETATM   13  H   UNL     1     -10.668   8.619  68.069  1.00  0.00     0.000 HD 
BRANCH  12  14
HETATM   14  C   UNL     1     -10.873  10.402  69.116  1.00  0.00    -0.236 C  
BRANCH  14  15
HETATM   15  C   UNL     1     -11.746   9.956  70.270  1.00  0.00    -0.286 A  
HETATM   16  C   UNL     1     -11.744   8.651  70.784  1.00  0.00    -0.210 A  
HETATM   17  O   UNL     1     -10.935   7.651  70.299  1.00  0.00    -0.251 OA 
HETATM   18  C   UNL     1     -12.578   8.305  71.844  1.00  0.00    -0.344 A  
HETATM   19  H   UNL     1     -10.933   6.767  70.647  1.00  0.00     0.000 HD 
HETATM   20  C   UNL     1     -13.444   9.237  72.393  1.00  0.00    -0.459 A  
HETATM   21  O   UNL     1     -12.543   7.038  72.366  1.00  0.00    -0.509 OA 
HETATM   22  H   UNL     1     -13.112   6.802  73.089  1.00  0.00     0.000 HD 
HETATM   23  C   UNL     1     -13.496  10.525  71.888  1.00  0.00    -0.358 A  
HETATM   24  O   UNL     1     -14.256   8.887  73.435  1.00  0.00    -1.241 OA 
HETATM   25  H   UNL     1     -14.850   9.526  73.812  1.00  0.00     0.000 HD 
HETATM   26  C   UNL     1     -12.651  10.882  70.828  1.00  0.00    -0.470 A  
ENDBRANCH  14  15
ENDBRANCH  12  14
ENDBRANCH  11  12
ENDBRANCH   3   8
TORSDOF 5
ENDMDL
MODEL       88
REMARK 921   NORMALIZED FREE ENERGY PREDICTED BY IDOCK:   -5.06 KCAL/MOL
REMARK 922        TOTAL FREE ENERGY PREDICTED BY IDOCK:   -6.99 KCAL/MOL
REMARK 923 INTER-LIGAND FREE ENERGY PREDICTED BY IDOCK:   -6.55 KCAL/MOL
REMARK 924 INTRA-LIGAND FREE ENERGY PREDICTED BY IDOCK:   -0.45 KCAL/MOL
REMARK 927      BINDING AFFINITY PREDICTED BY RF-SCORE:    0.00 PKD
ROOT
HETATM    1  N   UNL     1     -12.456  16.261  72.083  1.00  0.00    -0.526 NA 
HETATM    2  H1  UNL     1     -13.195  16.513  72.740  1.00  0.00     0.000 HD 
HETATM    3  CA  UNL     1     -12.942  15.277  71.074  1.00  0.00    -0.462 C  
HETATM    4  H2  UNL     1     -12.052  17.086  71.638  1.00  0.00     0.000 HD 
ENDROOT
BRANCH   3   5
HETATM    5  C   UNL     1     -11.830  14.897  70.087  1.00  0.00    -0.308 C  
HETATM    6  H   UNL     1     -11.223  15.492  68.313  1.00  0.00     0.000 HD 
HETATM    7  O   UNL     1     -11.911  15.727  68.924  1.00  0.00    -0.393 OA 
ENDBRANCH   3   5
BRANCH   3   8
HETATM    8  C   UNL     1     -13.503  14.031  71.765  1.00  0.00    -0.392 C  
HETATM    9  O   UNL     1     -14.405  14.056  72.602  1.00  0.00    -0.596 OA 
HETATM   10  H   UNL     1     -12.102  12.888  70.703  1.00  0.00     0.000 HD 
HETATM   11  N   UNL     1     -12.847  12.862  71.399  1.00  0.00    -0.341 N  
BRANCH  11  12
HETATM   12  N   UNL     1     -13.217  11.640  71.994  1.00  0.00    -0.495 NA 
HETATM   13  H   UNL     1     -14.115  11.713  72.473  1.00  0.00     0.000 HD 
BRANCH  12  14
HETATM   14  C   UNL     1     -13.218  10.541  71.011  1.00  0.00    -0.239 C  
BRANCH  14  15
HETATM   15  C   UNL     1     -11.820  10.195  70.545  1.00  0.00    -0.408 A  
HETATM   16  C   UNL     1     -11.345  10.463  69.252  1.00  0.00    -0.235 A  
HETATM   17  O   UNL     1     -12.102  11.080  68.285  1.00  0.00    -0.737 OA 
HETATM   18  C   UNL     1     -10.048  10.112  68.885  1.00  0.00    -0.200 A  
HETATM   19  H   UNL     1     -11.781  11.262  67.409  1.00  0.00     0.000 HD 
HETATM   20  C   UNL     1      -9.211   9.470  69.783  1.00  0.00    -0.208 A  
HETATM   21  O   UNL     1      -9.580  10.411  67.633  1.00  0.00    -0.147 OA 
HETATM   22  H   UNL     1      -8.695  10.172  67.382  1.00  0.00     0.000 HD 
HETATM   23  C   UNL     1      -9.659   9.161  71.057  1.00  0.00    -0.350 A  
HETATM   24  O   UNL     1      -7.940   9.134  69.414  1.00  0.00    -0.090 OA 
HETATM   25  H   UNL     1      -7.365   8.693  70.030  1.00  0.00     0.000 HD 
HETATM   26  C   UNL     1     -10.959   9.520  71.435  1.00  0.00    -0.415 A  
ENDBRANCH  14  15
ENDBRANCH  12  14
ENDBRANCH  11  12
ENDBRANCH   3   8
TORSDOF 5
ENDMDL
MODEL       89
REMARK 921   NORMALIZED FREE ENERGY PREDICTED BY IDOCK:   -5.06 KCAL/MOL
REMARK 922        TOTAL FREE ENERGY PREDICTED BY IDOCK:   -6.98 KCAL/MOL
REMARK 923 INTER-LIGAND FREE ENERGY PREDICTED BY IDOCK:   -6.70 KCAL/MOL
REMARK 924 INTRA-LIGAND FREE ENERGY PREDICTED BY IDOCK:   -0.29 KCAL/MOL
REMARK 927      BINDING AFFINITY PREDICTED BY RF-SCORE:    0.00 PKD
ROOT
HETATM    1  N   UNL     1     -10.787  10.931  63.702  1.00  0.00    -0.508 NA 
HETATM    2  H1  UNL     1      -9.823  10.675  63.918  1.00  0.00     0.000 HD 
HETATM    3  CA  UNL     1     -10.957  12.411  63.660  1.00  0.00    -0.470 C  
HETATM    4  H2  UNL     1     -11.105  10.492  62.838  1.00  0.00     0.000 HD 
ENDROOT
BRANCH   3   5
HETATM    5  C   UNL     1     -12.406  12.795  63.335  1.00  0.00    -0.437 C  
HETATM    6  H   UNL     1     -14.201  12.253  63.928  1.00  0.00     0.000 HD 
HETATM    7  O   UNL     1     -13.305  12.015  64.129  1.00  0.00    -0.725 OA 
ENDBRANCH   3   5
BRANCH   3   8
HETATM    8  C   UNL     1     -10.511  13.041  64.982  1.00  0.00    -0.328 C  
HETATM    9  O   UNL     1     -10.388  12.416  66.035  1.00  0.00    -0.241 OA 
HETATM   10  H   UNL     1     -10.434  14.893  64.000  1.00  0.00     0.000 HD 
HETATM   11  N   UNL     1     -10.317  14.415  64.894  1.00  0.00    -0.425 N  
BRANCH  11  12
HETATM   12  N   UNL     1      -9.959  15.143  66.046  1.00  0.00    -0.289 NA 
HETATM   13  H   UNL     1      -8.951  15.123  66.202  1.00  0.00     0.000 HD 
BRANCH  12  14
HETATM   14  C   UNL     1     -10.469  16.525  65.988  1.00  0.00    -0.310 C  
BRANCH  14  15
HETATM   15  C   UNL     1      -9.656  17.468  66.849  1.00  0.00    -0.279 A  
HETATM   16  C   UNL     1      -9.534  18.841  66.593  1.00  0.00    -0.330 A  
HETATM   17  O   UNL     1     -10.154  19.469  65.538  1.00  0.00    -0.378 OA 
HETATM   18  C   UNL     1      -8.764  19.653  67.422  1.00  0.00    -0.310 A  
HETATM   19  H   UNL     1     -10.071  20.399  65.364  1.00  0.00     0.000 HD 
HETATM   20  C   UNL     1      -8.084  19.113  68.502  1.00  0.00    -0.359 A  
HETATM   21  O   UNL     1      -8.680  21.000  67.186  1.00  0.00    -0.568 OA 
HETATM   22  H   UNL     1      -8.154  21.553  67.753  1.00  0.00     0.000 HD 
HETATM   23  C   UNL     1      -8.157  17.755  68.765  1.00  0.00    -0.228 A  
HETATM   24  O   UNL     1      -7.334  19.918  69.312  1.00  0.00    -0.285 OA 
HETATM   25  H   UNL     1      -6.868  19.548  70.052  1.00  0.00     0.000 HD 
HETATM   26  C   UNL     1      -8.938  16.935  67.940  1.00  0.00    -0.225 A  
ENDBRANCH  14  15
ENDBRANCH  12  14
ENDBRANCH  11  12
ENDBRANCH   3   8
TORSDOF 5
ENDMDL
MODEL       90
REMARK 921   NORMALIZED FREE ENERGY PREDICTED BY IDOCK:   -5.05 KCAL/MOL
REMARK 922        TOTAL FREE ENERGY PREDICTED BY IDOCK:   -6.98 KCAL/MOL
REMARK 923 INTER-LIGAND FREE ENERGY PREDICTED BY IDOCK:   -6.71 KCAL/MOL
REMARK 924 INTRA-LIGAND FREE ENERGY PREDICTED BY IDOCK:   -0.26 KCAL/MOL
REMARK 927      BINDING AFFINITY PREDICTED BY RF-SCORE:    0.00 PKD
ROOT
HETATM    1  N   UNL     1     -11.059   6.153  66.719  1.00  0.00    -0.725 NA 
HETATM    2  H1  UNL     1     -11.869   6.403  66.149  1.00  0.00     0.000 HD 
HETATM    3  CA  UNL     1     -10.607   7.305  67.550  1.00  0.00    -0.274 C  
HETATM    4  H2  UNL     1     -11.243   5.328  67.290  1.00  0.00     0.000 HD 
ENDROOT
BRANCH   3   5
HETATM    5  C   UNL     1      -9.390   6.930  68.406  1.00  0.00    -0.129 C  
HETATM    6  H   UNL     1      -7.830   5.744  68.238  1.00  0.00     0.000 HD 
HETATM    7  O   UNL     1      -8.583   5.976  67.709  1.00  0.00    -0.108 OA 
ENDBRANCH   3   5
BRANCH   3   8
HETATM    8  C   UNL     1     -10.298   8.517  66.667  1.00  0.00    -0.233 C  
HETATM    9  O   UNL     1      -9.585   8.474  65.665  1.00  0.00    -0.097 OA 
HETATM   10  H   UNL     1     -11.435   9.687  67.984  1.00  0.00     0.000 HD 
HETATM   11  N   UNL     1     -10.853   9.697  67.146  1.00  0.00    -0.190 N  
BRANCH  11  12
HETATM   12  N   UNL     1     -10.608  10.908  66.468  1.00  0.00    -0.250 NA 
HETATM   13  H   UNL     1     -10.787  10.820  65.468  1.00  0.00     0.000 HD 
BRANCH  12  14
HETATM   14  C   UNL     1     -11.378  12.019  67.058  1.00  0.00    -0.336 C  
BRANCH  14  15
HETATM   15  C   UNL     1     -11.338  13.260  66.193  1.00  0.00    -0.335 A  
HETATM   16  C   UNL     1     -10.482  14.345  66.432  1.00  0.00    -0.295 A  
HETATM   17  O   UNL     1      -9.582  14.380  67.471  1.00  0.00    -0.209 OA 
HETATM   18  C   UNL     1     -10.501  15.462  65.600  1.00  0.00    -0.372 A  
HETATM   19  H   UNL     1      -9.002  15.114  67.633  1.00  0.00     0.000 HD 
HETATM   20  C   UNL     1     -11.384  15.532  64.534  1.00  0.00    -0.314 A  
HETATM   21  O   UNL     1      -9.635  16.501  65.818  1.00  0.00    -0.476 OA 
HETATM   22  H   UNL     1      -9.648  17.263  65.250  1.00  0.00     0.000 HD 
HETATM   23  C   UNL     1     -12.266  14.492  64.289  1.00  0.00    -0.441 A  
HETATM   24  O   UNL     1     -11.392  16.630  63.722  1.00  0.00    -1.457 OA 
HETATM   25  H   UNL     1     -11.998  16.678  62.991  1.00  0.00     0.000 HD 
HETATM   26  C   UNL     1     -12.245  13.362  65.117  1.00  0.00    -0.473 A  
ENDBRANCH  14  15
ENDBRANCH  12  14
ENDBRANCH  11  12
ENDBRANCH   3   8
TORSDOF 5
ENDMDL
MODEL       91
REMARK 921   NORMALIZED FREE ENERGY PREDICTED BY IDOCK:   -5.05 KCAL/MOL
REMARK 922        TOTAL FREE ENERGY PREDICTED BY IDOCK:   -6.97 KCAL/MOL
REMARK 923 INTER-LIGAND FREE ENERGY PREDICTED BY IDOCK:   -6.67 KCAL/MOL
REMARK 924 INTRA-LIGAND FREE ENERGY PREDICTED BY IDOCK:   -0.30 KCAL/MOL
REMARK 927      BINDING AFFINITY PREDICTED BY RF-SCORE:    0.00 PKD
ROOT
HETATM    1  N   UNL     1     -11.888  11.672  62.975  1.00  0.00    -0.877 NA 
HETATM    2  H1  UNL     1     -12.854  11.967  63.119  1.00  0.00     0.000 HD 
HETATM    3  CA  UNL     1     -11.184  11.475  64.275  1.00  0.00    -0.283 C  
HETATM    4  H2  UNL     1     -11.835  10.837  62.390  1.00  0.00     0.000 HD 
ENDROOT
BRANCH   3   5
HETATM    5  C   UNL     1      -9.732  11.030  64.059  1.00  0.00    -0.288 C  
HETATM    6  H   UNL     1      -8.421  11.074  62.593  1.00  0.00     0.000 HD 
HETATM    7  O   UNL     1      -9.320  11.350  62.727  1.00  0.00    -0.369 OA 
ENDBRANCH   3   5
BRANCH   3   8
HETATM    8  C   UNL     1     -11.242  12.753  65.116  1.00  0.00    -0.292 C  
HETATM    9  O   UNL     1     -11.710  12.807  66.253  1.00  0.00    -0.360 OA 
HETATM   10  H   UNL     1     -10.390  13.780  63.499  1.00  0.00     0.000 HD 
HETATM   11  N   UNL     1     -10.766  13.872  64.442  1.00  0.00    -0.352 N  
BRANCH  11  12
HETATM   12  N   UNL     1     -10.807  15.132  65.070  1.00  0.00    -0.417 NA 
HETATM   13  H   UNL     1     -11.605  15.211  65.701  1.00  0.00     0.000 HD 
BRANCH  12  14
HETATM   14  C   UNL     1      -9.540  15.429  65.762  1.00  0.00    -0.333 C  
BRANCH  14  15
HETATM   15  C   UNL     1      -9.680  16.578  66.738  1.00  0.00    -0.268 A  
HETATM   16  C   UNL     1      -8.917  17.752  66.667  1.00  0.00    -0.266 A  
HETATM   17  O   UNL     1      -7.973  17.980  65.693  1.00  0.00    -0.514 OA 
HETATM   18  C   UNL     1      -9.091  18.770  67.602  1.00  0.00    -0.282 A  
HETATM   19  H   UNL     1      -7.457  18.776  65.645  1.00  0.00     0.000 HD 
HETATM   20  C   UNL     1     -10.005  18.630  68.634  1.00  0.00    -0.388 A  
HETATM   21  O   UNL     1      -8.368  19.930  67.504  1.00  0.00    -0.305 OA 
HETATM   22  H   UNL     1      -8.487  20.624  68.141  1.00  0.00     0.000 HD 
HETATM   23  C   UNL     1     -10.752  17.470  68.752  1.00  0.00    -0.134 A  
HETATM   24  O   UNL     1     -10.171  19.636  69.543  1.00  0.00    -0.619 OA 
HETATM   25  H   UNL     1     -10.798  19.540  70.251  1.00  0.00     0.000 HD 
HETATM   26  C   UNL     1     -10.588  16.446  67.809  1.00  0.00    -0.321 A  
ENDBRANCH  14  15
ENDBRANCH  12  14
ENDBRANCH  11  12
ENDBRANCH   3   8
TORSDOF 5
ENDMDL
MODEL       92
REMARK 921   NORMALIZED FREE ENERGY PREDICTED BY IDOCK:   -5.04 KCAL/MOL
REMARK 922        TOTAL FREE ENERGY PREDICTED BY IDOCK:   -6.96 KCAL/MOL
REMARK 923 INTER-LIGAND FREE ENERGY PREDICTED BY IDOCK:   -6.65 KCAL/MOL
REMARK 924 INTRA-LIGAND FREE ENERGY PREDICTED BY IDOCK:   -0.31 KCAL/MOL
REMARK 927      BINDING AFFINITY PREDICTED BY RF-SCORE:    0.00 PKD
ROOT
HETATM    1  N   UNL     1     -11.888   6.445  72.371  1.00  0.00    -0.474 NA 
HETATM    2  H1  UNL     1     -10.903   6.228  72.212  1.00  0.00     0.000 HD 
HETATM    3  CA  UNL     1     -12.381   7.457  71.395  1.00  0.00    -0.361 C  
HETATM    4  H2  UNL     1     -12.463   5.602  72.361  1.00  0.00     0.000 HD 
ENDROOT
BRANCH   3   5
HETATM    5  C   UNL     1     -13.862   7.784  71.633  1.00  0.00    -0.383 C  
HETATM    6  H   UNL     1     -14.895   9.011  72.771  1.00  0.00     0.000 HD 
HETATM    7  O   UNL     1     -13.979   8.809  72.624  1.00  0.00    -0.403 OA 
ENDBRANCH   3   5
BRANCH   3   8
HETATM    8  C   UNL     1     -11.528   8.727  71.459  1.00  0.00    -0.305 C  
HETATM    9  O   UNL     1     -10.687   8.947  72.330  1.00  0.00    -0.320 OA 
HETATM   10  H   UNL     1     -12.548   9.422  69.764  1.00  0.00     0.000 HD 
HETATM   11  N   UNL     1     -11.841   9.646  70.464  1.00  0.00    -0.247 N  
BRANCH  11  12
HETATM   12  N   UNL     1     -11.176  10.887  70.428  1.00  0.00    -0.462 NA 
HETATM   13  H   UNL     1     -10.464  10.909  69.698  1.00  0.00     0.000 HD 
BRANCH  12  14
HETATM   14  C   UNL     1     -12.129  12.003  70.288  1.00  0.00    -0.312 C  
BRANCH  14  15
HETATM   15  C   UNL     1     -11.945  12.747  68.982  1.00  0.00    -0.288 A  
HETATM   16  C   UNL     1     -11.777  12.110  67.744  1.00  0.00    -0.320 A  
HETATM   17  O   UNL     1     -11.776  10.743  67.594  1.00  0.00    -0.615 OA 
HETATM   18  C   UNL     1     -11.605  12.854  66.580  1.00  0.00    -0.371 A  
HETATM   19  H   UNL     1     -11.662  10.311  66.756  1.00  0.00     0.000 HD 
HETATM   20  C   UNL     1     -11.573  14.239  66.627  1.00  0.00    -0.383 A  
HETATM   21  O   UNL     1     -11.479  12.225  65.369  1.00  0.00    -0.332 OA 
HETATM   22  H   UNL     1     -11.362  12.733  64.575  1.00  0.00     0.000 HD 
HETATM   23  C   UNL     1     -11.704  14.900  67.837  1.00  0.00    -0.344 A  
HETATM   24  O   UNL     1     -11.408  14.960  65.478  1.00  0.00    -0.347 OA 
HETATM   25  H   UNL     1     -11.387  15.909  65.511  1.00  0.00     0.000 HD 
HETATM   26  C   UNL     1     -11.887  14.156  69.011  1.00  0.00    -0.384 A  
ENDBRANCH  14  15
ENDBRANCH  12  14
ENDBRANCH  11  12
ENDBRANCH   3   8
TORSDOF 5
ENDMDL
MODEL       93
REMARK 921   NORMALIZED FREE ENERGY PREDICTED BY IDOCK:   -5.03 KCAL/MOL
REMARK 922        TOTAL FREE ENERGY PREDICTED BY IDOCK:   -6.95 KCAL/MOL
REMARK 923 INTER-LIGAND FREE ENERGY PREDICTED BY IDOCK:   -6.43 KCAL/MOL
REMARK 924 INTRA-LIGAND FREE ENERGY PREDICTED BY IDOCK:   -0.52 KCAL/MOL
REMARK 927      BINDING AFFINITY PREDICTED BY RF-SCORE:    0.00 PKD
ROOT
HETATM    1  N   UNL     1      -7.642  17.872  68.614  1.00  0.00    -0.281 NA 
HETATM    2  H1  UNL     1      -7.826  16.892  68.829  1.00  0.00     0.000 HD 
HETATM    3  CA  UNL     1      -8.735  18.457  67.787  1.00  0.00    -0.267 C  
HETATM    4  H2  UNL     1      -7.481  18.418  69.462  1.00  0.00     0.000 HD 
ENDROOT
BRANCH   3   5
HETATM    5  C   UNL     1      -8.460  19.932  67.464  1.00  0.00    -0.329 C  
HETATM    6  H   UNL     1      -8.557  21.096  65.881  1.00  0.00     0.000 HD 
HETATM    7  O   UNL     1      -8.728  20.183  66.081  1.00  0.00    -0.297 OA 
ENDBRANCH   3   5
BRANCH   3   8
HETATM    8  C   UNL     1      -8.930  17.647  66.502  1.00  0.00    -0.262 C  
HETATM    9  O   UNL     1      -8.006  17.224  65.810  1.00  0.00    -0.511 OA 
HETATM   10  H   UNL     1     -11.001  17.858  66.759  1.00  0.00     0.000 HD 
HETATM   11  N   UNL     1     -10.266  17.487  66.156  1.00  0.00    -0.353 N  
BRANCH  11  12
HETATM   12  N   UNL     1     -10.601  16.809  64.967  1.00  0.00    -0.705 NA 
HETATM   13  H   UNL     1      -9.804  16.295  64.592  1.00  0.00     0.000 HD 
BRANCH  12  14
HETATM   14  C   UNL     1     -11.769  15.930  65.160  1.00  0.00     0.271 C  
BRANCH  14  15
HETATM   15  C   UNL     1     -11.531  14.540  64.610  1.00  0.00    -0.389 A  
HETATM   16  C   UNL     1     -10.356  13.808  64.833  1.00  0.00    -0.398 A  
HETATM   17  O   UNL     1      -9.308  14.278  65.589  1.00  0.00    -0.523 OA 
HETATM   18  C   UNL     1     -10.198  12.535  64.291  1.00  0.00    -0.333 A  
HETATM   19  H   UNL     1      -8.512  13.782  65.741  1.00  0.00     0.000 HD 
HETATM   20  C   UNL     1     -11.190  11.978  63.500  1.00  0.00    -0.445 A  
HETATM   21  O   UNL     1      -9.063  11.811  64.546  1.00  0.00    -0.402 OA 
HETATM   22  H   UNL     1      -8.955  10.942  64.176  1.00  0.00     0.000 HD 
HETATM   23  C   UNL     1     -12.349  12.687  63.232  1.00  0.00    -0.453 A  
HETATM   24  O   UNL     1     -11.027  10.727  62.976  1.00  0.00    -0.601 OA 
HETATM   25  H   UNL     1     -11.707  10.345  62.433  1.00  0.00     0.000 HD 
HETATM   26  C   UNL     1     -12.518  13.964  63.783  1.00  0.00    -0.150 A  
ENDBRANCH  14  15
ENDBRANCH  12  14
ENDBRANCH  11  12
ENDBRANCH   3   8
TORSDOF 5
ENDMDL
MODEL       94
REMARK 921   NORMALIZED FREE ENERGY PREDICTED BY IDOCK:   -5.02 KCAL/MOL
REMARK 922        TOTAL FREE ENERGY PREDICTED BY IDOCK:   -6.94 KCAL/MOL
REMARK 923 INTER-LIGAND FREE ENERGY PREDICTED BY IDOCK:   -6.61 KCAL/MOL
REMARK 924 INTRA-LIGAND FREE ENERGY PREDICTED BY IDOCK:   -0.33 KCAL/MOL
REMARK 927      BINDING AFFINITY PREDICTED BY RF-SCORE:    0.00 PKD
ROOT
HETATM    1  N   UNL     1     -11.786   7.709  70.193  1.00  0.00    -0.476 NA 
HETATM    2  H1  UNL     1     -12.768   7.949  70.334  1.00  0.00     0.000 HD 
HETATM    3  CA  UNL     1     -10.889   8.781  70.710  1.00  0.00    -0.234 C  
HETATM    4  H2  UNL     1     -11.560   6.801  70.600  1.00  0.00     0.000 HD 
ENDROOT
BRANCH   3   5
HETATM    5  C   UNL     1      -9.412   8.421  70.499  1.00  0.00    -0.169 C  
HETATM    6  H   UNL     1      -7.831   8.127  71.631  1.00  0.00     0.000 HD 
HETATM    7  O   UNL     1      -8.745   8.350  71.762  1.00  0.00    -0.146 OA 
ENDBRANCH   3   5
BRANCH   3   8
HETATM    8  C   UNL     1     -11.220  10.124  70.053  1.00  0.00    -0.299 C  
HETATM    9  O   UNL     1     -12.347  10.616  70.026  1.00  0.00    -0.311 OA 
HETATM   10  H   UNL     1      -9.210  10.264  69.474  1.00  0.00     0.000 HD 
HETATM   11  N   UNL     1     -10.126  10.710  69.428  1.00  0.00    -0.205 N  
BRANCH  11  12
HETATM   12  N   UNL     1     -10.289  11.924  68.732  1.00  0.00    -0.321 NA 
HETATM   13  H   UNL     1     -10.038  12.724  69.312  1.00  0.00     0.000 HD 
BRANCH  12  14
HETATM   14  C   UNL     1      -9.540  11.920  67.462  1.00  0.00    -0.175 C  
BRANCH  14  15
HETATM   15  C   UNL     1     -10.364  12.462  66.314  1.00  0.00    -0.267 A  
HETATM   16  C   UNL     1     -10.720  11.703  65.190  1.00  0.00    -0.296 A  
HETATM   17  O   UNL     1     -10.366  10.384  65.028  1.00  0.00    -0.306 OA 
HETATM   18  C   UNL     1     -11.476  12.265  64.164  1.00  0.00    -0.383 A  
HETATM   19  H   UNL     1     -10.607   9.870  64.267  1.00  0.00     0.000 HD 
HETATM   20  C   UNL     1     -11.868  13.593  64.223  1.00  0.00    -0.425 A  
HETATM   21  O   UNL     1     -11.851  11.506  63.087  1.00  0.00    -0.881 OA 
HETATM   22  H   UNL     1     -12.367  11.890  62.387  1.00  0.00     0.000 HD 
HETATM   23  C   UNL     1     -11.505  14.380  65.304  1.00  0.00    -0.350 A  
HETATM   24  O   UNL     1     -12.612  14.133  63.213  1.00  0.00    -1.080 OA 
HETATM   25  H   UNL     1     -12.881  15.044  63.254  1.00  0.00     0.000 HD 
HETATM   26  C   UNL     1     -10.754  13.817  66.344  1.00  0.00    -0.281 A  
ENDBRANCH  14  15
ENDBRANCH  12  14
ENDBRANCH  11  12
ENDBRANCH   3   8
TORSDOF 5
ENDMDL
MODEL       95
REMARK 921   NORMALIZED FREE ENERGY PREDICTED BY IDOCK:   -5.01 KCAL/MOL
REMARK 922        TOTAL FREE ENERGY PREDICTED BY IDOCK:   -6.92 KCAL/MOL
REMARK 923 INTER-LIGAND FREE ENERGY PREDICTED BY IDOCK:   -6.50 KCAL/MOL
REMARK 924 INTRA-LIGAND FREE ENERGY PREDICTED BY IDOCK:   -0.42 KCAL/MOL
REMARK 927      BINDING AFFINITY PREDICTED BY RF-SCORE:    0.00 PKD
ROOT
HETATM    1  N   UNL     1     -11.878   5.467  72.824  1.00  0.00    -0.481 NA 
HETATM    2  H1  UNL     1     -11.666   5.618  73.811  1.00  0.00     0.000 HD 
HETATM    3  CA  UNL     1     -10.868   6.127  71.948  1.00  0.00    -0.249 C  
HETATM    4  H2  UNL     1     -11.970   4.474  72.608  1.00  0.00     0.000 HD 
ENDROOT
BRANCH   3   5
HETATM    5  C   UNL     1     -11.186   5.900  70.464  1.00  0.00    -0.223 C  
HETATM    6  H   UNL     1     -10.534   4.736  69.019  1.00  0.00     0.000 HD 
HETATM    7  O   UNL     1     -10.337   4.876  69.937  1.00  0.00    -0.265 OA 
ENDBRANCH   3   5
BRANCH   3   8
HETATM    8  C   UNL     1     -10.778   7.623  72.262  1.00  0.00    -0.260 C  
HETATM    9  O   UNL     1     -10.241   8.083  73.269  1.00  0.00    -0.304 OA 
HETATM   10  H   UNL     1     -11.858   7.992  70.503  1.00  0.00     0.000 HD 
HETATM   11  N   UNL     1     -11.424   8.417  71.322  1.00  0.00    -0.271 N  
BRANCH  11  12
HETATM   12  N   UNL     1     -11.473   9.813  71.506  1.00  0.00    -0.366 NA 
HETATM   13  H   UNL     1     -10.603  10.170  71.901  1.00  0.00     0.000 HD 
BRANCH  12  14
HETATM   14  C   UNL     1     -11.823  10.508  70.253  1.00  0.00    -0.331 C  
BRANCH  14  15
HETATM   15  C   UNL     1     -12.180  11.960  70.489  1.00  0.00    -0.426 A  
HETATM   16  C   UNL     1     -12.862  12.415  71.627  1.00  0.00    -0.270 A  
HETATM   17  O   UNL     1     -13.261  11.586  72.648  1.00  0.00    -0.338 OA 
HETATM   18  C   UNL     1     -13.167  13.765  71.779  1.00  0.00    -0.386 A  
HETATM   19  H   UNL     1     -13.723  11.894  73.419  1.00  0.00     0.000 HD 
HETATM   20  C   UNL     1     -12.824  14.680  70.796  1.00  0.00    -0.358 A  
HETATM   21  O   UNL     1     -13.801  14.207  72.910  1.00  0.00    -0.639 OA 
HETATM   22  H   UNL     1     -14.008  15.129  73.014  1.00  0.00     0.000 HD 
HETATM   23  C   UNL     1     -12.179  14.260  69.645  1.00  0.00    -0.371 A  
HETATM   24  O   UNL     1     -13.124  16.003  70.957  1.00  0.00    -0.581 OA 
HETATM   25  H   UNL     1     -12.889  16.631  70.284  1.00  0.00     0.000 HD 
HETATM   26  C   UNL     1     -11.861  12.904  69.491  1.00  0.00    -0.383 A  
ENDBRANCH  14  15
ENDBRANCH  12  14
ENDBRANCH  11  12
ENDBRANCH   3   8
TORSDOF 5
ENDMDL
MODEL       96
REMARK 921   NORMALIZED FREE ENERGY PREDICTED BY IDOCK:   -5.00 KCAL/MOL
REMARK 922        TOTAL FREE ENERGY PREDICTED BY IDOCK:   -6.92 KCAL/MOL
REMARK 923 INTER-LIGAND FREE ENERGY PREDICTED BY IDOCK:   -6.72 KCAL/MOL
REMARK 924 INTRA-LIGAND FREE ENERGY PREDICTED BY IDOCK:   -0.20 KCAL/MOL
REMARK 927      BINDING AFFINITY PREDICTED BY RF-SCORE:    0.00 PKD
ROOT
HETATM    1  N   UNL     1      -8.400  16.723  65.991  1.00  0.00    -0.473 NA 
HETATM    2  H1  UNL     1      -8.130  15.741  65.930  1.00  0.00     0.000 HD 
HETATM    3  CA  UNL     1      -9.876  16.869  66.142  1.00  0.00    -0.297 C  
HETATM    4  H2  UNL     1      -7.897  17.205  66.737  1.00  0.00     0.000 HD 
ENDROOT
BRANCH   3   5
HETATM    5  C   UNL     1     -10.283  18.345  66.234  1.00  0.00    -0.406 C  
HETATM    6  H   UNL     1      -9.454  20.088  65.851  1.00  0.00     0.000 HD 
HETATM    7  O   UNL     1      -9.202  19.174  65.794  1.00  0.00    -0.383 OA 
ENDBRANCH   3   5
BRANCH   3   8
HETATM    8  C   UNL     1     -10.606  16.174  64.990  1.00  0.00    -0.276 C  
HETATM    9  O   UNL     1     -11.322  16.759  64.177  1.00  0.00    -1.194 OA 
HETATM   10  H   UNL     1      -9.831  14.352  65.681  1.00  0.00     0.000 HD 
HETATM   11  N   UNL     1     -10.432  14.795  64.986  1.00  0.00    -0.417 N  
BRANCH  11  12
HETATM   12  N   UNL     1     -11.089  14.013  64.015  1.00  0.00    -0.527 NA 
HETATM   13  H   UNL     1     -10.437  13.660  63.315  1.00  0.00     0.000 HD 
BRANCH  12  14
HETATM   14  C   UNL     1     -11.858  12.920  64.637  1.00  0.00    -0.372 C  
BRANCH  14  15
HETATM   15  C   UNL     1     -11.265  12.490  65.962  1.00  0.00    -0.354 A  
HETATM   16  C   UNL     1      -9.953  12.017  66.107  1.00  0.00    -0.231 A  
HETATM   17  O   UNL     1      -9.070  11.911  65.058  1.00  0.00    -0.415 OA 
HETATM   18  C   UNL     1      -9.470  11.631  67.356  1.00  0.00    -0.167 A  
HETATM   19  H   UNL     1      -8.181  11.590  65.156  1.00  0.00     0.000 HD 
HETATM   20  C   UNL     1     -10.288  11.684  68.474  1.00  0.00    -0.212 A  
HETATM   21  O   UNL     1      -8.176  11.206  67.495  1.00  0.00    -0.115 OA 
HETATM   22  H   UNL     1      -7.847  10.942  68.347  1.00  0.00     0.000 HD 
HETATM   23  C   UNL     1     -11.599  12.115  68.360  1.00  0.00    -0.381 A  
HETATM   24  O   UNL     1      -9.804  11.307  69.694  1.00  0.00    -0.362 OA 
HETATM   25  H   UNL     1     -10.364  11.343  70.461  1.00  0.00     0.000 HD 
HETATM   26  C   UNL     1     -12.086  12.514  67.108  1.00  0.00    -0.135 A  
ENDBRANCH  14  15
ENDBRANCH  12  14
ENDBRANCH  11  12
ENDBRANCH   3   8
TORSDOF 5
ENDMDL
MODEL       97
REMARK 921   NORMALIZED FREE ENERGY PREDICTED BY IDOCK:   -5.00 KCAL/MOL
REMARK 922        TOTAL FREE ENERGY PREDICTED BY IDOCK:   -6.91 KCAL/MOL
REMARK 923 INTER-LIGAND FREE ENERGY PREDICTED BY IDOCK:   -6.03 KCAL/MOL
REMARK 924 INTRA-LIGAND FREE ENERGY PREDICTED BY IDOCK:   -0.88 KCAL/MOL
REMARK 927      BINDING AFFINITY PREDICTED BY RF-SCORE:    0.00 PKD
ROOT
HETATM    1  N   UNL     1      -9.806  11.248  62.613  1.00  0.00    -0.608 NA 
HETATM    2  H1  UNL     1     -10.705  11.486  62.192  1.00  0.00     0.000 HD 
HETATM    3  CA  UNL     1      -9.989  10.499  63.888  1.00  0.00    -0.282 C  
HETATM    4  H2  UNL     1      -9.210  10.738  61.960  1.00  0.00     0.000 HD 
ENDROOT
BRANCH   3   5
HETATM    5  C   UNL     1      -8.638  10.142  64.522  1.00  0.00    -0.189 C  
HETATM    6  H   UNL     1      -7.614   8.502  64.886  1.00  0.00     0.000 HD 
HETATM    7  O   UNL     1      -8.450   8.723  64.494  1.00  0.00    -0.171 OA 
ENDBRANCH   3   5
BRANCH   3   8
HETATM    8  C   UNL     1     -10.851  11.303  64.865  1.00  0.00    -0.229 C  
HETATM    9  O   UNL     1     -10.748  11.236  66.090  1.00  0.00    -0.265 OA 
HETATM   10  H   UNL     1     -11.867  12.100  63.213  1.00  0.00     0.000 HD 
HETATM   11  N   UNL     1     -11.816  12.077  64.232  1.00  0.00    -0.360 N  
BRANCH  11  12
HETATM   12  N   UNL     1     -12.722  12.831  65.004  1.00  0.00    -0.760 NA 
HETATM   13  H   UNL     1     -12.711  12.542  65.982  1.00  0.00     0.000 HD 
BRANCH  12  14
HETATM   14  C   UNL     1     -12.472  14.277  64.866  1.00  0.00    -0.390 C  
BRANCH  14  15
HETATM   15  C   UNL     1     -11.388  14.759  65.806  1.00  0.00    -0.336 A  
HETATM   16  C   UNL     1     -11.321  14.401  67.161  1.00  0.00    -0.343 A  
HETATM   17  O   UNL     1     -12.230  13.563  67.764  1.00  0.00    -0.311 OA 
HETATM   18  C   UNL     1     -10.300  14.886  67.974  1.00  0.00    -0.244 A  
HETATM   19  H   UNL     1     -12.184  13.320  68.681  1.00  0.00     0.000 HD 
HETATM   20  C   UNL     1      -9.345  15.751  67.466  1.00  0.00    -0.209 A  
HETATM   21  O   UNL     1     -10.221  14.501  69.287  1.00  0.00    -0.350 OA 
HETATM   22  H   UNL     1      -9.524  14.832  69.842  1.00  0.00     0.000 HD 
HETATM   23  C   UNL     1      -9.400  16.151  66.141  1.00  0.00    -0.372 A  
HETATM   24  O   UNL     1      -8.345  16.218  68.271  1.00  0.00    -0.174 OA 
HETATM   25  H   UNL     1      -7.690  16.811  67.922  1.00  0.00     0.000 HD 
HETATM   26  C   UNL     1     -10.419  15.659  65.315  1.00  0.00    -0.439 A  
ENDBRANCH  14  15
ENDBRANCH  12  14
ENDBRANCH  11  12
ENDBRANCH   3   8
TORSDOF 5
ENDMDL
MODEL       98
REMARK 921   NORMALIZED FREE ENERGY PREDICTED BY IDOCK:   -4.98 KCAL/MOL
REMARK 922        TOTAL FREE ENERGY PREDICTED BY IDOCK:   -6.88 KCAL/MOL
REMARK 923 INTER-LIGAND FREE ENERGY PREDICTED BY IDOCK:   -6.11 KCAL/MOL
REMARK 924 INTRA-LIGAND FREE ENERGY PREDICTED BY IDOCK:   -0.77 KCAL/MOL
REMARK 927      BINDING AFFINITY PREDICTED BY RF-SCORE:    0.00 PKD
ROOT
HETATM    1  N   UNL     1      -9.745   9.644  65.164  1.00  0.00    -0.422 NA 
HETATM    2  H1  UNL     1     -10.690   9.818  64.821  1.00  0.00     0.000 HD 
HETATM    3  CA  UNL     1      -9.770   8.935  66.475  1.00  0.00    -0.254 C  
HETATM    4  H2  UNL     1      -9.184   9.141  64.477  1.00  0.00     0.000 HD 
ENDROOT
BRANCH   3   5
HETATM    5  C   UNL     1      -8.349   8.672  66.992  1.00  0.00    -0.106 C  
HETATM    6  H   UNL     1      -6.753   9.743  67.409  1.00  0.00     0.000 HD 
HETATM    7  O   UNL     1      -7.632   9.906  67.089  1.00  0.00    -0.091 OA 
ENDBRANCH   3   5
BRANCH   3   8
HETATM    8  C   UNL     1     -10.583   9.729  67.501  1.00  0.00    -0.275 C  
HETATM    9  O   UNL     1     -10.796   9.350  68.652  1.00  0.00    -0.195 OA 
HETATM   10  H   UNL     1     -10.916  11.177  66.021  1.00  0.00     0.000 HD 
HETATM   11  N   UNL     1     -11.117  10.903  66.983  1.00  0.00    -0.251 N  
BRANCH  11  12
HETATM   12  N   UNL     1     -11.935  11.713  67.795  1.00  0.00    -0.623 NA 
HETATM   13  H   UNL     1     -12.401  11.168  68.520  1.00  0.00     0.000 HD 
BRANCH  12  14
HETATM   14  C   UNL     1     -11.176  12.839  68.369  1.00  0.00    -0.278 C  
BRANCH  14  15
HETATM   15  C   UNL     1     -11.876  13.445  69.567  1.00  0.00    -0.391 A  
HETATM   16  C   UNL     1     -12.407  12.686  70.620  1.00  0.00    -0.290 A  
HETATM   17  O   UNL     1     -12.330  11.314  70.673  1.00  0.00    -0.348 OA 
HETATM   18  C   UNL     1     -13.046  13.306  71.691  1.00  0.00    -0.363 A  
HETATM   19  H   UNL     1     -12.690  10.800  71.387  1.00  0.00     0.000 HD 
HETATM   20  C   UNL     1     -13.191  14.684  71.723  1.00  0.00    -0.350 A  
HETATM   21  O   UNL     1     -13.529  12.560  72.734  1.00  0.00    -0.564 OA 
HETATM   22  H   UNL     1     -13.965  12.984  73.464  1.00  0.00     0.000 HD 
HETATM   23  C   UNL     1     -12.708  15.461  70.683  1.00  0.00    -0.490 A  
HETATM   24  O   UNL     1     -13.816  15.283  72.779  1.00  0.00    -0.482 OA 
HETATM   25  H   UNL     1     -13.916  16.227  72.801  1.00  0.00     0.000 HD 
HETATM   26  C   UNL     1     -12.055  14.843  69.608  1.00  0.00    -0.334 A  
ENDBRANCH  14  15
ENDBRANCH  12  14
ENDBRANCH  11  12
ENDBRANCH   3   8
TORSDOF 5
ENDMDL
MODEL       99
REMARK 921   NORMALIZED FREE ENERGY PREDICTED BY IDOCK:   -4.96 KCAL/MOL
REMARK 922        TOTAL FREE ENERGY PREDICTED BY IDOCK:   -6.86 KCAL/MOL
REMARK 923 INTER-LIGAND FREE ENERGY PREDICTED BY IDOCK:   -6.41 KCAL/MOL
REMARK 924 INTRA-LIGAND FREE ENERGY PREDICTED BY IDOCK:   -0.45 KCAL/MOL
REMARK 927      BINDING AFFINITY PREDICTED BY RF-SCORE:    0.00 PKD
ROOT
HETATM    1  N   UNL     1      -9.973   9.893  64.727  1.00  0.00    -0.397 NA 
HETATM    2  H1  UNL     1     -10.930  10.096  64.435  1.00  0.00     0.000 HD 
HETATM    3  CA  UNL     1      -9.921   9.488  66.161  1.00  0.00    -0.272 C  
HETATM    4  H2  UNL     1      -9.537   9.195  64.124  1.00  0.00     0.000 HD 
ENDROOT
BRANCH   3   5
HETATM    5  C   UNL     1      -8.484   9.182  66.601  1.00  0.00    -0.123 C  
HETATM    6  H   UNL     1      -7.357   7.583  66.810  1.00  0.00     0.000 HD 
HETATM    7  O   UNL     1      -8.246   7.772  66.538  1.00  0.00    -0.117 OA 
ENDBRANCH   3   5
BRANCH   3   8
HETATM    8  C   UNL     1     -10.543  10.569  67.049  1.00  0.00    -0.253 C  
HETATM    9  O   UNL     1     -11.381  11.381  66.659  1.00  0.00    -0.355 OA 
HETATM   10  H   UNL     1      -9.321   9.896  68.615  1.00  0.00     0.000 HD 
HETATM   11  N   UNL     1     -10.018  10.587  68.335  1.00  0.00    -0.159 N  
BRANCH  11  12
HETATM   12  N   UNL     1     -10.453  11.565  69.252  1.00  0.00    -0.421 NA 
HETATM   13  H   UNL     1     -10.501  12.487  68.821  1.00  0.00     0.000 HD 
BRANCH  12  14
HETATM   14  C   UNL     1     -11.740  11.189  69.867  1.00  0.00    -0.355 C  
BRANCH  14  15
HETATM   15  C   UNL     1     -12.399  12.359  70.565  1.00  0.00    -0.346 A  
HETATM   16  C   UNL     1     -12.402  13.665  70.054  1.00  0.00    -0.278 A  
HETATM   17  O   UNL     1     -11.817  14.007  68.858  1.00  0.00    -0.315 OA 
HETATM   18  C   UNL     1     -13.023  14.699  70.751  1.00  0.00    -0.347 A  
HETATM   19  H   UNL     1     -11.819  14.892  68.512  1.00  0.00     0.000 HD 
HETATM   20  C   UNL     1     -13.627  14.460  71.976  1.00  0.00    -0.424 A  
HETATM   21  O   UNL     1     -13.054  15.964  70.227  1.00  0.00    -0.700 OA 
HETATM   22  H   UNL     1     -13.477  16.670  70.703  1.00  0.00     0.000 HD 
HETATM   23  C   UNL     1     -13.613  13.189  72.525  1.00  0.00    -0.595 A  
HETATM   24  O   UNL     1     -14.236  15.481  72.649  1.00  0.00    -0.518 OA 
HETATM   25  H   UNL     1     -14.650  15.317  73.489  1.00  0.00     0.000 HD 
HETATM   26  C   UNL     1     -12.999  12.143  71.823  1.00  0.00    -0.437 A  
ENDBRANCH  14  15
ENDBRANCH  12  14
ENDBRANCH  11  12
ENDBRANCH   3   8
TORSDOF 5
ENDMDL
MODEL      100
REMARK 921   NORMALIZED FREE ENERGY PREDICTED BY IDOCK:   -4.94 KCAL/MOL
REMARK 922        TOTAL FREE ENERGY PREDICTED BY IDOCK:   -6.83 KCAL/MOL
REMARK 923 INTER-LIGAND FREE ENERGY PREDICTED BY IDOCK:   -6.04 KCAL/MOL
REMARK 924 INTRA-LIGAND FREE ENERGY PREDICTED BY IDOCK:   -0.79 KCAL/MOL
REMARK 927      BINDING AFFINITY PREDICTED BY RF-SCORE:    0.00 PKD
ROOT
HETATM    1  N   UNL     1     -13.180  13.845  65.543  1.00  0.00    -0.635 NA 
HETATM    2  H1  UNL     1     -13.178  13.790  66.562  1.00  0.00     0.000 HD 
HETATM    3  CA  UNL     1     -12.517  12.654  64.937  1.00  0.00    -0.494 C  
HETATM    4  H2  UNL     1     -14.123  13.976  65.176  1.00  0.00     0.000 HD 
ENDROOT
BRANCH   3   5
HETATM    5  C   UNL     1     -12.519  12.736  63.405  1.00  0.00    -0.339 C  
HETATM    6  H   UNL     1     -12.457  11.469  61.901  1.00  0.00     0.000 HD 
HETATM    7  O   UNL     1     -12.456  11.419  62.850  1.00  0.00    -0.001 OA 
ENDBRANCH   3   5
BRANCH   3   8
HETATM    8  C   UNL     1     -11.090  12.503  65.472  1.00  0.00    -0.301 C  
HETATM    9  O   UNL     1     -10.622  11.446  65.891  1.00  0.00    -0.255 OA 
HETATM   10  H   UNL     1     -10.817  14.556  65.141  1.00  0.00     0.000 HD 
HETATM   11  N   UNL     1     -10.387  13.702  65.497  1.00  0.00    -0.299 N  
BRANCH  11  12
HETATM   12  N   UNL     1      -9.077  13.731  66.015  1.00  0.00    -0.469 NA 
HETATM   13  H   UNL     1      -8.382  13.772  65.271  1.00  0.00     0.000 HD 
BRANCH  12  14
HETATM   14  C   UNL     1      -8.905  14.834  66.978  1.00  0.00    -0.237 C  
BRANCH  14  15
HETATM   15  C   UNL     1     -10.035  14.892  67.984  1.00  0.00    -0.220 A  
HETATM   16  C   UNL     1     -10.424  13.803  68.777  1.00  0.00    -0.214 A  
HETATM   17  O   UNL     1      -9.804  12.577  68.729  1.00  0.00    -0.400 OA 
HETATM   18  C   UNL     1     -11.478  13.923  69.680  1.00  0.00    -0.248 A  
HETATM   19  H   UNL     1     -10.067  11.839  69.267  1.00  0.00     0.000 HD 
HETATM   20  C   UNL     1     -12.178  15.113  69.791  1.00  0.00    -0.289 A  
HETATM   21  O   UNL     1     -11.827  12.865  70.478  1.00  0.00    -0.521 OA 
HETATM   22  H   UNL     1     -12.546  12.947  71.094  1.00  0.00     0.000 HD 
HETATM   23  C   UNL     1     -11.842  16.198  68.999  1.00  0.00    -0.181 A  
HETATM   24  O   UNL     1     -13.208  15.220  70.682  1.00  0.00    -0.623 OA 
HETATM   25  H   UNL     1     -13.689  16.037  70.759  1.00  0.00     0.000 HD 
HETATM   26  C   UNL     1     -10.776  16.087  68.097  1.00  0.00    -0.311 A  
ENDBRANCH  14  15
ENDBRANCH  12  14
ENDBRANCH  11  12
ENDBRANCH   3   8
TORSDOF 5
ENDMDL
MODEL      101
REMARK 921   NORMALIZED FREE ENERGY PREDICTED BY IDOCK:   -4.93 KCAL/MOL
REMARK 922        TOTAL FREE ENERGY PREDICTED BY IDOCK:   -6.82 KCAL/MOL
REMARK 923 INTER-LIGAND FREE ENERGY PREDICTED BY IDOCK:   -6.47 KCAL/MOL
REMARK 924 INTRA-LIGAND FREE ENERGY PREDICTED BY IDOCK:   -0.35 KCAL/MOL
REMARK 927      BINDING AFFINITY PREDICTED BY RF-SCORE:    0.00 PKD
ROOT
HETATM    1  N   UNL     1     -11.352  11.502  63.553  1.00  0.00    -0.700 NA 
HETATM    2  H1  UNL     1     -11.849  12.015  62.824  1.00  0.00     0.000 HD 
HETATM    3  CA  UNL     1     -11.901  11.814  64.903  1.00  0.00    -0.064 C  
HETATM    4  H2  UNL     1     -11.353  10.498  63.371  1.00  0.00     0.000 HD 
ENDROOT
BRANCH   3   5
HETATM    5  C   UNL     1     -11.154  11.043  65.999  1.00  0.00     0.017 C  
HETATM    6  H   UNL     1     -11.409  10.661  67.912  1.00  0.00     0.000 HD 
HETATM    7  O   UNL     1     -11.872  11.138  67.234  1.00  0.00    -0.525 OA 
ENDBRANCH   3   5
BRANCH   3   8
HETATM    8  C   UNL     1     -11.851  13.321  65.169  1.00  0.00    -0.348 C  
HETATM    9  O   UNL     1     -12.830  13.997  65.484  1.00  0.00    -0.615 OA 
HETATM   10  H   UNL     1      -9.810  13.272  64.691  1.00  0.00     0.000 HD 
HETATM   11  N   UNL     1     -10.592  13.871  64.956  1.00  0.00    -0.379 N  
BRANCH  11  12
HETATM   12  N   UNL     1     -10.404  15.259  65.107  1.00  0.00    -0.390 NA 
HETATM   13  H   UNL     1     -11.275  15.772  64.973  1.00  0.00     0.000 HD 
BRANCH  12  14
HETATM   14  C   UNL     1      -9.784  15.578  66.406  1.00  0.00    -0.283 C  
BRANCH  14  15
HETATM   15  C   UNL     1      -9.685  17.071  66.638  1.00  0.00    -0.287 A  
HETATM   16  C   UNL     1      -8.993  17.644  67.715  1.00  0.00    -0.247 A  
HETATM   17  O   UNL     1      -8.325  16.903  68.661  1.00  0.00    -0.243 OA 
HETATM   18  C   UNL     1      -8.946  19.027  67.874  1.00  0.00    -0.300 A  
HETATM   19  H   UNL     1      -7.857  17.291  69.391  1.00  0.00     0.000 HD 
HETATM   20  C   UNL     1      -9.603  19.861  66.983  1.00  0.00    -0.388 A  
HETATM   21  O   UNL     1      -8.238  19.580  68.908  1.00  0.00    -0.359 OA 
HETATM   22  H   UNL     1      -8.205  20.523  69.016  1.00  0.00     0.000 HD 
HETATM   23  C   UNL     1     -10.322  19.327  65.927  1.00  0.00    -0.499 A  
HETATM   24  O   UNL     1      -9.547  21.216  67.146  1.00  0.00    -0.680 OA 
HETATM   25  H   UNL     1      -9.998  21.788  66.535  1.00  0.00     0.000 HD 
HETATM   26  C   UNL     1     -10.365  17.936  65.756  1.00  0.00    -0.182 A  
ENDBRANCH  14  15
ENDBRANCH  12  14
ENDBRANCH  11  12
ENDBRANCH   3   8
TORSDOF 5
ENDMDL
MODEL      102
REMARK 921   NORMALIZED FREE ENERGY PREDICTED BY IDOCK:   -4.93 KCAL/MOL
REMARK 922        TOTAL FREE ENERGY PREDICTED BY IDOCK:   -6.82 KCAL/MOL
REMARK 923 INTER-LIGAND FREE ENERGY PREDICTED BY IDOCK:   -6.51 KCAL/MOL
REMARK 924 INTRA-LIGAND FREE ENERGY PREDICTED BY IDOCK:   -0.31 KCAL/MOL
REMARK 927      BINDING AFFINITY PREDICTED BY RF-SCORE:    0.00 PKD
ROOT
HETATM    1  N   UNL     1     -12.307  16.192  71.930  1.00  0.00    -0.573 NA 
HETATM    2  H1  UNL     1     -12.920  16.051  72.733  1.00  0.00     0.000 HD 
HETATM    3  CA  UNL     1     -12.764  15.397  70.755  1.00  0.00    -0.459 C  
HETATM    4  H2  UNL     1     -12.213  17.182  71.699  1.00  0.00     0.000 HD 
ENDROOT
BRANCH   3   5
HETATM    5  C   UNL     1     -11.843  15.609  69.547  1.00  0.00    -0.372 C  
HETATM    6  H   UNL     1     -10.250  16.685  69.129  1.00  0.00     0.000 HD 
HETATM    7  O   UNL     1     -10.820  16.554  69.877  1.00  0.00    -0.344 OA 
ENDBRANCH   3   5
BRANCH   3   8
HETATM    8  C   UNL     1     -12.857  13.911  71.114  1.00  0.00    -0.351 C  
HETATM    9  O   UNL     1     -13.602  13.459  71.981  1.00  0.00    -0.441 OA 
HETATM   10  H   UNL     1     -11.359  13.541  69.693  1.00  0.00     0.000 HD 
HETATM   11  N   UNL     1     -11.962  13.121  70.402  1.00  0.00    -0.311 N  
BRANCH  11  12
HETATM   12  N   UNL     1     -11.892  11.739  70.664  1.00  0.00    -0.469 NA 
HETATM   13  H   UNL     1     -12.670  11.428  71.245  1.00  0.00     0.000 HD 
BRANCH  12  14
HETATM   14  C   UNL     1     -11.806  10.959  69.415  1.00  0.00    -0.328 C  
BRANCH  14  15
HETATM   15  C   UNL     1     -11.254  11.781  68.270  1.00  0.00    -0.313 A  
HETATM   16  C   UNL     1      -9.900  12.125  68.145  1.00  0.00    -0.207 A  
HETATM   17  O   UNL     1      -8.938  11.738  69.047  1.00  0.00    -0.380 OA 
HETATM   18  C   UNL     1      -9.458  12.890  67.068  1.00  0.00    -0.235 A  
HETATM   19  H   UNL     1      -8.021  11.971  68.963  1.00  0.00     0.000 HD 
HETATM   20  C   UNL     1     -10.354  13.345  66.113  1.00  0.00    -0.295 A  
HETATM   21  O   UNL     1      -8.129  13.191  66.934  1.00  0.00    -0.387 OA 
HETATM   22  H   UNL     1      -7.827  13.713  66.199  1.00  0.00     0.000 HD 
HETATM   23  C   UNL     1     -11.702  13.050  66.223  1.00  0.00    -0.440 A  
HETATM   24  O   UNL     1      -9.909  14.091  65.059  1.00  0.00    -0.588 OA 
HETATM   25  H   UNL     1     -10.523  14.404  64.403  1.00  0.00     0.000 HD 
HETATM   26  C   UNL     1     -12.151  12.273  67.299  1.00  0.00    -0.017 A  
ENDBRANCH  14  15
ENDBRANCH  12  14
ENDBRANCH  11  12
ENDBRANCH   3   8
TORSDOF 5
ENDMDL
MODEL      103
REMARK 921   NORMALIZED FREE ENERGY PREDICTED BY IDOCK:   -4.93 KCAL/MOL
REMARK 922        TOTAL FREE ENERGY PREDICTED BY IDOCK:   -6.81 KCAL/MOL
REMARK 923 INTER-LIGAND FREE ENERGY PREDICTED BY IDOCK:   -6.28 KCAL/MOL
REMARK 924 INTRA-LIGAND FREE ENERGY PREDICTED BY IDOCK:   -0.54 KCAL/MOL
REMARK 927      BINDING AFFINITY PREDICTED BY RF-SCORE:    0.00 PKD
ROOT
HETATM    1  N   UNL     1     -11.112   6.865  68.342  1.00  0.00    -0.496 NA 
HETATM    2  H1  UNL     1     -11.891   7.520  68.265  1.00  0.00     0.000 HD 
HETATM    3  CA  UNL     1     -10.975   6.350  69.734  1.00  0.00    -0.356 C  
HETATM    4  H2  UNL     1     -11.194   6.104  67.667  1.00  0.00     0.000 HD 
ENDROOT
BRANCH   3   5
HETATM    5  C   UNL     1      -9.804   5.365  69.850  1.00  0.00    -0.201 C  
HETATM    6  H   UNL     1      -9.429   3.689  70.808  1.00  0.00     0.000 HD 
HETATM    7  O   UNL     1     -10.154   4.298  70.736  1.00  0.00    -0.190 OA 
ENDBRANCH   3   5
BRANCH   3   8
HETATM    8  C   UNL     1     -10.811   7.508  70.722  1.00  0.00    -0.242 C  
HETATM    9  O   UNL     1     -10.346   7.385  71.854  1.00  0.00    -0.191 OA 
HETATM   10  H   UNL     1     -11.679   8.769  69.289  1.00  0.00     0.000 HD 
HETATM   11  N   UNL     1     -11.299   8.714  70.234  1.00  0.00    -0.194 N  
BRANCH  11  12
HETATM   12  N   UNL     1     -11.268   9.861  71.053  1.00  0.00    -0.363 NA 
HETATM   13  H   UNL     1     -10.710  10.604  70.634  1.00  0.00     0.000 HD 
BRANCH  12  14
HETATM   14  C   UNL     1     -12.628  10.324  71.381  1.00  0.00    -0.434 C  
BRANCH  14  15
HETATM   15  C   UNL     1     -12.753  11.831  71.291  1.00  0.00    -0.420 A  
HETATM   16  C   UNL     1     -12.169  12.597  70.271  1.00  0.00    -0.271 A  
HETATM   17  O   UNL     1     -11.436  12.050  69.244  1.00  0.00    -0.262 OA 
HETATM   18  C   UNL     1     -12.317  13.981  70.250  1.00  0.00    -0.358 A  
HETATM   19  H   UNL     1     -11.041  12.569  68.553  1.00  0.00     0.000 HD 
HETATM   20  C   UNL     1     -13.023  14.630  71.251  1.00  0.00    -0.339 A  
HETATM   21  O   UNL     1     -11.775  14.719  69.231  1.00  0.00    -0.284 OA 
HETATM   22  H   UNL     1     -11.876  15.663  69.216  1.00  0.00     0.000 HD 
HETATM   23  C   UNL     1     -13.584  13.907  72.290  1.00  0.00    -0.642 A  
HETATM   24  O   UNL     1     -13.165  15.988  71.219  1.00  0.00    -0.546 OA 
HETATM   25  H   UNL     1     -13.649  16.433  71.905  1.00  0.00     0.000 HD 
HETATM   26  C   UNL     1     -13.447  12.512  72.311  1.00  0.00    -0.490 A  
ENDBRANCH  14  15
ENDBRANCH  12  14
ENDBRANCH  11  12
ENDBRANCH   3   8
TORSDOF 5
ENDMDL
MODEL      104
REMARK 921   NORMALIZED FREE ENERGY PREDICTED BY IDOCK:   -4.92 KCAL/MOL
REMARK 922        TOTAL FREE ENERGY PREDICTED BY IDOCK:   -6.80 KCAL/MOL
REMARK 923 INTER-LIGAND FREE ENERGY PREDICTED BY IDOCK:   -6.43 KCAL/MOL
REMARK 924 INTRA-LIGAND FREE ENERGY PREDICTED BY IDOCK:   -0.37 KCAL/MOL
REMARK 927      BINDING AFFINITY PREDICTED BY RF-SCORE:    0.00 PKD
ROOT
HETATM    1  N   UNL     1     -11.917   6.497  72.342  1.00  0.00    -0.502 NA 
HETATM    2  H1  UNL     1     -10.940   6.317  72.107  1.00  0.00     0.000 HD 
HETATM    3  CA  UNL     1     -12.521   7.493  71.411  1.00  0.00    -0.352 C  
HETATM    4  H2  UNL     1     -12.460   5.634  72.371  1.00  0.00     0.000 HD 
ENDROOT
BRANCH   3   5
HETATM    5  C   UNL     1     -13.989   7.764  71.763  1.00  0.00    -0.385 C  
HETATM    6  H   UNL     1     -14.975   8.911  73.021  1.00  0.00     0.000 HD 
HETATM    7  O   UNL     1     -14.066   8.744  72.803  1.00  0.00    -0.451 OA 
ENDBRANCH   3   5
BRANCH   3   8
HETATM    8  C   UNL     1     -11.712   8.793  71.416  1.00  0.00    -0.305 C  
HETATM    9  O   UNL     1     -10.703   8.973  72.097  1.00  0.00    -0.332 OA 
HETATM   10  H   UNL     1     -13.107   9.592  70.070  1.00  0.00     0.000 HD 
HETATM   11  N   UNL     1     -12.267   9.784  70.616  1.00  0.00    -0.242 N  
BRANCH  11  12
HETATM   12  N   UNL     1     -11.664  11.056  70.562  1.00  0.00    -0.373 NA 
HETATM   13  H   UNL     1     -11.240  11.231  69.652  1.00  0.00     0.000 HD 
BRANCH  12  14
HETATM   14  C   UNL     1     -12.618  12.119  70.927  1.00  0.00    -0.247 C  
BRANCH  14  15
HETATM   15  C   UNL     1     -12.155  13.483  70.461  1.00  0.00    -0.409 A  
HETATM   16  C   UNL     1     -11.809  13.772  69.134  1.00  0.00    -0.354 A  
HETATM   17  O   UNL     1     -11.869  12.845  68.120  1.00  0.00    -0.336 OA 
HETATM   18  C   UNL     1     -11.383  15.049  68.772  1.00  0.00    -0.291 A  
HETATM   19  H   UNL     1     -11.635  13.041  67.221  1.00  0.00     0.000 HD 
HETATM   20  C   UNL     1     -11.271  16.050  69.724  1.00  0.00    -0.344 A  
HETATM   21  O   UNL     1     -11.082  15.333  67.466  1.00  0.00    -0.312 OA 
HETATM   22  H   UNL     1     -10.793  16.204  67.220  1.00  0.00     0.000 HD 
HETATM   23  C   UNL     1     -11.574  15.789  71.050  1.00  0.00    -0.453 A  
HETATM   24  O   UNL     1     -10.857  17.299  69.358  1.00  0.00    -0.358 OA 
HETATM   25  H   UNL     1     -10.780  17.985  70.011  1.00  0.00     0.000 HD 
HETATM   26  C   UNL     1     -12.012  14.510  71.418  1.00  0.00    -0.382 A  
ENDBRANCH  14  15
ENDBRANCH  12  14
ENDBRANCH  11  12
ENDBRANCH   3   8
TORSDOF 5
ENDMDL
MODEL      105
REMARK 921   NORMALIZED FREE ENERGY PREDICTED BY IDOCK:   -4.89 KCAL/MOL
REMARK 922        TOTAL FREE ENERGY PREDICTED BY IDOCK:   -6.77 KCAL/MOL
REMARK 923 INTER-LIGAND FREE ENERGY PREDICTED BY IDOCK:   -6.26 KCAL/MOL
REMARK 924 INTRA-LIGAND FREE ENERGY PREDICTED BY IDOCK:   -0.52 KCAL/MOL
REMARK 927      BINDING AFFINITY PREDICTED BY RF-SCORE:    0.00 PKD
ROOT
HETATM    1  N   UNL     1      -8.360   9.917  65.774  1.00  0.00    -0.124 NA 
HETATM    2  H1  UNL     1      -8.008  10.061  64.827  1.00  0.00     0.000 HD 
HETATM    3  CA  UNL     1      -9.795  10.308  65.882  1.00  0.00    -0.237 C  
HETATM    4  H2  UNL     1      -8.208   8.959  66.090  1.00  0.00     0.000 HD 
ENDROOT
BRANCH   3   5
HETATM    5  C   UNL     1     -10.324  10.093  67.306  1.00  0.00    -0.237 C  
HETATM    6  H   UNL     1     -11.913  10.618  68.340  1.00  0.00     0.000 HD 
HETATM    7  O   UNL     1     -11.586  10.751  67.459  1.00  0.00    -0.510 OA 
ENDBRANCH   3   5
BRANCH   3   8
HETATM    8  C   UNL     1      -9.991  11.762  65.444  1.00  0.00    -0.253 C  
HETATM    9  O   UNL     1      -9.341  12.708  65.888  1.00  0.00    -0.147 OA 
HETATM   10  H   UNL     1     -11.542  11.109  64.193  1.00  0.00     0.000 HD 
HETATM   11  N   UNL     1     -11.027  11.922  64.532  1.00  0.00    -0.307 N  
BRANCH  11  12
HETATM   12  N   UNL     1     -11.363  13.213  64.078  1.00  0.00    -0.445 NA 
HETATM   13  H   UNL     1     -11.666  13.200  63.105  1.00  0.00     0.000 HD 
BRANCH  12  14
HETATM   14  C   UNL     1     -12.371  13.844  64.950  1.00  0.00    -0.420 C  
BRANCH  14  15
HETATM   15  C   UNL     1     -11.782  14.962  65.784  1.00  0.00    -0.179 A  
HETATM   16  C   UNL     1     -11.287  16.156  65.241  1.00  0.00     0.060 A  
HETATM   17  O   UNL     1     -11.301  16.434  63.894  1.00  0.00    -1.510 OA 
HETATM   18  C   UNL     1     -10.751  17.142  66.065  1.00  0.00    -0.113 A  
HETATM   19  H   UNL     1     -10.966  17.243  63.526  1.00  0.00     0.000 HD 
HETATM   20  C   UNL     1     -10.674  16.951  67.435  1.00  0.00    -0.241 A  
HETATM   21  O   UNL     1     -10.303  18.322  65.529  1.00  0.00    -0.575 OA 
HETATM   22  H   UNL     1      -9.938  18.995  66.092  1.00  0.00     0.000 HD 
HETATM   23  C   UNL     1     -11.124  15.770  68.001  1.00  0.00    -0.337 A  
HETATM   24  O   UNL     1     -10.150  17.927  68.234  1.00  0.00    -0.332 OA 
HETATM   25  H   UNL     1     -10.097  17.796  69.174  1.00  0.00     0.000 HD 
HETATM   26  C   UNL     1     -11.673  14.778  67.178  1.00  0.00    -0.351 A  
ENDBRANCH  14  15
ENDBRANCH  12  14
ENDBRANCH  11  12
ENDBRANCH   3   8
TORSDOF 5
ENDMDL
MODEL      106
REMARK 921   NORMALIZED FREE ENERGY PREDICTED BY IDOCK:   -4.89 KCAL/MOL
REMARK 922        TOTAL FREE ENERGY PREDICTED BY IDOCK:   -6.77 KCAL/MOL
REMARK 923 INTER-LIGAND FREE ENERGY PREDICTED BY IDOCK:   -6.40 KCAL/MOL
REMARK 924 INTRA-LIGAND FREE ENERGY PREDICTED BY IDOCK:   -0.37 KCAL/MOL
REMARK 927      BINDING AFFINITY PREDICTED BY RF-SCORE:    0.00 PKD
ROOT
HETATM    1  N   UNL     1     -11.617   8.099  69.904  1.00  0.00    -0.422 NA 
HETATM    2  H1  UNL     1     -12.198   8.688  70.502  1.00  0.00     0.000 HD 
HETATM    3  CA  UNL     1     -10.354   8.793  69.525  1.00  0.00    -0.213 C  
HETATM    4  H2  UNL     1     -11.431   7.194  70.338  1.00  0.00     0.000 HD 
ENDROOT
BRANCH   3   5
HETATM    5  C   UNL     1      -9.480   7.908  68.627  1.00  0.00    -0.149 C  
HETATM    6  H   UNL     1      -7.601   7.330  68.575  1.00  0.00     0.000 HD 
HETATM    7  O   UNL     1      -8.141   7.878  69.131  1.00  0.00    -0.119 OA 
ENDBRANCH   3   5
BRANCH   3   8
HETATM    8  C   UNL     1     -10.660  10.128  68.839  1.00  0.00    -0.215 C  
HETATM    9  O   UNL     1     -11.675  10.346  68.179  1.00  0.00    -0.363 OA 
HETATM   10  H   UNL     1      -8.813  10.836  69.537  1.00  0.00     0.000 HD 
HETATM   11  N   UNL     1      -9.640  11.061  68.983  1.00  0.00    -0.165 N  
BRANCH  11  12
HETATM   12  N   UNL     1      -9.754  12.320  68.359  1.00  0.00    -0.270 NA 
HETATM   13  H   UNL     1      -9.211  13.030  68.849  1.00  0.00     0.000 HD 
BRANCH  12  14
HETATM   14  C   UNL     1      -9.388  12.247  66.933  1.00  0.00    -0.210 C  
BRANCH  14  15
HETATM   15  C   UNL     1     -10.085  13.311  66.112  1.00  0.00    -0.293 A  
HETATM   16  C   UNL     1      -9.729  14.667  66.138  1.00  0.00    -0.319 A  
HETATM   17  O   UNL     1      -8.699  15.161  66.903  1.00  0.00    -0.225 OA 
HETATM   18  C   UNL     1     -10.417  15.597  65.362  1.00  0.00    -0.411 A  
HETATM   19  H   UNL     1      -8.457  16.080  66.921  1.00  0.00     0.000 HD 
HETATM   20  C   UNL     1     -11.483  15.203  64.570  1.00  0.00    -0.316 A  
HETATM   21  O   UNL     1     -10.039  16.914  65.365  1.00  0.00    -0.586 OA 
HETATM   22  H   UNL     1     -10.508  17.549  64.835  1.00  0.00     0.000 HD 
HETATM   23  C   UNL     1     -11.882  13.877  64.546  1.00  0.00    -0.449 A  
HETATM   24  O   UNL     1     -12.149  16.123  63.810  1.00  0.00    -1.355 OA 
HETATM   25  H   UNL     1     -12.880  15.852  63.266  1.00  0.00     0.000 HD 
HETATM   26  C   UNL     1     -11.187  12.935  65.316  1.00  0.00    -0.319 A  
ENDBRANCH  14  15
ENDBRANCH  12  14
ENDBRANCH  11  12
ENDBRANCH   3   8
TORSDOF 5
ENDMDL
MODEL      107
REMARK 921   NORMALIZED FREE ENERGY PREDICTED BY IDOCK:   -4.89 KCAL/MOL
REMARK 922        TOTAL FREE ENERGY PREDICTED BY IDOCK:   -6.76 KCAL/MOL
REMARK 923 INTER-LIGAND FREE ENERGY PREDICTED BY IDOCK:   -6.36 KCAL/MOL
REMARK 924 INTRA-LIGAND FREE ENERGY PREDICTED BY IDOCK:   -0.40 KCAL/MOL
REMARK 927      BINDING AFFINITY PREDICTED BY RF-SCORE:    0.00 PKD
ROOT
HETATM    1  N   UNL     1     -10.047  17.136  65.984  1.00  0.00    -0.472 NA 
HETATM    2  H1  UNL     1      -9.790  16.281  65.490  1.00  0.00     0.000 HD 
HETATM    3  CA  UNL     1      -8.970  17.562  66.923  1.00  0.00    -0.251 C  
HETATM    4  H2  UNL     1     -10.297  17.883  65.336  1.00  0.00     0.000 HD 
ENDROOT
BRANCH   3   5
HETATM    5  C   UNL     1      -9.357  18.848  67.666  1.00  0.00    -0.296 C  
HETATM    6  H   UNL     1     -10.953  19.987  67.827  1.00  0.00     0.000 HD 
HETATM    7  O   UNL     1     -10.714  19.191  67.367  1.00  0.00    -0.462 OA 
ENDBRANCH   3   5
BRANCH   3   8
HETATM    8  C   UNL     1      -8.643  16.440  67.912  1.00  0.00    -0.175 C  
HETATM    9  O   UNL     1      -8.302  16.630  69.079  1.00  0.00    -0.235 OA 
HETATM   10  H   UNL     1      -8.994  15.065  66.368  1.00  0.00     0.000 HD 
HETATM   11  N   UNL     1      -8.709  15.174  67.342  1.00  0.00    -0.180 N  
BRANCH  11  12
HETATM   12  N   UNL     1      -8.380  14.044  68.116  1.00  0.00    -0.154 NA 
HETATM   13  H   UNL     1      -8.001  14.310  69.024  1.00  0.00     0.000 HD 
BRANCH  12  14
HETATM   14  C   UNL     1      -9.532  13.135  68.255  1.00  0.00    -0.210 C  
BRANCH  14  15
HETATM   15  C   UNL     1     -10.222  12.884  66.932  1.00  0.00    -0.243 A  
HETATM   16  C   UNL     1     -11.472  13.423  66.594  1.00  0.00    -0.344 A  
HETATM   17  O   UNL     1     -12.187  14.247  67.431  1.00  0.00    -0.572 OA 
HETATM   18  C   UNL     1     -12.055  13.147  65.360  1.00  0.00    -0.433 A  
HETATM   19  H   UNL     1     -13.034  14.612  67.203  1.00  0.00     0.000 HD 
HETATM   20  C   UNL     1     -11.422  12.313  64.452  1.00  0.00    -0.354 A  
HETATM   21  O   UNL     1     -13.259  13.708  65.024  1.00  0.00    -0.729 OA 
HETATM   22  H   UNL     1     -13.656  13.520  64.182  1.00  0.00     0.000 HD 
HETATM   23  C   UNL     1     -10.202  11.737  64.767  1.00  0.00    -0.324 A  
HETATM   24  O   UNL     1     -12.000  12.052  63.243  1.00  0.00    -0.681 OA 
HETATM   25  H   UNL     1     -11.566  11.480  62.621  1.00  0.00     0.000 HD 
HETATM   26  C   UNL     1      -9.605  12.020  66.003  1.00  0.00    -0.247 A  
ENDBRANCH  14  15
ENDBRANCH  12  14
ENDBRANCH  11  12
ENDBRANCH   3   8
TORSDOF 5
ENDMDL
MODEL      108
REMARK 921   NORMALIZED FREE ENERGY PREDICTED BY IDOCK:   -4.89 KCAL/MOL
REMARK 922        TOTAL FREE ENERGY PREDICTED BY IDOCK:   -6.76 KCAL/MOL
REMARK 923 INTER-LIGAND FREE ENERGY PREDICTED BY IDOCK:   -5.96 KCAL/MOL
REMARK 924 INTRA-LIGAND FREE ENERGY PREDICTED BY IDOCK:   -0.81 KCAL/MOL
REMARK 927      BINDING AFFINITY PREDICTED BY RF-SCORE:    0.00 PKD
ROOT
HETATM    1  N   UNL     1      -8.567  11.418  65.864  1.00  0.00    -0.343 NA 
HETATM    2  H1  UNL     1      -8.911  11.649  64.932  1.00  0.00     0.000 HD 
HETATM    3  CA  UNL     1      -9.514  10.517  66.581  1.00  0.00    -0.168 C  
HETATM    4  H2  UNL     1      -7.627  11.023  65.830  1.00  0.00     0.000 HD 
ENDROOT
BRANCH   3   5
HETATM    5  C   UNL     1      -8.997  10.169  67.983  1.00  0.00    -0.125 C  
HETATM    6  H   UNL     1      -8.281  11.149  69.532  1.00  0.00     0.000 HD 
HETATM    7  O   UNL     1      -8.601  11.364  68.664  1.00  0.00    -0.157 OA 
ENDBRANCH   3   5
BRANCH   3   8
HETATM    8  C   UNL     1     -10.906  11.150  66.657  1.00  0.00    -0.253 C  
HETATM    9  O   UNL     1     -11.691  10.975  67.587  1.00  0.00    -0.576 OA 
HETATM   10  H   UNL     1     -10.543  12.017  64.782  1.00  0.00     0.000 HD 
HETATM   11  N   UNL     1     -11.225  11.901  65.531  1.00  0.00    -0.317 N  
BRANCH  11  12
HETATM   12  N   UNL     1     -12.497  12.501  65.432  1.00  0.00    -0.647 NA 
HETATM   13  H   UNL     1     -13.013  12.429  66.308  1.00  0.00     0.000 HD 
BRANCH  12  14
HETATM   14  C   UNL     1     -12.396  13.899  64.977  1.00  0.00    -0.430 C  
BRANCH  14  15
HETATM   15  C   UNL     1     -11.453  14.712  65.838  1.00  0.00    -0.338 A  
HETATM   16  C   UNL     1     -11.541  14.775  67.236  1.00  0.00    -0.369 A  
HETATM   17  O   UNL     1     -12.488  14.092  67.963  1.00  0.00    -0.528 OA 
HETATM   18  C   UNL     1     -10.645  15.548  67.970  1.00  0.00    -0.270 A  
HETATM   19  H   UNL     1     -12.547  14.135  68.911  1.00  0.00     0.000 HD 
HETATM   20  C   UNL     1      -9.664  16.289  67.329  1.00  0.00    -0.237 A  
HETATM   21  O   UNL     1     -10.714  15.576  69.338  1.00  0.00    -0.219 OA 
HETATM   22  H   UNL     1     -10.102  16.103  69.838  1.00  0.00     0.000 HD 
HETATM   23  C   UNL     1      -9.570  16.274  65.947  1.00  0.00    -0.336 A  
HETATM   24  O   UNL     1      -8.788  17.041  68.058  1.00  0.00    -0.213 OA 
HETATM   25  H   UNL     1      -8.115  17.549  67.618  1.00  0.00     0.000 HD 
HETATM   26  C   UNL     1     -10.463  15.490  65.204  1.00  0.00    -0.431 A  
ENDBRANCH  14  15
ENDBRANCH  12  14
ENDBRANCH  11  12
ENDBRANCH   3   8
TORSDOF 5
ENDMDL
MODEL      109
REMARK 921   NORMALIZED FREE ENERGY PREDICTED BY IDOCK:   -4.86 KCAL/MOL
REMARK 922        TOTAL FREE ENERGY PREDICTED BY IDOCK:   -6.73 KCAL/MOL
REMARK 923 INTER-LIGAND FREE ENERGY PREDICTED BY IDOCK:   -5.95 KCAL/MOL
REMARK 924 INTRA-LIGAND FREE ENERGY PREDICTED BY IDOCK:   -0.78 KCAL/MOL
REMARK 927      BINDING AFFINITY PREDICTED BY RF-SCORE:    0.00 PKD
ROOT
HETATM    1  N   UNL     1      -8.394   7.445  69.964  1.00  0.00    -0.135 NA 
HETATM    2  H1  UNL     1      -8.085   8.415  69.888  1.00  0.00     0.000 HD 
HETATM    3  CA  UNL     1      -8.583   6.831  68.619  1.00  0.00    -0.122 C  
HETATM    4  H2  UNL     1      -7.758   6.894  70.542  1.00  0.00     0.000 HD 
ENDROOT
BRANCH   3   5
HETATM    5  C   UNL     1      -9.047   5.373  68.734  1.00  0.00    -0.118 C  
HETATM    6  H   UNL     1      -8.635   3.823  69.873  1.00  0.00     0.000 HD 
HETATM    7  O   UNL     1      -8.349   4.725  69.802  1.00  0.00    -0.074 OA 
ENDBRANCH   3   5
BRANCH   3   8
HETATM    8  C   UNL     1      -9.573   7.652  67.788  1.00  0.00    -0.144 C  
HETATM    9  O   UNL     1      -9.701   7.545  66.569  1.00  0.00    -0.203 OA 
HETATM   10  H   UNL     1     -10.135   8.640  69.550  1.00  0.00     0.000 HD 
HETATM   11  N   UNL     1     -10.276   8.584  68.541  1.00  0.00    -0.195 N  
BRANCH  11  12
HETATM   12  N   UNL     1     -11.185   9.452  67.903  1.00  0.00    -0.467 NA 
HETATM   13  H   UNL     1     -12.073   9.497  68.403  1.00  0.00     0.000 HD 
BRANCH  12  14
HETATM   14  C   UNL     1     -10.604  10.793  67.713  1.00  0.00    -0.228 C  
BRANCH  14  15
HETATM   15  C   UNL     1     -11.097  11.451  66.442  1.00  0.00    -0.301 A  
HETATM   16  C   UNL     1     -10.755  11.008  65.156  1.00  0.00    -0.183 A  
HETATM   17  O   UNL     1      -9.946   9.920  64.925  1.00  0.00    -0.380 OA 
HETATM   18  C   UNL     1     -11.238  11.664  64.027  1.00  0.00    -0.369 A  
HETATM   19  H   UNL     1      -9.714   9.619  64.054  1.00  0.00     0.000 HD 
HETATM   20  C   UNL     1     -12.046  12.782  64.153  1.00  0.00    -0.438 A  
HETATM   21  O   UNL     1     -10.929  11.202  62.774  1.00  0.00    -0.761 OA 
HETATM   22  H   UNL     1     -11.259  11.649  62.004  1.00  0.00     0.000 HD 
HETATM   23  C   UNL     1     -12.377  13.266  65.408  1.00  0.00    -0.528 A  
HETATM   24  O   UNL     1     -12.518  13.416  63.039  1.00  0.00    -0.846 OA 
HETATM   25  H   UNL     1     -13.073  14.182  63.125  1.00  0.00     0.000 HD 
HETATM   26  C   UNL     1     -11.902  12.604  66.548  1.00  0.00    -0.463 A  
ENDBRANCH  14  15
ENDBRANCH  12  14
ENDBRANCH  11  12
ENDBRANCH   3   8
TORSDOF 5
ENDMDL
MODEL      110
REMARK 921   NORMALIZED FREE ENERGY PREDICTED BY IDOCK:   -4.82 KCAL/MOL
REMARK 922        TOTAL FREE ENERGY PREDICTED BY IDOCK:   -6.67 KCAL/MOL
REMARK 923 INTER-LIGAND FREE ENERGY PREDICTED BY IDOCK:   -6.31 KCAL/MOL
REMARK 924 INTRA-LIGAND FREE ENERGY PREDICTED BY IDOCK:   -0.37 KCAL/MOL
REMARK 927      BINDING AFFINITY PREDICTED BY RF-SCORE:    0.00 PKD
ROOT
HETATM    1  N   UNL     1     -12.879  14.954  64.249  1.00  0.00    -0.518 NA 
HETATM    2  H1  UNL     1     -13.495  14.147  64.148  1.00  0.00     0.000 HD 
HETATM    3  CA  UNL     1     -11.606  14.580  64.929  1.00  0.00    -0.401 C  
HETATM    4  H2  UNL     1     -12.706  15.408  63.351  1.00  0.00     0.000 HD 
ENDROOT
BRANCH   3   5
HETATM    5  C   UNL     1     -10.679  15.794  65.081  1.00  0.00    -0.435 C  
HETATM    6  H   UNL     1     -10.475  17.557  64.234  1.00  0.00     0.000 HD 
HETATM    7  O   UNL     1     -11.048  16.807  64.140  1.00  0.00    -1.061 OA 
ENDBRANCH   3   5
BRANCH   3   8
HETATM    8  C   UNL     1     -11.891  13.940  66.290  1.00  0.00    -0.408 C  
HETATM    9  O   UNL     1     -12.018  14.576  67.336  1.00  0.00    -0.394 OA 
HETATM   10  H   UNL     1     -11.819  12.066  65.352  1.00  0.00     0.000 HD 
HETATM   11  N   UNL     1     -11.932  12.552  66.242  1.00  0.00    -0.394 N  
BRANCH  11  12
HETATM   12  N   UNL     1     -12.131  11.819  67.429  1.00  0.00    -0.530 NA 
HETATM   13  H   UNL     1     -13.111  11.568  67.554  1.00  0.00     0.000 HD 
BRANCH  12  14
HETATM   14  C   UNL     1     -11.258  10.632  67.481  1.00  0.00    -0.253 C  
BRANCH  14  15
HETATM   15  C   UNL     1      -9.839  10.952  67.063  1.00  0.00    -0.214 A  
HETATM   16  C   UNL     1      -9.251  10.472  65.884  1.00  0.00    -0.179 A  
HETATM   17  O   UNL     1      -9.914   9.673  64.983  1.00  0.00    -0.425 OA 
HETATM   18  C   UNL     1      -7.936  10.799  65.562  1.00  0.00    -0.064 A  
HETATM   19  H   UNL     1      -9.516   9.348  64.184  1.00  0.00     0.000 HD 
HETATM   20  C   UNL     1      -7.176  11.585  66.414  1.00  0.00     0.064 A  
HETATM   21  O   UNL     1      -7.381  10.357  64.390  1.00  0.00    -0.281 OA 
HETATM   22  H   UNL     1      -6.484  10.580  64.170  1.00  0.00     0.000 HD 
HETATM   23  C   UNL     1      -7.715  12.048  67.602  1.00  0.00    -0.144 A  
HETATM   24  O   UNL     1      -5.889  11.902  66.087  1.00  0.00    -0.488 OA 
HETATM   25  H   UNL     1      -5.367  12.441  66.671  1.00  0.00     0.000 HD 
HETATM   26  C   UNL     1      -9.041  11.731  67.927  1.00  0.00    -0.181 A  
ENDBRANCH  14  15
ENDBRANCH  12  14
ENDBRANCH  11  12
ENDBRANCH   3   8
TORSDOF 5
ENDMDL
MODEL      111
REMARK 921   NORMALIZED FREE ENERGY PREDICTED BY IDOCK:   -4.81 KCAL/MOL
REMARK 922        TOTAL FREE ENERGY PREDICTED BY IDOCK:   -6.66 KCAL/MOL
REMARK 923 INTER-LIGAND FREE ENERGY PREDICTED BY IDOCK:   -5.88 KCAL/MOL
REMARK 924 INTRA-LIGAND FREE ENERGY PREDICTED BY IDOCK:   -0.79 KCAL/MOL
REMARK 927      BINDING AFFINITY PREDICTED BY RF-SCORE:    0.00 PKD
ROOT
HETATM    1  N   UNL     1     -12.283  14.001  68.224  1.00  0.00    -0.540 NA 
HETATM    2  H1  UNL     1     -13.224  13.761  68.539  1.00  0.00     0.000 HD 
HETATM    3  CA  UNL     1     -11.756  12.980  67.274  1.00  0.00    -0.375 C  
HETATM    4  H2  UNL     1     -12.250  14.939  67.824  1.00  0.00     0.000 HD 
ENDROOT
BRANCH   3   5
HETATM    5  C   UNL     1     -10.342  13.340  66.800  1.00  0.00    -0.257 C  
HETATM    6  H   UNL     1      -9.337  14.985  66.405  1.00  0.00     0.000 HD 
HETATM    7  O   UNL     1     -10.212  14.762  66.698  1.00  0.00    -0.260 OA 
ENDBRANCH   3   5
BRANCH   3   8
HETATM    8  C   UNL     1     -11.777  11.589  67.913  1.00  0.00    -0.247 C  
HETATM    9  O   UNL     1     -11.419  10.562  67.337  1.00  0.00    -0.405 OA 
HETATM   10  H   UNL     1     -12.590  12.463  69.637  1.00  0.00     0.000 HD 
HETATM   11  N   UNL     1     -12.303  11.587  69.199  1.00  0.00    -0.141 N  
BRANCH  11  12
HETATM   12  N   UNL     1     -12.438  10.369  69.895  1.00  0.00    -0.543 NA 
HETATM   13  H   UNL     1     -12.558   9.584  69.255  1.00  0.00     0.000 HD 
BRANCH  12  14
HETATM   14  C   UNL     1     -11.308  10.149  70.816  1.00  0.00    -0.354 C  
BRANCH  14  15
HETATM   15  C   UNL     1     -11.113   8.683  71.136  1.00  0.00    -0.324 A  
HETATM   16  C   UNL     1     -11.007   7.683  70.157  1.00  0.00    -0.246 A  
HETATM   17  O   UNL     1     -11.056   7.942  68.808  1.00  0.00    -0.416 OA 
HETATM   18  C   UNL     1     -10.834   6.350  70.520  1.00  0.00    -0.279 A  
HETATM   19  H   UNL     1     -10.984   7.265  68.145  1.00  0.00     0.000 HD 
HETATM   20  C   UNL     1     -10.789   5.983  71.856  1.00  0.00    -0.254 A  
HETATM   21  O   UNL     1     -10.694   5.385  69.558  1.00  0.00    -0.295 OA 
HETATM   22  H   UNL     1     -10.577   4.475  69.806  1.00  0.00     0.000 HD 
HETATM   23  C   UNL     1     -10.924   6.940  72.848  1.00  0.00    -0.315 A  
HETATM   24  O   UNL     1     -10.616   4.673  72.201  1.00  0.00    -0.185 OA 
HETATM   25  H   UNL     1     -10.585   4.421  73.117  1.00  0.00     0.000 HD 
HETATM   26  C   UNL     1     -11.087   8.285  72.489  1.00  0.00    -0.439 A  
ENDBRANCH  14  15
ENDBRANCH  12  14
ENDBRANCH  11  12
ENDBRANCH   3   8
TORSDOF 5
ENDMDL
MODEL      112
REMARK 921   NORMALIZED FREE ENERGY PREDICTED BY IDOCK:   -4.81 KCAL/MOL
REMARK 922        TOTAL FREE ENERGY PREDICTED BY IDOCK:   -6.66 KCAL/MOL
REMARK 923 INTER-LIGAND FREE ENERGY PREDICTED BY IDOCK:   -6.43 KCAL/MOL
REMARK 924 INTRA-LIGAND FREE ENERGY PREDICTED BY IDOCK:   -0.23 KCAL/MOL
REMARK 927      BINDING AFFINITY PREDICTED BY RF-SCORE:    0.00 PKD
ROOT
HETATM    1  N   UNL     1     -12.207  11.005  68.418  1.00  0.00    -0.780 NA 
HETATM    2  H1  UNL     1     -13.137  11.279  68.738  1.00  0.00     0.000 HD 
HETATM    3  CA  UNL     1     -11.185  12.024  68.792  1.00  0.00    -0.263 C  
HETATM    4  H2  UNL     1     -11.953  10.077  68.757  1.00  0.00     0.000 HD 
ENDROOT
BRANCH   3   5
HETATM    5  C   UNL     1      -9.787  11.612  68.311  1.00  0.00    -0.199 C  
HETATM    6  H   UNL     1      -8.026  12.467  68.123  1.00  0.00     0.000 HD 
HETATM    7  O   UNL     1      -8.890  12.722  68.421  1.00  0.00    -0.179 OA 
ENDBRANCH   3   5
BRANCH   3   8
HETATM    8  C   UNL     1     -11.567  13.399  68.237  1.00  0.00    -0.344 C  
HETATM    9  O   UNL     1     -11.998  13.586  67.100  1.00  0.00    -0.380 OA 
HETATM   10  H   UNL     1     -10.960  14.234  70.062  1.00  0.00     0.000 HD 
HETATM   11  N   UNL     1     -11.320  14.435  69.129  1.00  0.00    -0.262 N  
BRANCH  11  12
HETATM   12  N   UNL     1     -11.571  15.766  68.739  1.00  0.00    -0.382 NA 
HETATM   13  H   UNL     1     -12.541  16.029  68.909  1.00  0.00     0.000 HD 
BRANCH  12  14
HETATM   14  C   UNL     1     -10.635  16.701  69.387  1.00  0.00    -0.333 C  
BRANCH  14  15
HETATM   15  C   UNL     1      -9.770  17.430  68.381  1.00  0.00    -0.304 A  
HETATM   16  C   UNL     1      -9.702  18.827  68.285  1.00  0.00    -0.362 A  
HETATM   17  O   UNL     1     -10.407  19.674  69.108  1.00  0.00    -0.617 OA 
HETATM   18  C   UNL     1      -8.890  19.435  67.330  1.00  0.00    -0.296 A  
HETATM   19  H   UNL     1     -10.361  20.621  69.043  1.00  0.00     0.000 HD 
HETATM   20  C   UNL     1      -8.154  18.669  66.441  1.00  0.00    -0.281 A  
HETATM   21  O   UNL     1      -8.801  20.801  67.267  1.00  0.00    -0.500 OA 
HETATM   22  H   UNL     1      -8.247  21.215  66.616  1.00  0.00     0.000 HD 
HETATM   23  C   UNL     1      -8.223  17.286  66.487  1.00  0.00    -0.311 A  
HETATM   24  O   UNL     1      -7.358  19.275  65.511  1.00  0.00    -0.438 OA 
HETATM   25  H   UNL     1      -6.852  18.750  64.901  1.00  0.00     0.000 HD 
HETATM   26  C   UNL     1      -9.030  16.669  67.452  1.00  0.00    -0.204 A  
ENDBRANCH  14  15
ENDBRANCH  12  14
ENDBRANCH  11  12
ENDBRANCH   3   8
TORSDOF 5
ENDMDL
MODEL      113
REMARK 921   NORMALIZED FREE ENERGY PREDICTED BY IDOCK:   -4.80 KCAL/MOL
REMARK 922        TOTAL FREE ENERGY PREDICTED BY IDOCK:   -6.65 KCAL/MOL
REMARK 923 INTER-LIGAND FREE ENERGY PREDICTED BY IDOCK:   -6.33 KCAL/MOL
REMARK 924 INTRA-LIGAND FREE ENERGY PREDICTED BY IDOCK:   -0.32 KCAL/MOL
REMARK 927      BINDING AFFINITY PREDICTED BY RF-SCORE:    0.00 PKD
ROOT
HETATM    1  N   UNL     1     -12.315  16.095  71.906  1.00  0.00    -0.573 NA 
HETATM    2  H1  UNL     1     -12.969  16.316  72.658  1.00  0.00     0.000 HD 
HETATM    3  CA  UNL     1     -12.902  15.112  70.952  1.00  0.00    -0.419 C  
HETATM    4  H2  UNL     1     -11.996  16.938  71.428  1.00  0.00     0.000 HD 
ENDROOT
BRANCH   3   5
HETATM    5  C   UNL     1     -11.919  14.780  69.821  1.00  0.00    -0.321 C  
HETATM    6  H   UNL     1     -10.132  15.374  69.254  1.00  0.00     0.000 HD 
HETATM    7  O   UNL     1     -10.740  15.580  69.953  1.00  0.00    -0.266 OA 
ENDBRANCH   3   5
BRANCH   3   8
HETATM    8  C   UNL     1     -13.334  13.840  71.687  1.00  0.00    -0.354 C  
HETATM    9  O   UNL     1     -14.098  13.830  72.651  1.00  0.00    -0.715 OA 
HETATM   10  H   UNL     1     -12.097  12.748  70.393  1.00  0.00     0.000 HD 
HETATM   11  N   UNL     1     -12.726  12.692  71.194  1.00  0.00    -0.323 N  
BRANCH  11  12
HETATM   12  N   UNL     1     -12.985  11.449  71.806  1.00  0.00    -0.456 NA 
HETATM   13  H   UNL     1     -13.836  11.478  72.367  1.00  0.00     0.000 HD 
BRANCH  12  14
HETATM   14  C   UNL     1     -13.028  10.360  70.814  1.00  0.00    -0.341 C  
BRANCH  14  15
HETATM   15  C   UNL     1     -12.069   9.240  71.156  1.00  0.00    -0.389 A  
HETATM   16  C   UNL     1     -11.152   8.698  70.244  1.00  0.00    -0.217 A  
HETATM   17  O   UNL     1     -11.025   9.143  68.949  1.00  0.00    -0.415 OA 
HETATM   18  C   UNL     1     -10.302   7.662  70.622  1.00  0.00    -0.205 A  
HETATM   19  H   UNL     1     -10.404   8.776  68.331  1.00  0.00     0.000 HD 
HETATM   20  C   UNL     1     -10.363   7.131  71.901  1.00  0.00    -0.192 A  
HETATM   21  O   UNL     1      -9.383   7.164  69.736  1.00  0.00    -0.148 OA 
HETATM   22  H   UNL     1      -8.803   6.457  69.995  1.00  0.00     0.000 HD 
HETATM   23  C   UNL     1     -11.280   7.621  72.817  1.00  0.00    -0.431 A  
HETATM   24  O   UNL     1      -9.522   6.118  72.263  1.00  0.00    -0.151 OA 
HETATM   25  H   UNL     1      -9.564   5.754  73.140  1.00  0.00     0.000 HD 
HETATM   26  C   UNL     1     -12.131   8.669  72.445  1.00  0.00    -0.415 A  
ENDBRANCH  14  15
ENDBRANCH  12  14
ENDBRANCH  11  12
ENDBRANCH   3   8
TORSDOF 5
ENDMDL
MODEL      114
REMARK 921   NORMALIZED FREE ENERGY PREDICTED BY IDOCK:   -4.79 KCAL/MOL
REMARK 922        TOTAL FREE ENERGY PREDICTED BY IDOCK:   -6.63 KCAL/MOL
REMARK 923 INTER-LIGAND FREE ENERGY PREDICTED BY IDOCK:   -6.16 KCAL/MOL
REMARK 924 INTRA-LIGAND FREE ENERGY PREDICTED BY IDOCK:   -0.47 KCAL/MOL
REMARK 927      BINDING AFFINITY PREDICTED BY RF-SCORE:    0.00 PKD
ROOT
HETATM    1  N   UNL     1      -9.068   6.972  68.717  1.00  0.00    -0.134 NA 
HETATM    2  H1  UNL     1      -8.524   7.833  68.781  1.00  0.00     0.000 HD 
HETATM    3  CA  UNL     1      -8.682   6.176  67.518  1.00  0.00    -0.104 C  
HETATM    4  H2  UNL     1      -8.998   6.420  69.573  1.00  0.00     0.000 HD 
ENDROOT
BRANCH   3   5
HETATM    5  C   UNL     1      -9.500   4.882  67.422  1.00  0.00    -0.140 C  
HETATM    6  H   UNL     1     -11.200   4.317  66.609  1.00  0.00     0.000 HD 
HETATM    7  O   UNL     1     -10.694   5.118  66.669  1.00  0.00    -0.279 OA 
ENDBRANCH   3   5
BRANCH   3   8
HETATM    8  C   UNL     1      -8.835   7.012  66.245  1.00  0.00    -0.148 C  
HETATM    9  O   UNL     1      -8.271   6.757  65.182  1.00  0.00    -0.131 OA 
HETATM   10  H   UNL     1     -10.080   8.310  67.324  1.00  0.00     0.000 HD 
HETATM   11  N   UNL     1      -9.634   8.136  66.423  1.00  0.00    -0.225 N  
BRANCH  11  12
HETATM   12  N   UNL     1      -9.823   9.032  65.353  1.00  0.00    -0.395 NA 
HETATM   13  H   UNL     1     -10.793   9.037  65.036  1.00  0.00     0.000 HD 
BRANCH  12  14
HETATM   14  C   UNL     1      -9.361  10.389  65.701  1.00  0.00    -0.198 C  
BRANCH  14  15
HETATM   15  C   UNL     1     -10.477  11.408  65.616  1.00  0.00    -0.316 A  
HETATM   16  C   UNL     1     -11.120  11.757  64.420  1.00  0.00    -0.334 A  
HETATM   17  O   UNL     1     -10.806  11.194  63.205  1.00  0.00    -0.775 OA 
HETATM   18  C   UNL     1     -12.136  12.709  64.410  1.00  0.00    -0.415 A  
HETATM   19  H   UNL     1     -11.242  11.430  62.394  1.00  0.00     0.000 HD 
HETATM   20  C   UNL     1     -12.514  13.348  65.581  1.00  0.00    -0.464 A  
HETATM   21  O   UNL     1     -12.784  13.017  63.243  1.00  0.00    -0.663 OA 
HETATM   22  H   UNL     1     -13.477  13.667  63.237  1.00  0.00     0.000 HD 
HETATM   23  C   UNL     1     -11.878  13.051  66.775  1.00  0.00    -0.451 A  
HETATM   24  O   UNL     1     -13.514  14.278  65.561  1.00  0.00    -0.683 OA 
HETATM   25  H   UNL     1     -13.773  14.716  66.364  1.00  0.00     0.000 HD 
HETATM   26  C   UNL     1     -10.861  12.087  66.792  1.00  0.00    -0.307 A  
ENDBRANCH  14  15
ENDBRANCH  12  14
ENDBRANCH  11  12
ENDBRANCH   3   8
TORSDOF 5
ENDMDL
MODEL      115
REMARK 921   NORMALIZED FREE ENERGY PREDICTED BY IDOCK:   -4.77 KCAL/MOL
REMARK 922        TOTAL FREE ENERGY PREDICTED BY IDOCK:   -6.61 KCAL/MOL
REMARK 923 INTER-LIGAND FREE ENERGY PREDICTED BY IDOCK:   -6.19 KCAL/MOL
REMARK 924 INTRA-LIGAND FREE ENERGY PREDICTED BY IDOCK:   -0.42 KCAL/MOL
REMARK 927      BINDING AFFINITY PREDICTED BY RF-SCORE:    0.00 PKD
ROOT
HETATM    1  N   UNL     1     -11.109  15.364  66.694  1.00  0.00    -0.283 NA 
HETATM    2  H1  UNL     1     -11.451  15.144  67.631  1.00  0.00     0.000 HD 
HETATM    3  CA  UNL     1     -12.065  14.901  65.648  1.00  0.00    -0.008 C  
HETATM    4  H2  UNL     1     -10.898  16.357  66.596  1.00  0.00     0.000 HD 
ENDROOT
BRANCH   3   5
HETATM    5  C   UNL     1     -11.551  15.231  64.241  1.00  0.00    -0.197 C  
HETATM    6  H   UNL     1     -11.146  16.854  63.206  1.00  0.00     0.000 HD 
HETATM    7  O   UNL     1     -11.463  16.650  64.077  1.00  0.00    -1.192 OA 
ENDBRANCH   3   5
BRANCH   3   8
HETATM    8  C   UNL     1     -12.332  13.400  65.791  1.00  0.00    -0.460 C  
HETATM    9  O   UNL     1     -12.985  12.738  64.985  1.00  0.00    -0.811 OA 
HETATM   10  H   UNL     1     -11.280  13.449  67.604  1.00  0.00     0.000 HD 
HETATM   11  N   UNL     1     -11.813  12.862  66.963  1.00  0.00    -0.382 N  
BRANCH  11  12
HETATM   12  N   UNL     1     -12.028  11.502  67.260  1.00  0.00    -0.554 NA 
HETATM   13  H   UNL     1     -12.340  10.984  66.438  1.00  0.00     0.000 HD 
BRANCH  12  14
HETATM   14  C   UNL     1     -10.830  10.888  67.862  1.00  0.00    -0.247 C  
BRANCH  14  15
HETATM   15  C   UNL     1     -10.006  10.130  66.843  1.00  0.00    -0.259 A  
HETATM   16  C   UNL     1      -9.137  10.750  65.933  1.00  0.00    -0.188 A  
HETATM   17  O   UNL     1      -8.939  12.110  65.888  1.00  0.00    -0.416 OA 
HETATM   18  C   UNL     1      -8.412   9.994  65.016  1.00  0.00    -0.160 A  
HETATM   19  H   UNL     1      -8.350  12.530  65.272  1.00  0.00     0.000 HD 
HETATM   20  C   UNL     1      -8.554   8.616  64.969  1.00  0.00    -0.158 A  
HETATM   21  O   UNL     1      -7.537  10.604  64.156  1.00  0.00    -0.352 OA 
HETATM   22  H   UNL     1      -7.042  10.088  63.530  1.00  0.00     0.000 HD 
HETATM   23  C   UNL     1      -9.428   7.975  65.831  1.00  0.00    -0.036 A  
HETATM   24  O   UNL     1      -7.836   7.884  64.068  1.00  0.00    -0.130 OA 
HETATM   25  H   UNL     1      -7.933   6.939  64.036  1.00  0.00     0.000 HD 
HETATM   26  C   UNL     1     -10.153   8.730  66.763  1.00  0.00    -0.359 A  
ENDBRANCH  14  15
ENDBRANCH  12  14
ENDBRANCH  11  12
ENDBRANCH   3   8
TORSDOF 5
ENDMDL
MODEL      116
REMARK 921   NORMALIZED FREE ENERGY PREDICTED BY IDOCK:   -4.76 KCAL/MOL
REMARK 922        TOTAL FREE ENERGY PREDICTED BY IDOCK:   -6.60 KCAL/MOL
REMARK 923 INTER-LIGAND FREE ENERGY PREDICTED BY IDOCK:   -6.17 KCAL/MOL
REMARK 924 INTRA-LIGAND FREE ENERGY PREDICTED BY IDOCK:   -0.43 KCAL/MOL
REMARK 927      BINDING AFFINITY PREDICTED BY RF-SCORE:    0.00 PKD
ROOT
HETATM    1  N   UNL     1     -12.262  11.129  68.531  1.00  0.00    -0.722 NA 
HETATM    2  H1  UNL     1     -12.052  10.134  68.451  1.00  0.00     0.000 HD 
HETATM    3  CA  UNL     1     -11.803  11.674  69.840  1.00  0.00    -0.358 C  
HETATM    4  H2  UNL     1     -11.875  11.658  67.748  1.00  0.00     0.000 HD 
ENDROOT
BRANCH   3   5
HETATM    5  C   UNL     1     -12.118  13.170  69.961  1.00  0.00    -0.305 C  
HETATM    6  H   UNL     1     -12.410  14.679  68.733  1.00  0.00     0.000 HD 
HETATM    7  O   UNL     1     -12.215  13.753  68.658  1.00  0.00    -0.347 OA 
ENDBRANCH   3   5
BRANCH   3   8
HETATM    8  C   UNL     1     -12.429  10.891  70.998  1.00  0.00    -0.411 C  
HETATM    9  O   UNL     1     -13.189  11.385  71.830  1.00  0.00    -0.484 OA 
HETATM   10  H   UNL     1     -11.369   9.203  70.346  1.00  0.00     0.000 HD 
HETATM   11  N   UNL     1     -12.003   9.570  71.056  1.00  0.00    -0.311 N  
BRANCH  11  12
HETATM   12  N   UNL     1     -12.452   8.738  72.102  1.00  0.00    -0.375 NA 
HETATM   13  H   UNL     1     -13.150   9.207  72.678  1.00  0.00     0.000 HD 
BRANCH  12  14
HETATM   14  C   UNL     1     -12.952   7.450  71.587  1.00  0.00    -0.366 C  
BRANCH  14  15
HETATM   15  C   UNL     1     -11.825   6.495  71.255  1.00  0.00    -0.385 A  
HETATM   16  C   UNL     1     -11.057   5.835  72.225  1.00  0.00    -0.276 A  
HETATM   17  O   UNL     1     -11.264   5.981  73.577  1.00  0.00    -0.449 OA 
HETATM   18  C   UNL     1     -10.029   4.973  71.851  1.00  0.00    -0.187 A  
HETATM   19  H   UNL     1     -10.744   5.533  74.234  1.00  0.00     0.000 HD 
HETATM   20  C   UNL     1      -9.730   4.772  70.513  1.00  0.00    -0.211 A  
HETATM   21  O   UNL     1      -9.308   4.303  72.805  1.00  0.00    -0.118 OA 
HETATM   22  H   UNL     1      -8.607   3.715  72.550  1.00  0.00     0.000 HD 
HETATM   23  C   UNL     1     -10.447   5.433  69.530  1.00  0.00    -0.343 A  
HETATM   24  O   UNL     1      -8.722   3.921  70.158  1.00  0.00    -0.066 OA 
HETATM   25  H   UNL     1      -8.516   3.783  69.240  1.00  0.00     0.000 HD 
HETATM   26  C   UNL     1     -11.489   6.294  69.900  1.00  0.00    -0.459 A  
ENDBRANCH  14  15
ENDBRANCH  12  14
ENDBRANCH  11  12
ENDBRANCH   3   8
TORSDOF 5
ENDMDL
MODEL      117
REMARK 921   NORMALIZED FREE ENERGY PREDICTED BY IDOCK:   -4.76 KCAL/MOL
REMARK 922        TOTAL FREE ENERGY PREDICTED BY IDOCK:   -6.60 KCAL/MOL
REMARK 923 INTER-LIGAND FREE ENERGY PREDICTED BY IDOCK:   -6.25 KCAL/MOL
REMARK 924 INTRA-LIGAND FREE ENERGY PREDICTED BY IDOCK:   -0.35 KCAL/MOL
REMARK 927      BINDING AFFINITY PREDICTED BY RF-SCORE:    0.00 PKD
ROOT
HETATM    1  N   UNL     1     -10.848   8.054  67.199  1.00  0.00    -0.484 NA 
HETATM    2  H1  UNL     1     -11.867   8.090  67.243  1.00  0.00     0.000 HD 
HETATM    3  CA  UNL     1     -10.236   9.262  67.822  1.00  0.00    -0.218 C  
HETATM    4  H2  UNL     1     -10.486   7.194  67.614  1.00  0.00     0.000 HD 
ENDROOT
BRANCH   3   5
HETATM    5  C   UNL     1      -8.705   9.207  67.757  1.00  0.00    -0.121 C  
HETATM    6  H   UNL     1      -7.261   8.266  68.705  1.00  0.00     0.000 HD 
HETATM    7  O   UNL     1      -8.209   8.300  68.746  1.00  0.00    -0.114 OA 
ENDBRANCH   3   5
BRANCH   3   8
HETATM    8  C   UNL     1     -10.764  10.536  67.156  1.00  0.00    -0.265 C  
HETATM    9  O   UNL     1     -10.468  10.888  66.015  1.00  0.00    -0.251 OA 
HETATM   10  H   UNL     1     -11.783  10.969  68.937  1.00  0.00     0.000 HD 
HETATM   11  N   UNL     1     -11.567  11.298  67.996  1.00  0.00    -0.290 N  
BRANCH  11  12
HETATM   12  N   UNL     1     -12.082  12.528  67.540  1.00  0.00    -0.444 NA 
HETATM   13  H   UNL     1     -13.096  12.495  67.439  1.00  0.00     0.000 HD 
BRANCH  12  14
HETATM   14  C   UNL     1     -11.661  13.642  68.409  1.00  0.00    -0.358 C  
BRANCH  14  15
HETATM   15  C   UNL     1     -11.313  14.883  67.615  1.00  0.00    -0.348 A  
HETATM   16  C   UNL     1     -11.264  14.918  66.214  1.00  0.00    -0.331 A  
HETATM   17  O   UNL     1     -11.541  13.828  65.423  1.00  0.00    -0.309 OA 
HETATM   18  C   UNL     1     -10.930  16.092  65.544  1.00  0.00    -0.177 A  
HETATM   19  H   UNL     1     -11.508  13.852  64.474  1.00  0.00     0.000 HD 
HETATM   20  C   UNL     1     -10.616  17.242  66.252  1.00  0.00    -0.184 A  
HETATM   21  O   UNL     1     -10.920  16.128  64.175  1.00  0.00    -1.061 OA 
HETATM   22  H   UNL     1     -10.693  16.930  63.718  1.00  0.00     0.000 HD 
HETATM   23  C   UNL     1     -10.624  17.233  67.636  1.00  0.00    -0.350 A  
HETATM   24  O   UNL     1     -10.294  18.390  65.585  1.00  0.00    -0.605 OA 
HETATM   25  H   UNL     1     -10.079  19.178  66.070  1.00  0.00     0.000 HD 
HETATM   26  C   UNL     1     -10.968  16.057  68.316  1.00  0.00    -0.335 A  
ENDBRANCH  14  15
ENDBRANCH  12  14
ENDBRANCH  11  12
ENDBRANCH   3   8
TORSDOF 5
ENDMDL
MODEL      118
REMARK 921   NORMALIZED FREE ENERGY PREDICTED BY IDOCK:   -4.75 KCAL/MOL
REMARK 922        TOTAL FREE ENERGY PREDICTED BY IDOCK:   -6.58 KCAL/MOL
REMARK 923 INTER-LIGAND FREE ENERGY PREDICTED BY IDOCK:   -6.19 KCAL/MOL
REMARK 924 INTRA-LIGAND FREE ENERGY PREDICTED BY IDOCK:   -0.40 KCAL/MOL
REMARK 927      BINDING AFFINITY PREDICTED BY RF-SCORE:    0.00 PKD
ROOT
HETATM    1  N   UNL     1      -9.530  11.627  65.193  1.00  0.00    -0.378 NA 
HETATM    2  H1  UNL     1     -10.504  11.894  65.338  1.00  0.00     0.000 HD 
HETATM    3  CA  UNL     1      -8.979  10.922  66.385  1.00  0.00    -0.175 C  
HETATM    4  H2  UNL     1      -9.416  11.072  64.344  1.00  0.00     0.000 HD 
ENDROOT
BRANCH   3   5
HETATM    5  C   UNL     1      -7.515  10.521  66.167  1.00  0.00    -0.136 C  
HETATM    6  H   UNL     1      -6.528   9.262  65.021  1.00  0.00     0.000 HD 
HETATM    7  O   UNL     1      -7.434   9.511  65.156  1.00  0.00    -0.102 OA 
ENDBRANCH   3   5
BRANCH   3   8
HETATM    8  C   UNL     1      -9.124  11.791  67.637  1.00  0.00    -0.177 C  
HETATM    9  O   UNL     1      -8.315  11.801  68.565  1.00  0.00    -0.156 OA 
HETATM   10  H   UNL     1     -10.945  12.489  66.866  1.00  0.00     0.000 HD 
HETATM   11  N   UNL     1     -10.301  12.530  67.656  1.00  0.00    -0.216 N  
BRANCH  11  12
HETATM   12  N   UNL     1     -10.600  13.336  68.772  1.00  0.00    -0.338 NA 
HETATM   13  H   UNL     1     -10.432  14.323  68.577  1.00  0.00     0.000 HD 
BRANCH  12  14
HETATM   14  C   UNL     1     -11.976  13.106  69.248  1.00  0.00    -0.292 C  
BRANCH  14  15
HETATM   15  C   UNL     1     -12.296  13.926  70.480  1.00  0.00    -0.439 A  
HETATM   16  C   UNL     1     -11.801  15.220  70.700  1.00  0.00    -0.335 A  
HETATM   17  O   UNL     1     -10.985  15.876  69.809  1.00  0.00    -0.272 OA 
HETATM   18  C   UNL     1     -12.130  15.918  71.860  1.00  0.00    -0.498 A  
HETATM   19  H   UNL     1     -10.650  16.752  69.958  1.00  0.00     0.000 HD 
HETATM   20  C   UNL     1     -12.932  15.337  72.828  1.00  0.00    -0.438 A  
HETATM   21  O   UNL     1     -11.672  17.195  72.050  1.00  0.00    -0.269 OA 
HETATM   22  H   UNL     1     -11.896  17.671  72.841  1.00  0.00     0.000 HD 
HETATM   23  C   UNL     1     -13.412  14.049  72.657  1.00  0.00    -0.650 A  
HETATM   24  O   UNL     1     -13.251  16.032  73.960  1.00  0.00    -0.890 OA 
HETATM   25  H   UNL     1     -13.802  15.633  74.625  1.00  0.00     0.000 HD 
HETATM   26  C   UNL     1     -13.093  13.345  71.488  1.00  0.00    -0.427 A  
ENDBRANCH  14  15
ENDBRANCH  12  14
ENDBRANCH  11  12
ENDBRANCH   3   8
TORSDOF 5
ENDMDL
MODEL      119
REMARK 921   NORMALIZED FREE ENERGY PREDICTED BY IDOCK:   -4.73 KCAL/MOL
REMARK 922        TOTAL FREE ENERGY PREDICTED BY IDOCK:   -6.56 KCAL/MOL
REMARK 923 INTER-LIGAND FREE ENERGY PREDICTED BY IDOCK:   -6.26 KCAL/MOL
REMARK 924 INTRA-LIGAND FREE ENERGY PREDICTED BY IDOCK:   -0.30 KCAL/MOL
REMARK 927      BINDING AFFINITY PREDICTED BY RF-SCORE:    0.00 PKD
ROOT
HETATM    1  N   UNL     1     -10.496   5.703  71.022  1.00  0.00    -0.238 NA 
HETATM    2  H1  UNL     1     -10.961   5.625  70.117  1.00  0.00     0.000 HD 
HETATM    3  CA  UNL     1     -11.439   6.178  72.075  1.00  0.00    -0.313 C  
HETATM    4  H2  UNL     1     -10.046   4.827  71.289  1.00  0.00     0.000 HD 
ENDROOT
BRANCH   3   5
HETATM    5  C   UNL     1     -10.739   6.295  73.436  1.00  0.00    -0.259 C  
HETATM    6  H   UNL     1      -9.278   7.361  74.210  1.00  0.00     0.000 HD 
HETATM    7  O   UNL     1      -9.711   7.288  73.368  1.00  0.00    -0.199 OA 
ENDBRANCH   3   5
BRANCH   3   8
HETATM    8  C   UNL     1     -12.069   7.513  71.671  1.00  0.00    -0.311 C  
HETATM    9  O   UNL     1     -13.124   7.944  72.133  1.00  0.00    -0.261 OA 
HETATM   10  H   UNL     1     -10.488   7.776  70.318  1.00  0.00     0.000 HD 
HETATM   11  N   UNL     1     -11.358   8.172  70.674  1.00  0.00    -0.267 N  
BRANCH  11  12
HETATM   12  N   UNL     1     -11.846   9.390  70.159  1.00  0.00    -0.466 NA 
HETATM   13  H   UNL     1     -12.552   9.799  70.772  1.00  0.00     0.000 HD 
BRANCH  12  14
HETATM   14  C   UNL     1     -10.749  10.337  69.890  1.00  0.00    -0.294 C  
BRANCH  14  15
HETATM   15  C   UNL     1     -11.168  11.434  68.934  1.00  0.00    -0.310 A  
HETATM   16  C   UNL     1     -11.604  12.700  69.351  1.00  0.00    -0.306 A  
HETATM   17  O   UNL     1     -11.680  13.074  70.672  1.00  0.00    -0.512 OA 
HETATM   18  C   UNL     1     -11.981  13.664  68.419  1.00  0.00    -0.356 A  
HETATM   19  H   UNL     1     -11.975  13.931  70.954  1.00  0.00     0.000 HD 
HETATM   20  C   UNL     1     -11.956  13.380  67.063  1.00  0.00    -0.379 A  
HETATM   21  O   UNL     1     -12.370  14.910  68.833  1.00  0.00    -0.570 OA 
HETATM   22  H   UNL     1     -12.627  15.568  68.196  1.00  0.00     0.000 HD 
HETATM   23  C   UNL     1     -11.562  12.129  66.618  1.00  0.00    -0.416 A  
HETATM   24  O   UNL     1     -12.324  14.333  66.157  1.00  0.00    -0.437 OA 
HETATM   25  H   UNL     1     -12.307  14.139  65.226  1.00  0.00     0.000 HD 
HETATM   26  C   UNL     1     -11.171  11.159  67.551  1.00  0.00    -0.369 A  
ENDBRANCH  14  15
ENDBRANCH  12  14
ENDBRANCH  11  12
ENDBRANCH   3   8
TORSDOF 5
ENDMDL
MODEL      120
REMARK 921   NORMALIZED FREE ENERGY PREDICTED BY IDOCK:   -4.73 KCAL/MOL
REMARK 922        TOTAL FREE ENERGY PREDICTED BY IDOCK:   -6.55 KCAL/MOL
REMARK 923 INTER-LIGAND FREE ENERGY PREDICTED BY IDOCK:   -6.21 KCAL/MOL
REMARK 924 INTRA-LIGAND FREE ENERGY PREDICTED BY IDOCK:   -0.34 KCAL/MOL
REMARK 927      BINDING AFFINITY PREDICTED BY RF-SCORE:    0.00 PKD
ROOT
HETATM    1  N   UNL     1     -14.367  13.525  72.429  1.00  0.00    -0.634 NA 
HETATM    2  H1  UNL     1     -14.591  14.448  72.802  1.00  0.00     0.000 HD 
HETATM    3  CA  UNL     1     -13.008  13.504  71.818  1.00  0.00    -0.348 C  
HETATM    4  H2  UNL     1     -14.471  12.799  73.138  1.00  0.00     0.000 HD 
ENDROOT
BRANCH   3   5
HETATM    5  C   UNL     1     -12.671  12.117  71.256  1.00  0.00    -0.261 C  
HETATM    6  H   UNL     1     -13.092  10.248  71.703  1.00  0.00     0.000 HD 
HETATM    7  O   UNL     1     -13.301  11.107  72.051  1.00  0.00    -0.454 OA 
ENDBRANCH   3   5
BRANCH   3   8
HETATM    8  C   UNL     1     -12.892  14.574  70.728  1.00  0.00    -0.361 C  
HETATM    9  O   UNL     1     -13.312  15.724  70.846  1.00  0.00    -0.576 OA 
HETATM   10  H   UNL     1     -11.985  13.135  69.502  1.00  0.00     0.000 HD 
HETATM   11  N   UNL     1     -12.316  14.098  69.556  1.00  0.00    -0.298 N  
BRANCH  11  12
HETATM   12  N   UNL     1     -12.193  14.954  68.443  1.00  0.00    -0.592 NA 
HETATM   13  H   UNL     1     -12.440  15.914  68.681  1.00  0.00     0.000 HD 
BRANCH  12  14
HETATM   14  C   UNL     1     -10.845  14.874  67.851  1.00  0.00    -0.276 C  
BRANCH  14  15
HETATM   15  C   UNL     1     -10.622  13.566  67.122  1.00  0.00    -0.264 A  
HETATM   16  C   UNL     1     -10.009  12.448  67.706  1.00  0.00    -0.205 A  
HETATM   17  O   UNL     1      -9.562  12.427  69.007  1.00  0.00    -0.397 OA 
HETATM   18  C   UNL     1      -9.827  11.276  66.977  1.00  0.00    -0.191 A  
HETATM   19  H   UNL     1      -9.147  11.670  69.402  1.00  0.00     0.000 HD 
HETATM   20  C   UNL     1     -10.227  11.201  65.652  1.00  0.00    -0.256 A  
HETATM   21  O   UNL     1      -9.261  10.176  67.566  1.00  0.00    -0.137 OA 
HETATM   22  H   UNL     1      -9.137   9.376  67.069  1.00  0.00     0.000 HD 
HETATM   23  C   UNL     1     -10.806  12.297  65.035  1.00  0.00    -0.337 A  
HETATM   24  O   UNL     1     -10.048  10.045  64.947  1.00  0.00    -0.341 OA 
HETATM   25  H   UNL     1     -10.322   9.993  64.038  1.00  0.00     0.000 HD 
HETATM   26  C   UNL     1     -11.000  13.476  65.766  1.00  0.00    -0.285 A  
ENDBRANCH  14  15
ENDBRANCH  12  14
ENDBRANCH  11  12
ENDBRANCH   3   8
TORSDOF 5
ENDMDL
MODEL      121
REMARK 921   NORMALIZED FREE ENERGY PREDICTED BY IDOCK:   -4.72 KCAL/MOL
REMARK 922        TOTAL FREE ENERGY PREDICTED BY IDOCK:   -6.55 KCAL/MOL
REMARK 923 INTER-LIGAND FREE ENERGY PREDICTED BY IDOCK:   -6.23 KCAL/MOL
REMARK 924 INTRA-LIGAND FREE ENERGY PREDICTED BY IDOCK:   -0.32 KCAL/MOL
REMARK 927      BINDING AFFINITY PREDICTED BY RF-SCORE:    0.00 PKD
ROOT
HETATM    1  N   UNL     1     -11.723   7.591  70.224  1.00  0.00    -0.493 NA 
HETATM    2  H1  UNL     1     -12.559   7.681  69.646  1.00  0.00     0.000 HD 
HETATM    3  CA  UNL     1     -11.937   8.176  71.578  1.00  0.00    -0.298 C  
HETATM    4  H2  UNL     1     -11.408   6.622  70.279  1.00  0.00     0.000 HD 
ENDROOT
BRANCH   3   5
HETATM    5  C   UNL     1     -10.679   8.040  72.447  1.00  0.00    -0.320 C  
HETATM    6  H   UNL     1      -8.812   7.477  72.191  1.00  0.00     0.000 HD 
HETATM    7  O   UNL     1      -9.590   7.561  71.653  1.00  0.00    -0.150 OA 
ENDBRANCH   3   5
BRANCH   3   8
HETATM    8  C   UNL     1     -12.367   9.641  71.470  1.00  0.00    -0.390 C  
HETATM    9  O   UNL     1     -13.400  10.092  71.963  1.00  0.00    -0.434 OA 
HETATM   10  H   UNL     1     -10.657   9.991  70.309  1.00  0.00     0.000 HD 
HETATM   11  N   UNL     1     -11.501  10.409  70.701  1.00  0.00    -0.336 N  
BRANCH  11  12
HETATM   12  N   UNL     1     -11.796  11.766  70.465  1.00  0.00    -0.500 NA 
HETATM   13  H   UNL     1     -11.078  12.377  70.853  1.00  0.00     0.000 HD 
BRANCH  12  14
HETATM   14  C   UNL     1     -12.012  12.028  69.030  1.00  0.00    -0.264 C  
BRANCH  14  15
HETATM   15  C   UNL     1     -11.723  13.468  68.665  1.00  0.00    -0.389 A  
HETATM   16  C   UNL     1     -11.447  13.896  67.359  1.00  0.00    -0.348 A  
HETATM   17  O   UNL     1     -11.427  13.048  66.276  1.00  0.00    -0.308 OA 
HETATM   18  C   UNL     1     -11.183  15.237  67.091  1.00  0.00    -0.291 A  
HETATM   19  H   UNL     1     -11.240  13.338  65.391  1.00  0.00     0.000 HD 
HETATM   20  C   UNL     1     -11.162  16.169  68.117  1.00  0.00    -0.311 A  
HETATM   21  O   UNL     1     -10.951  15.653  65.807  1.00  0.00    -0.314 OA 
HETATM   22  H   UNL     1     -10.771  16.568  65.625  1.00  0.00     0.000 HD 
HETATM   23  C   UNL     1     -11.398  15.775  69.423  1.00  0.00    -0.348 A  
HETATM   24  O   UNL     1     -10.905  17.482  67.843  1.00  0.00    -0.374 OA 
HETATM   25  H   UNL     1     -10.891  18.122  68.546  1.00  0.00     0.000 HD 
HETATM   26  C   UNL     1     -11.675  14.429  69.697  1.00  0.00    -0.362 A  
ENDBRANCH  14  15
ENDBRANCH  12  14
ENDBRANCH  11  12
ENDBRANCH   3   8
TORSDOF 5
ENDMDL
MODEL      122
REMARK 921   NORMALIZED FREE ENERGY PREDICTED BY IDOCK:   -4.72 KCAL/MOL
REMARK 922        TOTAL FREE ENERGY PREDICTED BY IDOCK:   -6.55 KCAL/MOL
REMARK 923 INTER-LIGAND FREE ENERGY PREDICTED BY IDOCK:   -5.72 KCAL/MOL
REMARK 924 INTRA-LIGAND FREE ENERGY PREDICTED BY IDOCK:   -0.82 KCAL/MOL
REMARK 927      BINDING AFFINITY PREDICTED BY RF-SCORE:    0.00 PKD
ROOT
HETATM    1  N   UNL     1     -10.942  11.194  62.972  1.00  0.00    -0.821 NA 
HETATM    2  H1  UNL     1     -11.804  11.740  62.965  1.00  0.00     0.000 HD 
HETATM    3  CA  UNL     1     -10.516  10.873  64.364  1.00  0.00    -0.333 C  
HETATM    4  H2  UNL     1     -11.029  10.351  62.403  1.00  0.00     0.000 HD 
ENDROOT
BRANCH   3   5
HETATM    5  C   UNL     1      -9.221  10.051  64.374  1.00  0.00    -0.266 C  
HETATM    6  H   UNL     1      -8.243   8.899  63.115  1.00  0.00     0.000 HD 
HETATM    7  O   UNL     1      -9.045   9.408  63.108  1.00  0.00    -0.212 OA 
ENDBRANCH   3   5
BRANCH   3   8
HETATM    8  C   UNL     1     -10.353  12.156  65.184  1.00  0.00    -0.279 C  
HETATM    9  O   UNL     1      -9.435  12.351  65.980  1.00  0.00    -0.232 OA 
HETATM   10  H   UNL     1     -12.131  12.858  64.322  1.00  0.00     0.000 HD 
HETATM   11  N   UNL     1     -11.387  13.063  64.990  1.00  0.00    -0.290 N  
BRANCH  11  12
HETATM   12  N   UNL     1     -11.403  14.268  65.720  1.00  0.00    -0.320 NA 
HETATM   13  H   UNL     1     -10.785  14.223  66.530  1.00  0.00     0.000 HD 
BRANCH  12  14
HETATM   14  C   UNL     1     -11.083  15.422  64.859  1.00  0.00    -0.423 C  
BRANCH  14  15
HETATM   15  C   UNL     1     -10.291  16.480  65.598  1.00  0.00    -0.342 A  
HETATM   16  C   UNL     1      -9.119  16.208  66.318  1.00  0.00    -0.338 A  
HETATM   17  O   UNL     1      -8.566  14.952  66.412  1.00  0.00    -0.446 OA 
HETATM   18  C   UNL     1      -8.440  17.227  66.982  1.00  0.00    -0.219 A  
HETATM   19  H   UNL     1      -7.772  14.768  66.900  1.00  0.00     0.000 HD 
HETATM   20  C   UNL     1      -8.926  18.525  66.963  1.00  0.00    -0.274 A  
HETATM   21  O   UNL     1      -7.276  16.960  67.652  1.00  0.00    -0.137 OA 
HETATM   22  H   UNL     1      -6.813  17.656  68.105  1.00  0.00     0.000 HD 
HETATM   23  C   UNL     1     -10.098  18.822  66.288  1.00  0.00    -0.447 A  
HETATM   24  O   UNL     1      -8.251  19.518  67.614  1.00  0.00    -0.282 OA 
HETATM   25  H   UNL     1      -8.584  20.408  67.601  1.00  0.00     0.000 HD 
HETATM   26  C   UNL     1     -10.780  17.802  65.610  1.00  0.00    -0.064 A  
ENDBRANCH  14  15
ENDBRANCH  12  14
ENDBRANCH  11  12
ENDBRANCH   3   8
TORSDOF 5
ENDMDL
MODEL      123
REMARK 921   NORMALIZED FREE ENERGY PREDICTED BY IDOCK:   -4.71 KCAL/MOL
REMARK 922        TOTAL FREE ENERGY PREDICTED BY IDOCK:   -6.54 KCAL/MOL
REMARK 923 INTER-LIGAND FREE ENERGY PREDICTED BY IDOCK:   -6.07 KCAL/MOL
REMARK 924 INTRA-LIGAND FREE ENERGY PREDICTED BY IDOCK:   -0.47 KCAL/MOL
REMARK 927      BINDING AFFINITY PREDICTED BY RF-SCORE:    0.00 PKD
ROOT
HETATM    1  N   UNL     1     -12.386  14.156  63.418  1.00  0.00    -1.144 NA 
HETATM    2  H1  UNL     1     -12.812  13.411  62.865  1.00  0.00     0.000 HD 
HETATM    3  CA  UNL     1     -11.215  13.653  64.191  1.00  0.00    -0.272 C  
HETATM    4  H2  UNL     1     -12.137  14.957  62.838  1.00  0.00     0.000 HD 
ENDROOT
BRANCH   3   5
HETATM    5  C   UNL     1     -10.574  14.772  65.022  1.00  0.00    -0.429 C  
HETATM    6  H   UNL     1     -10.849  16.703  65.281  1.00  0.00     0.000 HD 
HETATM    7  O   UNL     1     -11.246  16.010  64.767  1.00  0.00    -0.431 OA 
ENDBRANCH   3   5
BRANCH   3   8
HETATM    8  C   UNL     1     -11.623  12.478  65.084  1.00  0.00    -0.353 C  
HETATM    9  O   UNL     1     -12.785  12.227  65.400  1.00  0.00    -0.500 OA 
HETATM   10  H   UNL     1      -9.591  11.998  65.273  1.00  0.00     0.000 HD 
HETATM   11  N   UNL     1     -10.538  11.752  65.560  1.00  0.00    -0.267 N  
BRANCH  11  12
HETATM   12  N   UNL     1     -10.754  10.673  66.440  1.00  0.00    -0.178 NA 
HETATM   13  H   UNL     1     -10.445   9.790  66.032  1.00  0.00     0.000 HD 
BRANCH  12  14
HETATM   14  C   UNL     1     -10.123  10.913  67.750  1.00  0.00    -0.177 C  
BRANCH  14  15
HETATM   15  C   UNL     1     -10.559   9.899  68.786  1.00  0.00    -0.246 A  
HETATM   16  C   UNL     1     -10.616   8.519  68.543  1.00  0.00    -0.111 A  
HETATM   17  O   UNL     1     -10.268   7.951  67.340  1.00  0.00    -0.203 OA 
HETATM   18  C   UNL     1     -11.033   7.639  69.539  1.00  0.00    -0.097 A  
HETATM   19  H   UNL     1     -10.306   7.016  67.176  1.00  0.00     0.000 HD 
HETATM   20  C   UNL     1     -11.422   8.114  70.781  1.00  0.00    -0.261 A  
HETATM   21  O   UNL     1     -11.050   6.289  69.305  1.00  0.00    -0.332 OA 
HETATM   22  H   UNL     1     -11.334   5.689  69.985  1.00  0.00     0.000 HD 
HETATM   23  C   UNL     1     -11.409   9.474  71.044  1.00  0.00    -0.423 A  
HETATM   24  O   UNL     1     -11.825   7.242  71.752  1.00  0.00    -0.273 OA 
HETATM   25  H   UNL     1     -12.093   7.568  72.604  1.00  0.00     0.000 HD 
HETATM   26  C   UNL     1     -10.981  10.363  70.049  1.00  0.00    -0.370 A  
ENDBRANCH  14  15
ENDBRANCH  12  14
ENDBRANCH  11  12
ENDBRANCH   3   8
TORSDOF 5
ENDMDL
MODEL      124
REMARK 921   NORMALIZED FREE ENERGY PREDICTED BY IDOCK:   -4.70 KCAL/MOL
REMARK 922        TOTAL FREE ENERGY PREDICTED BY IDOCK:   -6.52 KCAL/MOL
REMARK 923 INTER-LIGAND FREE ENERGY PREDICTED BY IDOCK:   -5.85 KCAL/MOL
REMARK 924 INTRA-LIGAND FREE ENERGY PREDICTED BY IDOCK:   -0.67 KCAL/MOL
REMARK 927      BINDING AFFINITY PREDICTED BY RF-SCORE:    0.00 PKD
ROOT
HETATM    1  N   UNL     1     -10.843  11.492  64.292  1.00  0.00    -0.347 NA 
HETATM    2  H1  UNL     1     -10.053  10.902  64.558  1.00  0.00     0.000 HD 
HETATM    3  CA  UNL     1     -10.615  12.911  64.689  1.00  0.00    -0.363 C  
HETATM    4  H2  UNL     1     -11.053  11.410  63.297  1.00  0.00     0.000 HD 
ENDROOT
BRANCH   3   5
HETATM    5  C   UNL     1     -11.802  13.797  64.290  1.00  0.00    -0.417 C  
HETATM    6  H   UNL     1     -13.355  13.660  63.090  1.00  0.00     0.000 HD 
HETATM    7  O   UNL     1     -12.620  13.111  63.337  1.00  0.00    -0.722 OA 
ENDBRANCH   3   5
BRANCH   3   8
HETATM    8  C   UNL     1     -10.343  13.012  66.192  1.00  0.00    -0.278 C  
HETATM    9  O   UNL     1      -9.455  12.390  66.774  1.00  0.00    -0.215 OA 
HETATM   10  H   UNL     1     -11.969  14.329  66.333  1.00  0.00     0.000 HD 
HETATM   11  N   UNL     1     -11.245  13.835  66.856  1.00  0.00    -0.305 N  
BRANCH  11  12
HETATM   12  N   UNL     1     -11.155  13.983  68.254  1.00  0.00    -0.245 NA 
HETATM   13  H   UNL     1     -10.229  13.730  68.598  1.00  0.00     0.000 HD 
BRANCH  12  14
HETATM   14  C   UNL     1     -11.536  15.343  68.676  1.00  0.00    -0.346 C  
BRANCH  14  15
HETATM   15  C   UNL     1     -10.371  16.308  68.602  1.00  0.00    -0.263 A  
HETATM   16  C   UNL     1      -9.065  15.977  68.991  1.00  0.00    -0.242 A  
HETATM   17  O   UNL     1      -8.712  14.736  69.466  1.00  0.00    -0.408 OA 
HETATM   18  C   UNL     1      -8.039  16.915  68.904  1.00  0.00    -0.219 A  
HETATM   19  H   UNL     1      -7.827  14.512  69.729  1.00  0.00     0.000 HD 
HETATM   20  C   UNL     1      -8.296  18.201  68.454  1.00  0.00    -0.299 A  
HETATM   21  O   UNL     1      -6.759  16.573  69.251  1.00  0.00    -0.197 OA 
HETATM   22  H   UNL     1      -6.059  17.212  69.191  1.00  0.00     0.000 HD 
HETATM   23  C   UNL     1      -9.581  18.570  68.093  1.00  0.00    -0.353 A  
HETATM   24  O   UNL     1      -7.282  19.111  68.369  1.00  0.00    -0.271 OA 
HETATM   25  H   UNL     1      -7.457  19.993  68.061  1.00  0.00     0.000 HD 
HETATM   26  C   UNL     1     -10.615  17.628  68.169  1.00  0.00    -0.359 A  
ENDBRANCH  14  15
ENDBRANCH  12  14
ENDBRANCH  11  12
ENDBRANCH   3   8
TORSDOF 5
ENDMDL
MODEL      125
REMARK 921   NORMALIZED FREE ENERGY PREDICTED BY IDOCK:   -4.70 KCAL/MOL
REMARK 922        TOTAL FREE ENERGY PREDICTED BY IDOCK:   -6.52 KCAL/MOL
REMARK 923 INTER-LIGAND FREE ENERGY PREDICTED BY IDOCK:   -6.20 KCAL/MOL
REMARK 924 INTRA-LIGAND FREE ENERGY PREDICTED BY IDOCK:   -0.32 KCAL/MOL
REMARK 927      BINDING AFFINITY PREDICTED BY RF-SCORE:    0.00 PKD
ROOT
HETATM    1  N   UNL     1     -12.467   8.530  72.772  1.00  0.00    -0.563 NA 
HETATM    2  H1  UNL     1     -12.400   9.544  72.863  1.00  0.00     0.000 HD 
HETATM    3  CA  UNL     1     -11.345   7.985  71.955  1.00  0.00    -0.302 C  
HETATM    4  H2  UNL     1     -12.523   8.075  73.683  1.00  0.00     0.000 HD 
ENDROOT
BRANCH   3   5
HETATM    5  C   UNL     1     -11.445   6.461  71.818  1.00  0.00    -0.300 C  
HETATM    6  H   UNL     1     -10.289   4.909  72.173  1.00  0.00     0.000 HD 
HETATM    7  O   UNL     1     -10.227   5.853  72.258  1.00  0.00    -0.184 OA 
ENDBRANCH   3   5
BRANCH   3   8
HETATM    8  C   UNL     1     -11.308   8.654  70.578  1.00  0.00    -0.218 C  
HETATM    9  O   UNL     1     -10.590   8.280  69.651  1.00  0.00    -0.227 OA 
HETATM   10  H   UNL     1     -12.704  10.048  71.289  1.00  0.00     0.000 HD 
HETATM   11  N   UNL     1     -12.127   9.773  70.493  1.00  0.00    -0.215 N  
BRANCH  11  12
HETATM   12  N   UNL     1     -12.156  10.526  69.303  1.00  0.00    -0.601 NA 
HETATM   13  H   UNL     1     -13.112  10.697  68.991  1.00  0.00     0.000 HD 
BRANCH  12  14
HETATM   14  C   UNL     1     -11.401  11.785  69.444  1.00  0.00    -0.272 C  
BRANCH  14  15
HETATM   15  C   UNL     1     -11.042  12.386  68.102  1.00  0.00    -0.288 A  
HETATM   16  C   UNL     1      -9.933  13.220  67.899  1.00  0.00    -0.233 A  
HETATM   17  O   UNL     1      -9.054  13.563  68.899  1.00  0.00    -0.387 OA 
HETATM   18  C   UNL     1      -9.662  13.747  66.638  1.00  0.00    -0.289 A  
HETATM   19  H   UNL     1      -8.303  14.127  68.761  1.00  0.00     0.000 HD 
HETATM   20  C   UNL     1     -10.499  13.476  65.567  1.00  0.00    -0.299 A  
HETATM   21  O   UNL     1      -8.556  14.531  66.440  1.00  0.00    -0.445 OA 
HETATM   22  H   UNL     1      -8.372  14.890  65.579  1.00  0.00     0.000 HD 
HETATM   23  C   UNL     1     -11.621  12.683  65.740  1.00  0.00    -0.431 A  
HETATM   24  O   UNL     1     -10.222  13.994  64.334  1.00  0.00    -0.659 OA 
HETATM   25  H   UNL     1     -10.795  13.809  63.599  1.00  0.00     0.000 HD 
HETATM   26  C   UNL     1     -11.893  12.142  67.004  1.00  0.00    -0.288 A  
ENDBRANCH  14  15
ENDBRANCH  12  14
ENDBRANCH  11  12
ENDBRANCH   3   8
TORSDOF 5
ENDMDL
MODEL      126
REMARK 921   NORMALIZED FREE ENERGY PREDICTED BY IDOCK:   -4.69 KCAL/MOL
REMARK 922        TOTAL FREE ENERGY PREDICTED BY IDOCK:   -6.51 KCAL/MOL
REMARK 923 INTER-LIGAND FREE ENERGY PREDICTED BY IDOCK:   -6.20 KCAL/MOL
REMARK 924 INTRA-LIGAND FREE ENERGY PREDICTED BY IDOCK:   -0.30 KCAL/MOL
REMARK 927      BINDING AFFINITY PREDICTED BY RF-SCORE:    0.00 PKD
ROOT
HETATM    1  N   UNL     1     -13.210   9.644  70.136  1.00  0.00    -0.040 NA 
HETATM    2  H1  UNL     1     -13.086   9.343  69.169  1.00  0.00     0.000 HD 
HETATM    3  CA  UNL     1     -12.875  11.087  70.300  1.00  0.00    -0.110 C  
HETATM    4  H2  UNL     1     -14.150   9.437  70.475  1.00  0.00     0.000 HD 
ENDROOT
BRANCH   3   5
HETATM    5  C   UNL     1     -13.062  11.540  71.754  1.00  0.00    -0.398 C  
HETATM    6  H   UNL     1     -13.463  13.222  72.691  1.00  0.00     0.000 HD 
HETATM    7  O   UNL     1     -13.347  12.942  71.792  1.00  0.00    -0.420 OA 
ENDBRANCH   3   5
BRANCH   3   8
HETATM    8  C   UNL     1     -11.446  11.364  69.824  1.00  0.00    -0.300 C  
HETATM    9  O   UNL     1     -10.524  10.554  69.906  1.00  0.00    -0.241 OA 
HETATM   10  H   UNL     1     -12.065  13.297  69.296  1.00  0.00     0.000 HD 
HETATM   11  N   UNL     1     -11.273  12.657  69.343  1.00  0.00    -0.186 N  
BRANCH  11  12
HETATM   12  N   UNL     1      -9.996  13.077  68.919  1.00  0.00    -0.424 NA 
HETATM   13  H   UNL     1      -9.257  12.527  69.357  1.00  0.00     0.000 HD 
BRANCH  12  14
HETATM   14  C   UNL     1      -9.885  13.058  67.449  1.00  0.00    -0.215 C  
BRANCH  14  15
HETATM   15  C   UNL     1     -10.169  14.414  66.840  1.00  0.00    -0.265 A  
HETATM   16  C   UNL     1     -10.754  14.590  65.577  1.00  0.00    -0.341 A  
HETATM   17  O   UNL     1     -11.140  13.543  64.774  1.00  0.00    -0.326 OA 
HETATM   18  C   UNL     1     -10.983  15.867  65.072  1.00  0.00    -0.412 A  
HETATM   19  H   UNL     1     -11.536  13.661  63.919  1.00  0.00     0.000 HD 
HETATM   20  C   UNL     1     -10.614  16.989  65.797  1.00  0.00    -0.211 A  
HETATM   21  O   UNL     1     -11.588  16.030  63.854  1.00  0.00    -1.193 OA 
HETATM   22  H   UNL     1     -11.745  16.902  63.509  1.00  0.00     0.000 HD 
HETATM   23  C   UNL     1     -10.004  16.851  67.034  1.00  0.00    -0.279 A  
HETATM   24  O   UNL     1     -10.846  18.237  65.294  1.00  0.00    -0.629 OA 
HETATM   25  H   UNL     1     -10.593  19.006  65.792  1.00  0.00     0.000 HD 
HETATM   26  C   UNL     1      -9.781  15.568  67.552  1.00  0.00    -0.215 A  
ENDBRANCH  14  15
ENDBRANCH  12  14
ENDBRANCH  11  12
ENDBRANCH   3   8
TORSDOF 5
ENDMDL
MODEL      127
REMARK 921   NORMALIZED FREE ENERGY PREDICTED BY IDOCK:   -4.68 KCAL/MOL
REMARK 922        TOTAL FREE ENERGY PREDICTED BY IDOCK:   -6.49 KCAL/MOL
REMARK 923 INTER-LIGAND FREE ENERGY PREDICTED BY IDOCK:   -5.73 KCAL/MOL
REMARK 924 INTRA-LIGAND FREE ENERGY PREDICTED BY IDOCK:   -0.77 KCAL/MOL
REMARK 927      BINDING AFFINITY PREDICTED BY RF-SCORE:    0.00 PKD
ROOT
HETATM    1  N   UNL     1      -9.392   6.871  66.023  1.00  0.00    -0.382 NA 
HETATM    2  H1  UNL     1     -10.153   6.615  66.653  1.00  0.00     0.000 HD 
HETATM    3  CA  UNL     1      -8.589   7.999  66.575  1.00  0.00    -0.140 C  
HETATM    4  H2  UNL     1      -8.805   6.067  65.799  1.00  0.00     0.000 HD 
ENDROOT
BRANCH   3   5
HETATM    5  C   UNL     1      -7.445   8.383  65.628  1.00  0.00    -0.081 C  
HETATM    6  H   UNL     1      -7.162   8.475  63.683  1.00  0.00     0.000 HD 
HETATM    7  O   UNL     1      -7.870   8.237  64.270  1.00  0.00    -0.129 OA 
ENDBRANCH   3   5
BRANCH   3   8
HETATM    8  C   UNL     1      -9.485   9.206  66.864  1.00  0.00    -0.171 C  
HETATM    9  O   UNL     1      -9.201  10.363  66.554  1.00  0.00    -0.156 OA 
HETATM   10  H   UNL     1     -10.828   7.903  67.810  1.00  0.00     0.000 HD 
HETATM   11  N   UNL     1     -10.634   8.876  67.572  1.00  0.00    -0.269 N  
BRANCH  11  12
HETATM   12  N   UNL     1     -11.531   9.892  67.958  1.00  0.00    -0.581 NA 
HETATM   13  H   UNL     1     -12.500   9.594  67.857  1.00  0.00     0.000 HD 
BRANCH  12  14
HETATM   14  C   UNL     1     -11.250  10.363  69.327  1.00  0.00    -0.248 C  
BRANCH  14  15
HETATM   15  C   UNL     1     -11.738  11.779  69.552  1.00  0.00    -0.408 A  
HETATM   16  C   UNL     1     -11.661  12.788  68.582  1.00  0.00    -0.324 A  
HETATM   17  O   UNL     1     -11.147  12.586  67.323  1.00  0.00    -0.251 OA 
HETATM   18  C   UNL     1     -12.123  14.073  68.856  1.00  0.00    -0.316 A  
HETATM   19  H   UNL     1     -11.096  13.269  66.665  1.00  0.00     0.000 HD 
HETATM   20  C   UNL     1     -12.643  14.384  70.103  1.00  0.00    -0.286 A  
HETATM   21  O   UNL     1     -12.079  15.044  67.891  1.00  0.00    -0.520 OA 
HETATM   22  H   UNL     1     -12.394  15.921  68.078  1.00  0.00     0.000 HD 
HETATM   23  C   UNL     1     -12.703  13.419  71.095  1.00  0.00    -0.411 A  
HETATM   24  O   UNL     1     -13.096  15.647  70.360  1.00  0.00    -0.690 OA 
HETATM   25  H   UNL     1     -13.453  15.860  71.215  1.00  0.00     0.000 HD 
HETATM   26  C   UNL     1     -12.249  12.122  70.821  1.00  0.00    -0.367 A  
ENDBRANCH  14  15
ENDBRANCH  12  14
ENDBRANCH  11  12
ENDBRANCH   3   8
TORSDOF 5
ENDMDL
MODEL      128
REMARK 921   NORMALIZED FREE ENERGY PREDICTED BY IDOCK:   -4.66 KCAL/MOL
REMARK 922        TOTAL FREE ENERGY PREDICTED BY IDOCK:   -6.47 KCAL/MOL
REMARK 923 INTER-LIGAND FREE ENERGY PREDICTED BY IDOCK:   -6.18 KCAL/MOL
REMARK 924 INTRA-LIGAND FREE ENERGY PREDICTED BY IDOCK:   -0.30 KCAL/MOL
REMARK 927      BINDING AFFINITY PREDICTED BY RF-SCORE:    0.00 PKD
ROOT
HETATM    1  N   UNL     1      -8.220   8.106  67.017  1.00  0.00    -0.114 NA 
HETATM    2  H1  UNL     1      -7.845   8.797  66.367  1.00  0.00     0.000 HD 
HETATM    3  CA  UNL     1      -9.682   7.907  66.810  1.00  0.00    -0.234 C  
HETATM    4  H2  UNL     1      -7.709   7.224  66.962  1.00  0.00     0.000 HD 
ENDROOT
BRANCH   3   5
HETATM    5  C   UNL     1     -10.247   6.868  67.787  1.00  0.00    -0.180 C  
HETATM    6  H   UNL     1     -11.184   5.143  67.664  1.00  0.00     0.000 HD 
HETATM    7  O   UNL     1     -10.835   5.786  67.059  1.00  0.00    -0.291 OA 
ENDBRANCH   3   5
BRANCH   3   8
HETATM    8  C   UNL     1     -10.430   9.237  66.939  1.00  0.00    -0.214 C  
HETATM    9  O   UNL     1     -10.357  10.150  66.117  1.00  0.00    -0.227 OA 
HETATM   10  H   UNL     1     -11.188   8.559  68.773  1.00  0.00     0.000 HD 
HETATM   11  N   UNL     1     -11.158   9.341  68.118  1.00  0.00     0.009 N  
BRANCH  11  12
HETATM   12  N   UNL     1     -11.856  10.532  68.404  1.00  0.00    -0.769 NA 
HETATM   13  H   UNL     1     -12.735  10.582  67.890  1.00  0.00     0.000 HD 
BRANCH  12  14
HETATM   14  C   UNL     1     -12.067  10.696  69.854  1.00  0.00    -0.299 C  
BRANCH  14  15
HETATM   15  C   UNL     1     -12.262  12.147  70.239  1.00  0.00    -0.344 A  
HETATM   16  C   UNL     1     -12.931  12.557  71.401  1.00  0.00    -0.251 A  
HETATM   17  O   UNL     1     -13.463  11.677  72.314  1.00  0.00    -0.610 OA 
HETATM   18  C   UNL     1     -13.082  13.910  71.694  1.00  0.00    -0.367 A  
HETATM   19  H   UNL     1     -13.916  11.954  73.102  1.00  0.00     0.000 HD 
HETATM   20  C   UNL     1     -12.596  14.877  70.828  1.00  0.00    -0.354 A  
HETATM   21  O   UNL     1     -13.704  14.302  72.850  1.00  0.00    -0.629 OA 
HETATM   22  H   UNL     1     -13.807  15.225  73.050  1.00  0.00     0.000 HD 
HETATM   23  C   UNL     1     -11.960  14.507  69.655  1.00  0.00    -0.375 A  
HETATM   24  O   UNL     1     -12.747  16.201  71.126  1.00  0.00    -0.545 OA 
HETATM   25  H   UNL     1     -12.414  16.864  70.532  1.00  0.00     0.000 HD 
HETATM   26  C   UNL     1     -11.796  13.147  69.360  1.00  0.00    -0.383 A  
ENDBRANCH  14  15
ENDBRANCH  12  14
ENDBRANCH  11  12
ENDBRANCH   3   8
TORSDOF 5
ENDMDL
MODEL      129
REMARK 921   NORMALIZED FREE ENERGY PREDICTED BY IDOCK:   -4.62 KCAL/MOL
REMARK 922        TOTAL FREE ENERGY PREDICTED BY IDOCK:   -6.42 KCAL/MOL
REMARK 923 INTER-LIGAND FREE ENERGY PREDICTED BY IDOCK:   -5.98 KCAL/MOL
REMARK 924 INTRA-LIGAND FREE ENERGY PREDICTED BY IDOCK:   -0.44 KCAL/MOL
REMARK 927      BINDING AFFINITY PREDICTED BY RF-SCORE:    0.00 PKD
ROOT
HETATM    1  N   UNL     1      -8.427  18.013  66.581  1.00  0.00    -0.254 NA 
HETATM    2  H1  UNL     1      -7.873  17.168  66.435  1.00  0.00     0.000 HD 
HETATM    3  CA  UNL     1      -8.735  18.215  68.025  1.00  0.00    -0.269 C  
HETATM    4  H2  UNL     1      -7.973  18.832  66.176  1.00  0.00     0.000 HD 
ENDROOT
BRANCH   3   5
HETATM    5  C   UNL     1      -9.567  19.485  68.244  1.00  0.00    -0.379 C  
HETATM    6  H   UNL     1     -10.381  20.878  67.119  1.00  0.00     0.000 HD 
HETATM    7  O   UNL     1      -9.866  20.092  66.983  1.00  0.00    -0.401 OA 
ENDBRANCH   3   5
BRANCH   3   8
HETATM    8  C   UNL     1      -9.453  16.989  68.598  1.00  0.00    -0.274 C  
HETATM    9  O   UNL     1      -8.886  16.084  69.209  1.00  0.00    -0.248 OA 
HETATM   10  H   UNL     1     -11.238  17.738  67.793  1.00  0.00     0.000 HD 
HETATM   11  N   UNL     1     -10.811  16.966  68.305  1.00  0.00    -0.372 N  
BRANCH  11  12
HETATM   12  N   UNL     1     -11.595  15.871  68.720  1.00  0.00    -0.390 NA 
HETATM   13  H   UNL     1     -12.468  16.177  69.148  1.00  0.00     0.000 HD 
BRANCH  12  14
HETATM   14  C   UNL     1     -11.836  14.932  67.610  1.00  0.00    -0.244 C  
BRANCH  14  15
HETATM   15  C   UNL     1     -11.689  13.489  68.043  1.00  0.00    -0.394 A  
HETATM   16  C   UNL     1     -11.953  13.040  69.345  1.00  0.00    -0.281 A  
HETATM   17  O   UNL     1     -12.387  13.868  70.354  1.00  0.00    -0.332 OA 
HETATM   18  C   UNL     1     -11.792  11.698  69.681  1.00  0.00    -0.352 A  
HETATM   19  H   UNL     1     -12.567  13.564  71.236  1.00  0.00     0.000 HD 
HETATM   20  C   UNL     1     -11.342  10.786  68.739  1.00  0.00    -0.288 A  
HETATM   21  O   UNL     1     -12.088  11.261  70.945  1.00  0.00    -0.348 OA 
HETATM   22  H   UNL     1     -11.978  10.345  71.173  1.00  0.00     0.000 HD 
HETATM   23  C   UNL     1     -11.040  11.202  67.453  1.00  0.00    -0.370 A  
HETATM   24  O   UNL     1     -11.190   9.472  69.078  1.00  0.00    -0.433 OA 
HETATM   25  H   UNL     1     -10.881   8.846  68.432  1.00  0.00     0.000 HD 
HETATM   26  C   UNL     1     -11.210  12.549  67.107  1.00  0.00    -0.352 A  
ENDBRANCH  14  15
ENDBRANCH  12  14
ENDBRANCH  11  12
ENDBRANCH   3   8
TORSDOF 5
ENDMDL
MODEL      130
REMARK 921   NORMALIZED FREE ENERGY PREDICTED BY IDOCK:   -4.62 KCAL/MOL
REMARK 922        TOTAL FREE ENERGY PREDICTED BY IDOCK:   -6.41 KCAL/MOL
REMARK 923 INTER-LIGAND FREE ENERGY PREDICTED BY IDOCK:   -5.61 KCAL/MOL
REMARK 924 INTRA-LIGAND FREE ENERGY PREDICTED BY IDOCK:   -0.80 KCAL/MOL
REMARK 927      BINDING AFFINITY PREDICTED BY RF-SCORE:    0.00 PKD
ROOT
HETATM    1  N   UNL     1     -12.394   5.483  72.847  1.00  0.00    -0.436 NA 
HETATM    2  H1  UNL     1     -13.260   5.957  73.107  1.00  0.00     0.000 HD 
HETATM    3  CA  UNL     1     -11.355   6.458  72.410  1.00  0.00    -0.287 C  
HETATM    4  H2  UNL     1     -12.054   4.885  73.601  1.00  0.00     0.000 HD 
ENDROOT
BRANCH   3   5
HETATM    5  C   UNL     1     -10.054   5.746  72.019  1.00  0.00    -0.185 C  
HETATM    6  H   UNL     1      -8.280   5.457  72.820  1.00  0.00     0.000 HD 
HETATM    7  O   UNL     1      -9.086   5.897  73.062  1.00  0.00    -0.129 OA 
ENDBRANCH   3   5
BRANCH   3   8
HETATM    8  C   UNL     1     -11.874   7.315  71.252  1.00  0.00    -0.307 C  
HETATM    9  O   UNL     1     -11.825   6.976  70.070  1.00  0.00    -0.194 OA 
HETATM   10  H   UNL     1     -12.375   8.792  72.653  1.00  0.00     0.000 HD 
HETATM   11  N   UNL     1     -12.356   8.552  71.662  1.00  0.00    -0.311 N  
BRANCH  11  12
HETATM   12  N   UNL     1     -12.818   9.473  70.701  1.00  0.00    -0.527 NA 
HETATM   13  H   UNL     1     -13.802   9.698  70.841  1.00  0.00     0.000 HD 
BRANCH  12  14
HETATM   14  C   UNL     1     -11.984  10.689  70.678  1.00  0.00    -0.367 C  
BRANCH  14  15
HETATM   15  C   UNL     1     -11.711  11.165  69.267  1.00  0.00    -0.401 A  
HETATM   16  C   UNL     1     -11.149  10.353  68.271  1.00  0.00    -0.281 A  
HETATM   17  O   UNL     1     -10.804   9.038  68.476  1.00  0.00    -0.409 OA 
HETATM   18  C   UNL     1     -10.917  10.856  66.993  1.00  0.00    -0.247 A  
HETATM   19  H   UNL     1     -10.424   8.488  67.801  1.00  0.00     0.000 HD 
HETATM   20  C   UNL     1     -11.214  12.175  66.689  1.00  0.00    -0.324 A  
HETATM   21  O   UNL     1     -10.403  10.046  66.015  1.00  0.00    -0.231 OA 
HETATM   22  H   UNL     1     -10.245  10.388  65.143  1.00  0.00     0.000 HD 
HETATM   23  C   UNL     1     -11.739  13.013  67.659  1.00  0.00    -0.415 A  
HETATM   24  O   UNL     1     -10.986  12.656  65.432  1.00  0.00    -0.276 OA 
HETATM   25  H   UNL     1     -11.190  13.561  65.224  1.00  0.00     0.000 HD 
HETATM   26  C   UNL     1     -11.984  12.510  68.944  1.00  0.00    -0.282 A  
ENDBRANCH  14  15
ENDBRANCH  12  14
ENDBRANCH  11  12
ENDBRANCH   3   8
TORSDOF 5
ENDMDL
MODEL      131
REMARK 921   NORMALIZED FREE ENERGY PREDICTED BY IDOCK:   -4.60 KCAL/MOL
REMARK 922        TOTAL FREE ENERGY PREDICTED BY IDOCK:   -6.39 KCAL/MOL
REMARK 923 INTER-LIGAND FREE ENERGY PREDICTED BY IDOCK:   -6.11 KCAL/MOL
REMARK 924 INTRA-LIGAND FREE ENERGY PREDICTED BY IDOCK:   -0.29 KCAL/MOL
REMARK 927      BINDING AFFINITY PREDICTED BY RF-SCORE:    0.00 PKD
ROOT
HETATM    1  N   UNL     1     -11.731  11.343  66.996  1.00  0.00    -0.508 NA 
HETATM    2  H1  UNL     1     -12.657  11.652  67.294  1.00  0.00     0.000 HD 
HETATM    3  CA  UNL     1     -10.677  12.307  67.422  1.00  0.00    -0.230 C  
HETATM    4  H2  UNL     1     -11.529  10.397  67.322  1.00  0.00     0.000 HD 
ENDROOT
BRANCH   3   5
HETATM    5  C   UNL     1      -9.285  11.843  66.974  1.00  0.00    -0.191 C  
HETATM    6  H   UNL     1      -8.421  10.136  66.515  1.00  0.00     0.000 HD 
HETATM    7  O   UNL     1      -9.283  10.423  66.792  1.00  0.00    -0.152 OA 
ENDBRANCH   3   5
BRANCH   3   8
HETATM    8  C   UNL     1     -10.981  13.708  66.886  1.00  0.00    -0.289 C  
HETATM    9  O   UNL     1     -11.170  13.964  65.697  1.00  0.00    -0.301 OA 
HETATM   10  H   UNL     1     -10.799  14.429  68.846  1.00  0.00     0.000 HD 
HETATM   11  N   UNL     1     -10.963  14.686  67.873  1.00  0.00    -0.269 N  
BRANCH  11  12
HETATM   12  N   UNL     1     -11.171  16.035  67.521  1.00  0.00    -0.207 NA 
HETATM   13  H   UNL     1     -12.116  16.188  67.172  1.00  0.00     0.000 HD 
BRANCH  12  14
HETATM   14  C   UNL     1     -10.857  16.937  68.644  1.00  0.00    -0.314 C  
BRANCH  14  15
HETATM   15  C   UNL     1      -9.966  18.085  68.219  1.00  0.00    -0.374 A  
HETATM   16  C   UNL     1      -8.570  18.074  68.356  1.00  0.00    -0.290 A  
HETATM   17  O   UNL     1      -7.872  17.011  68.879  1.00  0.00    -0.249 OA 
HETATM   18  C   UNL     1      -7.809  19.167  67.951  1.00  0.00    -0.285 A  
HETATM   19  H   UNL     1      -6.927  17.003  68.971  1.00  0.00     0.000 HD 
HETATM   20  C   UNL     1      -8.419  20.296  67.427  1.00  0.00    -0.339 A  
HETATM   21  O   UNL     1      -6.443  19.134  68.053  1.00  0.00    -0.222 OA 
HETATM   22  H   UNL     1      -5.923  19.880  67.776  1.00  0.00     0.000 HD 
HETATM   23  C   UNL     1      -9.798  20.353  67.308  1.00  0.00    -0.597 A  
HETATM   24  O   UNL     1      -7.662  21.361  67.029  1.00  0.00    -0.772 OA 
HETATM   25  H   UNL     1      -8.081  22.135  66.670  1.00  0.00     0.000 HD 
HETATM   26  C   UNL     1     -10.568  19.252  67.705  1.00  0.00    -0.516 A  
ENDBRANCH  14  15
ENDBRANCH  12  14
ENDBRANCH  11  12
ENDBRANCH   3   8
TORSDOF 5
ENDMDL
MODEL      132
REMARK 921   NORMALIZED FREE ENERGY PREDICTED BY IDOCK:   -4.58 KCAL/MOL
REMARK 922        TOTAL FREE ENERGY PREDICTED BY IDOCK:   -6.37 KCAL/MOL
REMARK 923 INTER-LIGAND FREE ENERGY PREDICTED BY IDOCK:   -6.23 KCAL/MOL
REMARK 924 INTRA-LIGAND FREE ENERGY PREDICTED BY IDOCK:   -0.14 KCAL/MOL
REMARK 927      BINDING AFFINITY PREDICTED BY RF-SCORE:    0.00 PKD
ROOT
HETATM    1  N   UNL     1      -6.819  17.418  67.523  1.00  0.00    -0.152 NA 
HETATM    2  H1  UNL     1      -6.912  16.653  68.193  1.00  0.00     0.000 HD 
HETATM    3  CA  UNL     1      -8.127  18.092  67.288  1.00  0.00    -0.225 C  
HETATM    4  H2  UNL     1      -6.100  18.083  67.811  1.00  0.00     0.000 HD 
ENDROOT
BRANCH   3   5
HETATM    5  C   UNL     1      -7.988  19.241  66.281  1.00  0.00    -0.308 C  
HETATM    6  H   UNL     1      -6.843  19.667  64.740  1.00  0.00     0.000 HD 
HETATM    7  O   UNL     1      -6.929  18.956  65.363  1.00  0.00    -0.464 OA 
ENDBRANCH   3   5
BRANCH   3   8
HETATM    8  C   UNL     1      -9.177  17.081  66.818  1.00  0.00    -0.252 C  
HETATM    9  O   UNL     1      -9.251  16.653  65.667  1.00  0.00    -0.491 OA 
HETATM   10  H   UNL     1      -9.988  17.119  68.751  1.00  0.00     0.000 HD 
HETATM   11  N   UNL     1     -10.086  16.737  67.810  1.00  0.00    -0.272 N  
BRANCH  11  12
HETATM   12  N   UNL     1     -11.145  15.856  67.511  1.00  0.00    -0.281 NA 
HETATM   13  H   UNL     1     -11.304  15.792  66.506  1.00  0.00     0.000 HD 
BRANCH  12  14
HETATM   14  C   UNL     1     -10.924  14.527  68.109  1.00  0.00    -0.251 C  
BRANCH  14  15
HETATM   15  C   UNL     1     -11.652  14.369  69.427  1.00  0.00    -0.349 A  
HETATM   16  C   UNL     1     -12.018  13.128  69.966  1.00  0.00    -0.321 A  
HETATM   17  O   UNL     1     -11.737  11.928  69.354  1.00  0.00    -0.292 OA 
HETATM   18  C   UNL     1     -12.693  13.052  71.182  1.00  0.00    -0.283 A  
HETATM   19  H   UNL     1     -11.985  11.087  69.720  1.00  0.00     0.000 HD 
HETATM   20  C   UNL     1     -13.038  14.206  71.869  1.00  0.00    -0.375 A  
HETATM   21  O   UNL     1     -13.014  11.834  71.720  1.00  0.00    -0.423 OA 
HETATM   22  H   UNL     1     -13.474  11.783  72.550  1.00  0.00     0.000 HD 
HETATM   23  C   UNL     1     -12.720  15.449  71.349  1.00  0.00    -0.488 A  
HETATM   24  O   UNL     1     -13.696  14.120  73.062  1.00  0.00    -0.617 OA 
HETATM   25  H   UNL     1     -13.933  14.911  73.534  1.00  0.00     0.000 HD 
HETATM   26  C   UNL     1     -12.032  15.531  70.131  1.00  0.00    -0.389 A  
ENDBRANCH  14  15
ENDBRANCH  12  14
ENDBRANCH  11  12
ENDBRANCH   3   8
TORSDOF 5
ENDMDL
MODEL      133
REMARK 921   NORMALIZED FREE ENERGY PREDICTED BY IDOCK:   -4.57 KCAL/MOL
REMARK 922        TOTAL FREE ENERGY PREDICTED BY IDOCK:   -6.35 KCAL/MOL
REMARK 923 INTER-LIGAND FREE ENERGY PREDICTED BY IDOCK:   -6.25 KCAL/MOL
REMARK 924 INTRA-LIGAND FREE ENERGY PREDICTED BY IDOCK:   -0.10 KCAL/MOL
REMARK 927      BINDING AFFINITY PREDICTED BY RF-SCORE:    0.00 PKD
ROOT
HETATM    1  N   UNL     1      -9.419  16.773  68.753  1.00  0.00    -0.253 NA 
HETATM    2  H1  UNL     1     -10.380  16.491  68.946  1.00  0.00     0.000 HD 
HETATM    3  CA  UNL     1      -9.370  17.890  67.767  1.00  0.00    -0.262 C  
HETATM    4  H2  UNL     1      -8.918  17.008  69.611  1.00  0.00     0.000 HD 
ENDROOT
BRANCH   3   5
HETATM    5  C   UNL     1      -7.925  18.314  67.477  1.00  0.00    -0.231 C  
HETATM    6  H   UNL     1      -6.391  18.983  68.512  1.00  0.00     0.000 HD 
HETATM    7  O   UNL     1      -7.286  18.721  68.691  1.00  0.00    -0.283 OA 
ENDBRANCH   3   5
BRANCH   3   8
HETATM    8  C   UNL     1     -10.091  17.497  66.475  1.00  0.00    -0.331 C  
HETATM    9  O   UNL     1     -10.558  18.307  65.674  1.00  0.00    -0.614 OA 
HETATM   10  H   UNL     1      -9.826  15.488  67.012  1.00  0.00     0.000 HD 
HETATM   11  N   UNL     1     -10.226  16.123  66.321  1.00  0.00    -0.304 N  
BRANCH  11  12
HETATM   12  N   UNL     1     -10.917  15.611  65.205  1.00  0.00    -0.400 NA 
HETATM   13  H   UNL     1     -10.866  16.247  64.409  1.00  0.00     0.000 HD 
BRANCH  12  14
HETATM   14  C   UNL     1     -10.440  14.262  64.850  1.00  0.00    -0.430 C  
BRANCH  14  15
HETATM   15  C   UNL     1     -10.324  13.363  66.063  1.00  0.00    -0.297 A  
HETATM   16  C   UNL     1     -11.390  12.611  66.576  1.00  0.00    -0.326 A  
HETATM   17  O   UNL     1     -12.647  12.607  66.017  1.00  0.00    -0.468 OA 
HETATM   18  C   UNL     1     -11.217  11.808  67.701  1.00  0.00    -0.281 A  
HETATM   19  H   UNL     1     -13.369  12.098  66.364  1.00  0.00     0.000 HD 
HETATM   20  C   UNL     1      -9.993  11.757  68.348  1.00  0.00    -0.202 A  
HETATM   21  O   UNL     1     -12.254  11.048  68.173  1.00  0.00    -0.765 OA 
HETATM   22  H   UNL     1     -12.136  10.500  68.941  1.00  0.00     0.000 HD 
HETATM   23  C   UNL     1      -8.927  12.512  67.887  1.00  0.00    -0.188 A  
HETATM   24  O   UNL     1      -9.833  10.963  69.448  1.00  0.00    -0.399 OA 
HETATM   25  H   UNL     1      -8.993  10.928  69.892  1.00  0.00     0.000 HD 
HETATM   26  C   UNL     1      -9.093  13.314  66.750  1.00  0.00    -0.216 A  
ENDBRANCH  14  15
ENDBRANCH  12  14
ENDBRANCH  11  12
ENDBRANCH   3   8
TORSDOF 5
ENDMDL
MODEL      134
REMARK 921   NORMALIZED FREE ENERGY PREDICTED BY IDOCK:   -4.56 KCAL/MOL
REMARK 922        TOTAL FREE ENERGY PREDICTED BY IDOCK:   -6.34 KCAL/MOL
REMARK 923 INTER-LIGAND FREE ENERGY PREDICTED BY IDOCK:   -5.87 KCAL/MOL
REMARK 924 INTRA-LIGAND FREE ENERGY PREDICTED BY IDOCK:   -0.48 KCAL/MOL
REMARK 927      BINDING AFFINITY PREDICTED BY RF-SCORE:    0.00 PKD
ROOT
HETATM    1  N   UNL     1      -9.649  14.576  65.378  1.00  0.00    -0.516 NA 
HETATM    2  H1  UNL     1      -9.047  14.624  66.200  1.00  0.00     0.000 HD 
HETATM    3  CA  UNL     1     -11.047  14.976  65.708  1.00  0.00    -0.346 C  
HETATM    4  H2  UNL     1      -9.274  15.129  64.606  1.00  0.00     0.000 HD 
ENDROOT
BRANCH   3   5
HETATM    5  C   UNL     1     -11.952  14.905  64.471  1.00  0.00    -0.410 C  
HETATM    6  H   UNL     1     -12.556  16.138  63.063  1.00  0.00     0.000 HD 
HETATM    7  O   UNL     1     -11.996  16.182  63.828  1.00  0.00    -0.926 OA 
ENDBRANCH   3   5
BRANCH   3   8
HETATM    8  C   UNL     1     -11.602  14.105  66.838  1.00  0.00    -0.391 C  
HETATM    9  O   UNL     1     -11.919  14.537  67.946  1.00  0.00    -0.343 OA 
HETATM   10  H   UNL     1     -11.380  12.442  65.581  1.00  0.00     0.000 HD 
HETATM   11  N   UNL     1     -11.656  12.755  66.512  1.00  0.00    -0.356 N  
BRANCH  11  12
HETATM   12  N   UNL     1     -12.095  11.823  67.473  1.00  0.00    -0.550 NA 
HETATM   13  H   UNL     1     -13.066  11.554  67.317  1.00  0.00     0.000 HD 
BRANCH  12  14
HETATM   14  C   UNL     1     -11.209  10.645  67.521  1.00  0.00    -0.253 C  
BRANCH  14  15
HETATM   15  C   UNL     1      -9.774  10.999  67.193  1.00  0.00    -0.198 A  
HETATM   16  C   UNL     1      -9.022  11.937  67.916  1.00  0.00    -0.179 A  
HETATM   17  O   UNL     1      -9.513  12.618  69.005  1.00  0.00    -0.377 OA 
HETATM   18  C   UNL     1      -7.707  12.221  67.556  1.00  0.00    -0.158 A  
HETATM   19  H   UNL     1      -9.003  13.252  69.494  1.00  0.00     0.000 HD 
HETATM   20  C   UNL     1      -7.126  11.601  66.462  1.00  0.00     0.049 A  
HETATM   21  O   UNL     1      -6.967  13.111  68.290  1.00  0.00    -0.084 OA 
HETATM   22  H   UNL     1      -6.070  13.305  68.045  1.00  0.00     0.000 HD 
HETATM   23  C   UNL     1      -7.851  10.694  65.707  1.00  0.00    -0.141 A  
HETATM   24  O   UNL     1      -5.834  11.884  66.120  1.00  0.00    -0.488 OA 
HETATM   25  H   UNL     1      -5.435  11.458  65.370  1.00  0.00     0.000 HD 
HETATM   26  C   UNL     1      -9.171  10.396  66.070  1.00  0.00    -0.200 A  
ENDBRANCH  14  15
ENDBRANCH  12  14
ENDBRANCH  11  12
ENDBRANCH   3   8
TORSDOF 5
ENDMDL
MODEL      135
REMARK 921   NORMALIZED FREE ENERGY PREDICTED BY IDOCK:   -4.56 KCAL/MOL
REMARK 922        TOTAL FREE ENERGY PREDICTED BY IDOCK:   -6.34 KCAL/MOL
REMARK 923 INTER-LIGAND FREE ENERGY PREDICTED BY IDOCK:   -6.00 KCAL/MOL
REMARK 924 INTRA-LIGAND FREE ENERGY PREDICTED BY IDOCK:   -0.33 KCAL/MOL
REMARK 927      BINDING AFFINITY PREDICTED BY RF-SCORE:    0.00 PKD
ROOT
HETATM    1  N   UNL     1     -11.433   4.687  65.361  1.00  0.00    -1.028 NA 
HETATM    2  H1  UNL     1     -12.190   4.212  65.854  1.00  0.00     0.000 HD 
HETATM    3  CA  UNL     1     -10.130   4.491  66.057  1.00  0.00    -0.259 C  
HETATM    4  H2  UNL     1     -11.384   4.400  64.383  1.00  0.00     0.000 HD 
ENDROOT
BRANCH   3   5
HETATM    5  C   UNL     1      -8.991   5.205  65.317  1.00  0.00    -0.142 C  
HETATM    6  H   UNL     1      -7.044   5.394  65.521  1.00  0.00     0.000 HD 
HETATM    7  O   UNL     1      -7.748   4.952  65.979  1.00  0.00    -0.089 OA 
ENDBRANCH   3   5
BRANCH   3   8
HETATM    8  C   UNL     1     -10.217   4.968  67.509  1.00  0.00    -0.129 C  
HETATM    9  O   UNL     1      -9.820   4.314  68.473  1.00  0.00    -0.133 OA 
HETATM   10  H   UNL     1     -11.168   6.703  66.815  1.00  0.00     0.000 HD 
HETATM   11  N   UNL     1     -10.852   6.197  67.642  1.00  0.00    -0.312 N  
BRANCH  11  12
HETATM   12  N   UNL     1     -11.056   6.740  68.926  1.00  0.00    -0.480 NA 
HETATM   13  H   UNL     1     -10.824   6.068  69.658  1.00  0.00     0.000 HD 
BRANCH  12  14
HETATM   14  C   UNL     1     -10.318   8.004  69.098  1.00  0.00    -0.220 C  
BRANCH  14  15
HETATM   15  C   UNL     1     -11.107   9.020  69.897  1.00  0.00    -0.155 A  
HETATM   16  C   UNL     1     -11.039  10.403  69.675  1.00  0.00    -0.276 A  
HETATM   17  O   UNL     1     -10.255  10.971  68.698  1.00  0.00    -0.183 OA 
HETATM   18  C   UNL     1     -11.787  11.284  70.451  1.00  0.00    -0.350 A  
HETATM   19  H   UNL     1     -10.209  11.908  68.548  1.00  0.00     0.000 HD 
HETATM   20  C   UNL     1     -12.595  10.812  71.473  1.00  0.00    -0.395 A  
HETATM   21  O   UNL     1     -11.743  12.631  70.203  1.00  0.00    -0.497 OA 
HETATM   22  H   UNL     1     -12.254  13.233  70.733  1.00  0.00     0.000 HD 
HETATM   23  C   UNL     1     -12.661   9.455  71.740  1.00  0.00    -0.470 A  
HETATM   24  O   UNL     1     -13.328  11.685  72.226  1.00  0.00    -0.625 OA 
HETATM   25  H   UNL     1     -13.882  11.361  72.927  1.00  0.00     0.000 HD 
HETATM   26  C   UNL     1     -11.918   8.562  70.957  1.00  0.00    -0.260 A  
ENDBRANCH  14  15
ENDBRANCH  12  14
ENDBRANCH  11  12
ENDBRANCH   3   8
TORSDOF 5
ENDMDL
MODEL      136
REMARK 921   NORMALIZED FREE ENERGY PREDICTED BY IDOCK:   -4.54 KCAL/MOL
REMARK 922        TOTAL FREE ENERGY PREDICTED BY IDOCK:   -6.31 KCAL/MOL
REMARK 923 INTER-LIGAND FREE ENERGY PREDICTED BY IDOCK:   -5.95 KCAL/MOL
REMARK 924 INTRA-LIGAND FREE ENERGY PREDICTED BY IDOCK:   -0.37 KCAL/MOL
REMARK 927      BINDING AFFINITY PREDICTED BY RF-SCORE:    0.00 PKD
ROOT
HETATM    1  N   UNL     1     -12.717  10.479  69.652  1.00  0.00    -0.616 NA 
HETATM    2  H1  UNL     1     -12.240   9.664  69.266  1.00  0.00     0.000 HD 
HETATM    3  CA  UNL     1     -12.338  10.703  71.076  1.00  0.00    -0.403 C  
HETATM    4  H2  UNL     1     -12.555  11.312  69.085  1.00  0.00     0.000 HD 
ENDROOT
BRANCH   3   5
HETATM    5  C   UNL     1     -13.055  11.929  71.656  1.00  0.00    -0.328 C  
HETATM    6  H   UNL     1     -13.048  13.873  71.353  1.00  0.00     0.000 HD 
HETATM    7  O   UNL     1     -12.604  13.114  70.994  1.00  0.00    -0.361 OA 
ENDBRANCH   3   5
BRANCH   3   8
HETATM    8  C   UNL     1     -12.630   9.455  71.913  1.00  0.00    -0.401 C  
HETATM    9  O   UNL     1     -13.718   9.217  72.437  1.00  0.00    -0.465 OA 
HETATM   10  H   UNL     1     -10.635   8.876  71.630  1.00  0.00     0.000 HD 
HETATM   11  N   UNL     1     -11.518   8.638  72.081  1.00  0.00    -0.367 N  
BRANCH  11  12
HETATM   12  N   UNL     1     -11.619   7.478  72.875  1.00  0.00    -0.590 NA 
HETATM   13  H   UNL     1     -12.207   7.636  73.693  1.00  0.00     0.000 HD 
BRANCH  12  14
HETATM   14  C   UNL     1     -12.089   6.326  72.085  1.00  0.00    -0.252 C  
BRANCH  14  15
HETATM   15  C   UNL     1     -10.995   5.752  71.210  1.00  0.00    -0.299 A  
HETATM   16  C   UNL     1     -10.954   5.911  69.817  1.00  0.00    -0.382 A  
HETATM   17  O   UNL     1     -11.899   6.617  69.111  1.00  0.00    -0.592 OA 
HETATM   18  C   UNL     1      -9.921   5.351  69.069  1.00  0.00    -0.190 A  
HETATM   19  H   UNL     1     -11.871   6.724  68.167  1.00  0.00     0.000 HD 
HETATM   20  C   UNL     1      -8.929   4.605  69.685  1.00  0.00    -0.094 A  
HETATM   21  O   UNL     1      -9.868   5.542  67.713  1.00  0.00    -0.124 OA 
HETATM   22  H   UNL     1      -9.163   5.160  67.203  1.00  0.00     0.000 HD 
HETATM   23  C   UNL     1      -8.957   4.402  71.055  1.00  0.00    -0.164 A  
HETATM   24  O   UNL     1      -7.918   4.064  68.943  1.00  0.00    -0.066 OA 
HETATM   25  H   UNL     1      -7.238   3.552  69.365  1.00  0.00     0.000 HD 
HETATM   26  C   UNL     1      -9.988   4.971  71.814  1.00  0.00    -0.250 A  
ENDBRANCH  14  15
ENDBRANCH  12  14
ENDBRANCH  11  12
ENDBRANCH   3   8
TORSDOF 5
ENDMDL
MODEL      137
REMARK 921   NORMALIZED FREE ENERGY PREDICTED BY IDOCK:   -4.54 KCAL/MOL
REMARK 922        TOTAL FREE ENERGY PREDICTED BY IDOCK:   -6.31 KCAL/MOL
REMARK 923 INTER-LIGAND FREE ENERGY PREDICTED BY IDOCK:   -6.04 KCAL/MOL
REMARK 924 INTRA-LIGAND FREE ENERGY PREDICTED BY IDOCK:   -0.27 KCAL/MOL
REMARK 927      BINDING AFFINITY PREDICTED BY RF-SCORE:    0.00 PKD
ROOT
HETATM    1  N   UNL     1     -14.003  15.575  69.904  1.00  0.00     0.628 NA 
HETATM    2  H1  UNL     1     -13.480  16.177  69.267  1.00  0.00     0.000 HD 
HETATM    3  CA  UNL     1     -13.293  15.418  71.205  1.00  0.00    -0.520 C  
HETATM    4  H2  UNL     1     -14.958  15.909  70.035  1.00  0.00     0.000 HD 
ENDROOT
BRANCH   3   5
HETATM    5  C   UNL     1     -14.079  14.514  72.163  1.00  0.00    -0.524 C  
HETATM    6  H   UNL     1     -13.841  13.797  73.979  1.00  0.00     0.000 HD 
HETATM    7  O   UNL     1     -13.354  14.357  73.387  1.00  0.00    -0.538 OA 
ENDBRANCH   3   5
BRANCH   3   8
HETATM    8  C   UNL     1     -11.878  14.876  70.984  1.00  0.00    -0.327 C  
HETATM    9  O   UNL     1     -10.928  15.109  71.730  1.00  0.00    -0.257 OA 
HETATM   10  H   UNL     1     -12.568  13.973  69.222  1.00  0.00     0.000 HD 
HETATM   11  N   UNL     1     -11.753  14.139  69.813  1.00  0.00    -0.293 N  
BRANCH  11  12
HETATM   12  N   UNL     1     -10.495  13.621  69.446  1.00  0.00    -0.429 NA 
HETATM   13  H   UNL     1     -10.318  12.719  69.888  1.00  0.00     0.000 HD 
BRANCH  12  14
HETATM   14  C   UNL     1     -10.353  13.542  67.981  1.00  0.00    -0.241 C  
BRANCH  14  15
HETATM   15  C   UNL     1     -10.242  14.912  67.346  1.00  0.00    -0.234 A  
HETATM   16  C   UNL     1     -10.810  15.240  66.106  1.00  0.00    -0.320 A  
HETATM   17  O   UNL     1     -11.536  14.349  65.351  1.00  0.00    -0.327 OA 
HETATM   18  C   UNL     1     -10.665  16.519  65.574  1.00  0.00    -0.256 A  
HETATM   19  H   UNL     1     -11.921  14.571  64.511  1.00  0.00     0.000 HD 
HETATM   20  C   UNL     1      -9.935  17.484  66.250  1.00  0.00    -0.308 A  
HETATM   21  O   UNL     1     -11.254  16.842  64.380  1.00  0.00    -1.192 OA 
HETATM   22  H   UNL     1     -11.155  17.714  64.018  1.00  0.00     0.000 HD 
HETATM   23  C   UNL     1      -9.334  17.184  67.461  1.00  0.00    -0.238 A  
HETATM   24  O   UNL     1      -9.802  18.737  65.721  1.00  0.00    -0.464 OA 
HETATM   25  H   UNL     1      -9.302  19.399  66.185  1.00  0.00     0.000 HD 
HETATM   26  C   UNL     1      -9.485  15.902  68.006  1.00  0.00    -0.206 A  
ENDBRANCH  14  15
ENDBRANCH  12  14
ENDBRANCH  11  12
ENDBRANCH   3   8
TORSDOF 5
ENDMDL
MODEL      138
REMARK 921   NORMALIZED FREE ENERGY PREDICTED BY IDOCK:   -4.52 KCAL/MOL
REMARK 922        TOTAL FREE ENERGY PREDICTED BY IDOCK:   -6.29 KCAL/MOL
REMARK 923 INTER-LIGAND FREE ENERGY PREDICTED BY IDOCK:   -5.53 KCAL/MOL
REMARK 924 INTRA-LIGAND FREE ENERGY PREDICTED BY IDOCK:   -0.76 KCAL/MOL
REMARK 927      BINDING AFFINITY PREDICTED BY RF-SCORE:    0.00 PKD
ROOT
HETATM    1  N   UNL     1      -7.875   7.680  67.533  1.00  0.00    -0.117 NA 
HETATM    2  H1  UNL     1      -7.720   8.406  68.233  1.00  0.00     0.000 HD 
HETATM    3  CA  UNL     1      -7.047   7.916  66.316  1.00  0.00    -0.063 C  
HETATM    4  H2  UNL     1      -7.717   6.748  67.919  1.00  0.00     0.000 HD 
ENDROOT
BRANCH   3   5
HETATM    5  C   UNL     1      -7.280   6.824  65.265  1.00  0.00    -0.073 C  
HETATM    6  H   UNL     1      -8.541   5.339  64.993  1.00  0.00     0.000 HD 
HETATM    7  O   UNL     1      -8.398   6.015  65.644  1.00  0.00    -0.132 OA 
ENDBRANCH   3   5
BRANCH   3   8
HETATM    8  C   UNL     1      -7.334   9.302  65.732  1.00  0.00    -0.094 C  
HETATM    9  O   UNL     1      -7.401   9.540  64.527  1.00  0.00    -0.105 OA 
HETATM   10  H   UNL     1      -7.385  10.047  67.692  1.00  0.00     0.000 HD 
HETATM   11  N   UNL     1      -7.450  10.290  66.703  1.00  0.00    -0.106 N  
BRANCH  11  12
HETATM   12  N   UNL     1      -7.660  11.628  66.315  1.00  0.00    -0.378 NA 
HETATM   13  H   UNL     1      -7.657  11.727  65.300  1.00  0.00     0.000 HD 
BRANCH  12  14
HETATM   14  C   UNL     1      -8.894  12.173  66.908  1.00  0.00    -0.202 C  
BRANCH  14  15
HETATM   15  C   UNL     1      -9.865  12.661  65.853  1.00  0.00    -0.251 A  
HETATM   16  C   UNL     1     -10.543  11.808  64.970  1.00  0.00    -0.288 A  
HETATM   17  O   UNL     1     -10.402  10.441  64.986  1.00  0.00    -0.306 OA 
HETATM   18  C   UNL     1     -11.418  12.324  64.017  1.00  0.00    -0.409 A  
HETATM   19  H   UNL     1     -10.862   9.863  64.388  1.00  0.00     0.000 HD 
HETATM   20  C   UNL     1     -11.616  13.691  63.908  1.00  0.00    -0.255 A  
HETATM   21  O   UNL     1     -12.105  11.482  63.183  1.00  0.00    -0.925 OA 
HETATM   22  H   UNL     1     -12.702  11.833  62.533  1.00  0.00     0.000 HD 
HETATM   23  C   UNL     1     -10.937  14.563  64.743  1.00  0.00    -0.404 A  
HETATM   24  O   UNL     1     -12.479  14.186  62.973  1.00  0.00    -1.077 OA 
HETATM   25  H   UNL     1     -12.615  15.123  62.898  1.00  0.00     0.000 HD 
HETATM   26  C   UNL     1     -10.063  14.050  65.710  1.00  0.00    -0.345 A  
ENDBRANCH  14  15
ENDBRANCH  12  14
ENDBRANCH  11  12
ENDBRANCH   3   8
TORSDOF 5
ENDMDL
MODEL      139
REMARK 921   NORMALIZED FREE ENERGY PREDICTED BY IDOCK:   -4.52 KCAL/MOL
REMARK 922        TOTAL FREE ENERGY PREDICTED BY IDOCK:   -6.29 KCAL/MOL
REMARK 923 INTER-LIGAND FREE ENERGY PREDICTED BY IDOCK:   -5.78 KCAL/MOL
REMARK 924 INTRA-LIGAND FREE ENERGY PREDICTED BY IDOCK:   -0.51 KCAL/MOL
REMARK 927      BINDING AFFINITY PREDICTED BY RF-SCORE:    0.00 PKD
ROOT
HETATM    1  N   UNL     1     -11.916   5.772  72.608  1.00  0.00    -0.512 NA 
HETATM    2  H1  UNL     1     -12.906   5.838  72.367  1.00  0.00     0.000 HD 
HETATM    3  CA  UNL     1     -11.168   6.976  72.148  1.00  0.00    -0.256 C  
HETATM    4  H2  UNL     1     -11.784   5.606  73.606  1.00  0.00     0.000 HD 
ENDROOT
BRANCH   3   5
HETATM    5  C   UNL     1      -9.680   6.878  72.510  1.00  0.00    -0.153 C  
HETATM    6  H   UNL     1      -8.116   5.863  71.885  1.00  0.00     0.000 HD 
HETATM    7  O   UNL     1      -9.036   5.924  71.661  1.00  0.00    -0.143 OA 
ENDBRANCH   3   5
BRANCH   3   8
HETATM    8  C   UNL     1     -11.348   7.179  70.641  1.00  0.00    -0.292 C  
HETATM    9  O   UNL     1     -11.654   6.281  69.858  1.00  0.00    -0.435 OA 
HETATM   10  H   UNL     1     -10.816   9.190  70.913  1.00  0.00     0.000 HD 
HETATM   11  N   UNL     1     -11.069   8.477  70.229  1.00  0.00    -0.241 N  
BRANCH  11  12
HETATM   12  N   UNL     1     -11.138   8.802  68.859  1.00  0.00    -0.426 NA 
HETATM   13  H   UNL     1     -12.023   9.253  68.626  1.00  0.00     0.000 HD 
BRANCH  12  14
HETATM   14  C   UNL     1      -9.987   9.624  68.444  1.00  0.00    -0.158 C  
BRANCH  14  15
HETATM   15  C   UNL     1     -10.276  10.411  67.183  1.00  0.00    -0.271 A  
HETATM   16  C   UNL     1     -11.345  11.310  67.059  1.00  0.00    -0.187 A  
HETATM   17  O   UNL     1     -12.230  11.575  68.077  1.00  0.00    -0.582 OA 
HETATM   18  C   UNL     1     -11.559  11.998  65.867  1.00  0.00    -0.300 A  
HETATM   19  H   UNL     1     -12.954  12.184  67.993  1.00  0.00     0.000 HD 
HETATM   20  C   UNL     1     -10.733  11.788  64.774  1.00  0.00    -0.302 A  
HETATM   21  O   UNL     1     -12.583  12.902  65.765  1.00  0.00    -0.538 OA 
HETATM   22  H   UNL     1     -12.729  13.372  64.952  1.00  0.00     0.000 HD 
HETATM   23  C   UNL     1      -9.688  10.883  64.852  1.00  0.00    -0.318 A  
HETATM   24  O   UNL     1     -10.949  12.471  63.611  1.00  0.00    -0.421 OA 
HETATM   25  H   UNL     1     -10.383  12.327  62.861  1.00  0.00     0.000 HD 
HETATM   26  C   UNL     1      -9.461  10.195  66.052  1.00  0.00    -0.248 A  
ENDBRANCH  14  15
ENDBRANCH  12  14
ENDBRANCH  11  12
ENDBRANCH   3   8
TORSDOF 5
ENDMDL
MODEL      140
REMARK 921   NORMALIZED FREE ENERGY PREDICTED BY IDOCK:   -4.52 KCAL/MOL
REMARK 922        TOTAL FREE ENERGY PREDICTED BY IDOCK:   -6.29 KCAL/MOL
REMARK 923 INTER-LIGAND FREE ENERGY PREDICTED BY IDOCK:   -5.79 KCAL/MOL
REMARK 924 INTRA-LIGAND FREE ENERGY PREDICTED BY IDOCK:   -0.49 KCAL/MOL
REMARK 927      BINDING AFFINITY PREDICTED BY RF-SCORE:    0.00 PKD
ROOT
HETATM    1  N   UNL     1     -10.684  19.168  65.835  1.00  0.00    -0.428 NA 
HETATM    2  H1  UNL     1     -10.851  18.498  65.084  1.00  0.00     0.000 HD 
HETATM    3  CA  UNL     1      -9.451  18.825  66.601  1.00  0.00    -0.330 C  
HETATM    4  H2  UNL     1     -10.652  20.125  65.483  1.00  0.00     0.000 HD 
ENDROOT
BRANCH   3   5
HETATM    5  C   UNL     1      -9.200  19.833  67.731  1.00  0.00    -0.338 C  
HETATM    6  H   UNL     1     -10.096  20.373  69.396  1.00  0.00     0.000 HD 
HETATM    7  O   UNL     1     -10.252  19.749  68.697  1.00  0.00    -0.445 OA 
ENDBRANCH   3   5
BRANCH   3   8
HETATM    8  C   UNL     1      -9.541  17.400  67.154  1.00  0.00    -0.265 C  
HETATM    9  O   UNL     1      -8.623  16.833  67.746  1.00  0.00    -0.194 OA 
HETATM   10  H   UNL     1     -11.481  17.285  66.367  1.00  0.00     0.000 HD 
HETATM   11  N   UNL     1     -10.749  16.778  66.864  1.00  0.00    -0.205 N  
BRANCH  11  12
HETATM   12  N   UNL     1     -10.957  15.442  67.261  1.00  0.00    -0.320 NA 
HETATM   13  H   UNL     1     -11.354  15.388  68.199  1.00  0.00     0.000 HD 
BRANCH  12  14
HETATM   14  C   UNL     1     -11.784  14.713  66.282  1.00  0.00    -0.320 C  
BRANCH  14  15
HETATM   15  C   UNL     1     -11.288  13.301  66.058  1.00  0.00    -0.329 A  
HETATM   16  C   UNL     1     -11.410  12.276  67.008  1.00  0.00    -0.334 A  
HETATM   17  O   UNL     1     -12.008  12.453  68.234  1.00  0.00    -0.334 OA 
HETATM   18  C   UNL     1     -10.925  10.998  66.741  1.00  0.00    -0.217 A  
HETATM   19  H   UNL     1     -12.091  11.759  68.877  1.00  0.00     0.000 HD 
HETATM   20  C   UNL     1     -10.290  10.722  65.541  1.00  0.00    -0.241 A  
HETATM   21  O   UNL     1     -11.082   9.994  67.659  1.00  0.00    -0.385 OA 
HETATM   22  H   UNL     1     -10.751   9.122  67.477  1.00  0.00     0.000 HD 
HETATM   23  C   UNL     1     -10.123  11.719  64.594  1.00  0.00    -0.310 A  
HETATM   24  O   UNL     1      -9.822   9.465  65.287  1.00  0.00    -0.442 OA 
HETATM   25  H   UNL     1      -9.386   9.275  64.464  1.00  0.00     0.000 HD 
HETATM   26  C   UNL     1     -10.618  13.004  64.853  1.00  0.00    -0.355 A  
ENDBRANCH  14  15
ENDBRANCH  12  14
ENDBRANCH  11  12
ENDBRANCH   3   8
TORSDOF 5
ENDMDL
MODEL      141
REMARK 921   NORMALIZED FREE ENERGY PREDICTED BY IDOCK:   -4.52 KCAL/MOL
REMARK 922        TOTAL FREE ENERGY PREDICTED BY IDOCK:   -6.28 KCAL/MOL
REMARK 923 INTER-LIGAND FREE ENERGY PREDICTED BY IDOCK:   -6.23 KCAL/MOL
REMARK 924 INTRA-LIGAND FREE ENERGY PREDICTED BY IDOCK:   -0.06 KCAL/MOL
REMARK 927      BINDING AFFINITY PREDICTED BY RF-SCORE:    0.00 PKD
ROOT
HETATM    1  N   UNL     1      -8.832  15.421  67.941  1.00  0.00    -0.167 NA 
HETATM    2  H1  UNL     1      -9.747  15.722  67.607  1.00  0.00     0.000 HD 
HETATM    3  CA  UNL     1      -8.501  14.052  67.451  1.00  0.00    -0.200 C  
HETATM    4  H2  UNL     1      -8.104  16.093  67.696  1.00  0.00     0.000 HD 
ENDROOT
BRANCH   3   5
HETATM    5  C   UNL     1      -7.124  13.599  67.954  1.00  0.00    -0.149 C  
HETATM    6  H   UNL     1      -5.287  14.300  67.930  1.00  0.00     0.000 HD 
HETATM    7  O   UNL     1      -6.139  14.581  67.619  1.00  0.00    -0.267 OA 
ENDBRANCH   3   5
BRANCH   3   8
HETATM    8  C   UNL     1      -9.587  13.056  67.867  1.00  0.00    -0.215 C  
HETATM    9  O   UNL     1      -9.437  11.835  67.863  1.00  0.00    -0.178 OA 
HETATM   10  H   UNL     1     -10.871  14.684  68.182  1.00  0.00     0.000 HD 
HETATM   11  N   UNL     1     -10.791  13.667  68.195  1.00  0.00    -0.240 N  
BRANCH  11  12
HETATM   12  N   UNL     1     -11.902  12.873  68.545  1.00  0.00    -0.323 NA 
HETATM   13  H   UNL     1     -11.996  12.068  67.927  1.00  0.00     0.000 HD 
BRANCH  12  14
HETATM   14  C   UNL     1     -11.846  12.465  69.961  1.00  0.00    -0.288 C  
BRANCH  14  15
HETATM   15  C   UNL     1     -12.405  13.529  70.882  1.00  0.00    -0.437 A  
HETATM   16  C   UNL     1     -11.779  14.763  71.110  1.00  0.00    -0.309 A  
HETATM   17  O   UNL     1     -10.600  15.133  70.507  1.00  0.00    -0.492 OA 
HETATM   18  C   UNL     1     -12.344  15.696  71.976  1.00  0.00    -0.423 A  
HETATM   19  H   UNL     1     -10.176  15.969  70.662  1.00  0.00     0.000 HD 
HETATM   20  C   UNL     1     -13.522  15.411  72.647  1.00  0.00    -0.529 A  
HETATM   21  O   UNL     1     -11.746  16.914  72.166  1.00  0.00    -0.532 OA 
HETATM   22  H   UNL     1     -12.131  17.550  72.756  1.00  0.00     0.000 HD 
HETATM   23  C   UNL     1     -14.149  14.189  72.470  1.00  0.00    -0.452 A  
HETATM   24  O   UNL     1     -14.070  16.335  73.492  1.00  0.00    -0.760 OA 
HETATM   25  H   UNL     1     -14.878  16.140  73.952  1.00  0.00     0.000 HD 
HETATM   26  C   UNL     1     -13.591  13.250  71.592  1.00  0.00    -0.263 A  
ENDBRANCH  14  15
ENDBRANCH  12  14
ENDBRANCH  11  12
ENDBRANCH   3   8
TORSDOF 5
ENDMDL
MODEL      142
REMARK 921   NORMALIZED FREE ENERGY PREDICTED BY IDOCK:   -4.51 KCAL/MOL
REMARK 922        TOTAL FREE ENERGY PREDICTED BY IDOCK:   -6.28 KCAL/MOL
REMARK 923 INTER-LIGAND FREE ENERGY PREDICTED BY IDOCK:   -6.01 KCAL/MOL
REMARK 924 INTRA-LIGAND FREE ENERGY PREDICTED BY IDOCK:   -0.27 KCAL/MOL
REMARK 927      BINDING AFFINITY PREDICTED BY RF-SCORE:    0.00 PKD
ROOT
HETATM    1  N   UNL     1      -6.789  15.197  68.833  1.00  0.00    -0.114 NA 
HETATM    2  H1  UNL     1      -6.390  14.803  69.685  1.00  0.00     0.000 HD 
HETATM    3  CA  UNL     1      -8.102  14.570  68.511  1.00  0.00    -0.148 C  
HETATM    4  H2  UNL     1      -6.862  16.214  68.888  1.00  0.00     0.000 HD 
ENDROOT
BRANCH   3   5
HETATM    5  C   UNL     1      -8.703  15.162  67.229  1.00  0.00    -0.202 C  
HETATM    6  H   UNL     1     -10.498  15.606  66.558  1.00  0.00     0.000 HD 
HETATM    7  O   UNL     1     -10.126  15.240  67.352  1.00  0.00    -0.230 OA 
ENDBRANCH   3   5
BRANCH   3   8
HETATM    8  C   UNL     1      -7.958  13.051  68.392  1.00  0.00    -0.135 C  
HETATM    9  O   UNL     1      -7.213  12.373  69.099  1.00  0.00    -0.053 OA 
HETATM   10  H   UNL     1      -9.312  13.112  66.791  1.00  0.00     0.000 HD 
HETATM   11  N   UNL     1      -8.710  12.511  67.355  1.00  0.00    -0.179 N  
BRANCH  11  12
HETATM   12  N   UNL     1      -8.637  11.130  67.087  1.00  0.00    -0.136 NA 
HETATM   13  H   UNL     1      -8.220  10.619  67.865  1.00  0.00     0.000 HD 
BRANCH  12  14
HETATM   14  C   UNL     1      -9.957  10.582  66.726  1.00  0.00    -0.204 C  
BRANCH  14  15
HETATM   15  C   UNL     1     -10.684  11.460  65.730  1.00  0.00    -0.309 A  
HETATM   16  C   UNL     1     -11.736  12.320  66.078  1.00  0.00    -0.388 A  
HETATM   17  O   UNL     1     -12.201  12.459  67.364  1.00  0.00    -0.459 OA 
HETATM   18  C   UNL     1     -12.368  13.097  65.110  1.00  0.00    -0.473 A  
HETATM   19  H   UNL     1     -12.914  13.041  67.600  1.00  0.00     0.000 HD 
HETATM   20  C   UNL     1     -11.984  13.016  63.781  1.00  0.00    -0.518 A  
HETATM   21  O   UNL     1     -13.370  13.962  65.464  1.00  0.00    -0.662 OA 
HETATM   22  H   UNL     1     -13.801  14.492  64.804  1.00  0.00     0.000 HD 
HETATM   23  C   UNL     1     -10.971  12.153  63.398  1.00  0.00    -0.480 A  
HETATM   24  O   UNL     1     -12.608  13.785  62.840  1.00  0.00    -0.944 OA 
HETATM   25  H   UNL     1     -12.345  13.729  61.929  1.00  0.00     0.000 HD 
HETATM   26  C   UNL     1     -10.325  11.376  64.369  1.00  0.00    -0.375 A  
ENDBRANCH  14  15
ENDBRANCH  12  14
ENDBRANCH  11  12
ENDBRANCH   3   8
TORSDOF 5
ENDMDL
MODEL      143
REMARK 921   NORMALIZED FREE ENERGY PREDICTED BY IDOCK:   -4.51 KCAL/MOL
REMARK 922        TOTAL FREE ENERGY PREDICTED BY IDOCK:   -6.28 KCAL/MOL
REMARK 923 INTER-LIGAND FREE ENERGY PREDICTED BY IDOCK:   -5.78 KCAL/MOL
REMARK 924 INTRA-LIGAND FREE ENERGY PREDICTED BY IDOCK:   -0.50 KCAL/MOL
REMARK 927      BINDING AFFINITY PREDICTED BY RF-SCORE:    0.00 PKD
ROOT
HETATM    1  N   UNL     1      -7.719   6.089  68.942  1.00  0.00    -0.091 NA 
HETATM    2  H1  UNL     1      -7.134   6.505  68.217  1.00  0.00     0.000 HD 
HETATM    3  CA  UNL     1      -9.164   6.357  68.691  1.00  0.00    -0.125 C  
HETATM    4  H2  UNL     1      -7.535   5.090  69.044  1.00  0.00     0.000 HD 
ENDROOT
BRANCH   3   5
HETATM    5  C   UNL     1     -10.043   5.731  69.780  1.00  0.00    -0.209 C  
HETATM    6  H   UNL     1     -11.968   5.566  70.151  1.00  0.00     0.000 HD 
HETATM    7  O   UNL     1     -11.424   5.954  69.477  1.00  0.00    -0.283 OA 
ENDBRANCH   3   5
BRANCH   3   8
HETATM    8  C   UNL     1      -9.420   7.863  68.583  1.00  0.00    -0.149 C  
HETATM    9  O   UNL     1      -9.221   8.661  69.498  1.00  0.00    -0.148 OA 
HETATM   10  H   UNL     1     -10.116   7.540  66.632  1.00  0.00     0.000 HD 
HETATM   11  N   UNL     1      -9.965   8.238  67.361  1.00  0.00    -0.189 N  
BRANCH  11  12
HETATM   12  N   UNL     1     -10.307   9.586  67.135  1.00  0.00    -0.246 NA 
HETATM   13  H   UNL     1     -10.098  10.166  67.947  1.00  0.00     0.000 HD 
BRANCH  12  14
HETATM   14  C   UNL     1      -9.660  10.107  65.917  1.00  0.00    -0.218 C  
BRANCH  14  15
HETATM   15  C   UNL     1     -10.410  11.285  65.334  1.00  0.00    -0.328 A  
HETATM   16  C   UNL     1     -11.006  12.287  66.113  1.00  0.00    -0.293 A  
HETATM   17  O   UNL     1     -10.955  12.303  67.487  1.00  0.00    -0.234 OA 
HETATM   18  C   UNL     1     -11.689  13.342  65.513  1.00  0.00    -0.346 A  
HETATM   19  H   UNL     1     -11.359  12.982  68.015  1.00  0.00     0.000 HD 
HETATM   20  C   UNL     1     -11.813  13.407  64.134  1.00  0.00    -0.442 A  
HETATM   21  O   UNL     1     -12.237  14.336  66.279  1.00  0.00    -0.436 OA 
HETATM   22  H   UNL     1     -12.703  15.056  65.870  1.00  0.00     0.000 HD 
HETATM   23  C   UNL     1     -11.264  12.417  63.336  1.00  0.00    -0.492 A  
HETATM   24  O   UNL     1     -12.481  14.448  63.555  1.00  0.00    -1.102 OA 
HETATM   25  H   UNL     1     -12.566  14.493  62.609  1.00  0.00     0.000 HD 
HETATM   26  C   UNL     1     -10.567  11.358  63.934  1.00  0.00    -0.452 A  
ENDBRANCH  14  15
ENDBRANCH  12  14
ENDBRANCH  11  12
ENDBRANCH   3   8
TORSDOF 5
ENDMDL
MODEL      144
REMARK 921   NORMALIZED FREE ENERGY PREDICTED BY IDOCK:   -4.51 KCAL/MOL
REMARK 922        TOTAL FREE ENERGY PREDICTED BY IDOCK:   -6.27 KCAL/MOL
REMARK 923 INTER-LIGAND FREE ENERGY PREDICTED BY IDOCK:   -5.86 KCAL/MOL
REMARK 924 INTRA-LIGAND FREE ENERGY PREDICTED BY IDOCK:   -0.41 KCAL/MOL
REMARK 927      BINDING AFFINITY PREDICTED BY RF-SCORE:    0.00 PKD
ROOT
HETATM    1  N   UNL     1     -10.147  10.522  62.651  1.00  0.00    -0.739 NA 
HETATM    2  H1  UNL     1      -9.135  10.392  62.653  1.00  0.00     0.000 HD 
HETATM    3  CA  UNL     1     -10.547  11.670  63.514  1.00  0.00    -0.435 C  
HETATM    4  H2  UNL     1     -10.511  10.621  61.703  1.00  0.00     0.000 HD 
ENDROOT
BRANCH   3   5
HETATM    5  C   UNL     1     -12.069  11.865  63.511  1.00  0.00    -0.470 C  
HETATM    6  H   UNL     1     -13.326  13.330  63.135  1.00  0.00     0.000 HD 
HETATM    7  O   UNL     1     -12.385  13.209  63.137  1.00  0.00    -0.677 OA 
ENDBRANCH   3   5
BRANCH   3   8
HETATM    8  C   UNL     1     -10.026  11.476  64.941  1.00  0.00    -0.259 C  
HETATM    9  O   UNL     1      -9.452  12.351  65.588  1.00  0.00    -0.168 OA 
HETATM   10  H   UNL     1     -10.690   9.489  64.846  1.00  0.00     0.000 HD 
HETATM   11  N   UNL     1     -10.211  10.184  65.419  1.00  0.00    -0.272 N  
BRANCH  11  12
HETATM   12  N   UNL     1      -9.732   9.840  66.699  1.00  0.00    -0.189 NA 
HETATM   13  H   UNL     1      -8.842  10.295  66.900  1.00  0.00     0.000 HD 
BRANCH  12  14
HETATM   14  C   UNL     1     -10.734  10.126  67.741  1.00  0.00    -0.277 C  
BRANCH  14  15
HETATM   15  C   UNL     1     -10.589   9.209  68.937  1.00  0.00    -0.214 A  
HETATM   16  C   UNL     1     -10.895   7.841  68.906  1.00  0.00     0.006 A  
HETATM   17  O   UNL     1     -11.345   7.195  67.779  1.00  0.00    -0.514 OA 
HETATM   18  C   UNL     1     -10.745   7.054  70.045  1.00  0.00    -0.242 A  
HETATM   19  H   UNL     1     -11.552   6.268  67.758  1.00  0.00     0.000 HD 
HETATM   20  C   UNL     1     -10.314   7.614  71.237  1.00  0.00    -0.198 A  
HETATM   21  O   UNL     1     -11.010   5.711  69.997  1.00  0.00    -0.328 OA 
HETATM   22  H   UNL     1     -10.908   5.173  70.774  1.00  0.00     0.000 HD 
HETATM   23  C   UNL     1     -10.034   8.969  71.311  1.00  0.00    -0.381 A  
HETATM   24  O   UNL     1     -10.167   6.832  72.347  1.00  0.00    -0.178 OA 
HETATM   25  H   UNL     1      -9.871   7.216  73.165  1.00  0.00     0.000 HD 
HETATM   26  C   UNL     1     -10.174   9.764  70.166  1.00  0.00    -0.328 A  
ENDBRANCH  14  15
ENDBRANCH  12  14
ENDBRANCH  11  12
ENDBRANCH   3   8
TORSDOF 5
ENDMDL
MODEL      145
REMARK 921   NORMALIZED FREE ENERGY PREDICTED BY IDOCK:   -4.48 KCAL/MOL
REMARK 922        TOTAL FREE ENERGY PREDICTED BY IDOCK:   -6.23 KCAL/MOL
REMARK 923 INTER-LIGAND FREE ENERGY PREDICTED BY IDOCK:   -6.18 KCAL/MOL
REMARK 924 INTRA-LIGAND FREE ENERGY PREDICTED BY IDOCK:   -0.05 KCAL/MOL
REMARK 927      BINDING AFFINITY PREDICTED BY RF-SCORE:    0.00 PKD
ROOT
HETATM    1  N   UNL     1      -9.918  10.694  62.629  1.00  0.00    -0.741 NA 
HETATM    2  H1  UNL     1     -10.574  11.309  62.147  1.00  0.00     0.000 HD 
HETATM    3  CA  UNL     1     -10.157  10.695  64.100  1.00  0.00    -0.334 C  
HETATM    4  H2  UNL     1      -9.941   9.749  62.246  1.00  0.00     0.000 HD 
ENDROOT
BRANCH   3   5
HETATM    5  C   UNL     1      -9.170   9.770  64.825  1.00  0.00    -0.261 C  
HETATM    6  H   UNL     1      -7.276   9.271  64.644  1.00  0.00     0.000 HD 
HETATM    7  O   UNL     1      -7.886   9.843  64.196  1.00  0.00    -0.131 OA 
ENDBRANCH   3   5
BRANCH   3   8
HETATM    8  C   UNL     1     -10.076  12.119  64.657  1.00  0.00    -0.257 C  
HETATM    9  O   UNL     1      -9.308  12.464  65.555  1.00  0.00    -0.061 OA 
HETATM   10  H   UNL     1     -11.625  12.651  63.348  1.00  0.00     0.000 HD 
HETATM   11  N   UNL     1     -11.006  12.981  64.089  1.00  0.00    -0.393 N  
BRANCH  11  12
HETATM   12  N   UNL     1     -11.089  14.313  64.540  1.00  0.00    -0.567 NA 
HETATM   13  H   UNL     1     -11.698  14.873  63.945  1.00  0.00     0.000 HD 
BRANCH  12  14
HETATM   14  C   UNL     1     -11.506  14.377  65.953  1.00  0.00    -0.341 C  
BRANCH  14  15
HETATM   15  C   UNL     1     -10.799  15.484  66.706  1.00  0.00    -0.291 A  
HETATM   16  C   UNL     1     -11.142  15.877  68.007  1.00  0.00    -0.334 A  
HETATM   17  O   UNL     1     -12.148  15.284  68.734  1.00  0.00    -0.544 OA 
HETATM   18  C   UNL     1     -10.454  16.910  68.641  1.00  0.00    -0.352 A  
HETATM   19  H   UNL     1     -12.380  15.551  69.615  1.00  0.00     0.000 HD 
HETATM   20  C   UNL     1      -9.435  17.583  67.987  1.00  0.00    -0.280 A  
HETATM   21  O   UNL     1     -10.771  17.263  69.926  1.00  0.00    -0.307 OA 
HETATM   22  H   UNL     1     -10.302  17.967  70.359  1.00  0.00     0.000 HD 
HETATM   23  C   UNL     1      -9.093  17.242  66.689  1.00  0.00    -0.286 A  
HETATM   24  O   UNL     1      -8.765  18.592  68.619  1.00  0.00    -0.327 OA 
HETATM   25  H   UNL     1      -8.066  19.054  68.171  1.00  0.00     0.000 HD 
HETATM   26  C   UNL     1      -9.774  16.197  66.050  1.00  0.00    -0.376 A  
ENDBRANCH  14  15
ENDBRANCH  12  14
ENDBRANCH  11  12
ENDBRANCH   3   8
TORSDOF 5
ENDMDL
MODEL      146
REMARK 921   NORMALIZED FREE ENERGY PREDICTED BY IDOCK:   -4.47 KCAL/MOL
REMARK 922        TOTAL FREE ENERGY PREDICTED BY IDOCK:   -6.22 KCAL/MOL
REMARK 923 INTER-LIGAND FREE ENERGY PREDICTED BY IDOCK:   -5.43 KCAL/MOL
REMARK 924 INTRA-LIGAND FREE ENERGY PREDICTED BY IDOCK:   -0.79 KCAL/MOL
REMARK 927      BINDING AFFINITY PREDICTED BY RF-SCORE:    0.00 PKD
ROOT
HETATM    1  N   UNL     1      -9.845  15.885  69.543  1.00  0.00    -0.273 NA 
HETATM    2  H1  UNL     1     -10.855  15.900  69.397  1.00  0.00     0.000 HD 
HETATM    3  CA  UNL     1      -9.125  16.521  68.403  1.00  0.00    -0.222 C  
HETATM    4  H2  UNL     1      -9.589  16.313  70.433  1.00  0.00     0.000 HD 
ENDROOT
BRANCH   3   5
HETATM    5  C   UNL     1      -7.607  16.498  68.623  1.00  0.00    -0.213 C  
HETATM    6  H   UNL     1      -6.339  15.544  69.785  1.00  0.00     0.000 HD 
HETATM    7  O   UNL     1      -7.279  15.557  69.649  1.00  0.00    -0.199 OA 
ENDBRANCH   3   5
BRANCH   3   8
HETATM    8  C   UNL     1      -9.493  15.834  67.085  1.00  0.00    -0.213 C  
HETATM    9  O   UNL     1      -8.670  15.469  66.246  1.00  0.00    -0.304 OA 
HETATM   10  H   UNL     1     -11.511  16.037  67.617  1.00  0.00     0.000 HD 
HETATM   11  N   UNL     1     -10.865  15.718  66.895  1.00  0.00    -0.301 N  
BRANCH  11  12
HETATM   12  N   UNL     1     -11.358  15.156  65.701  1.00  0.00    -0.302 NA 
HETATM   13  H   UNL     1     -10.612  15.005  65.022  1.00  0.00     0.000 HD 
BRANCH  12  14
HETATM   14  C   UNL     1     -12.110  13.914  65.962  1.00  0.00    -0.437 C  
BRANCH  14  15
HETATM   15  C   UNL     1     -11.227  12.687  65.878  1.00  0.00    -0.350 A  
HETATM   16  C   UNL     1     -10.274  12.486  64.870  1.00  0.00    -0.278 A  
HETATM   17  O   UNL     1     -10.037  13.393  63.864  1.00  0.00    -0.734 OA 
HETATM   18  C   UNL     1      -9.498  11.329  64.847  1.00  0.00    -0.196 A  
HETATM   19  H   UNL     1      -9.391  13.257  63.181  1.00  0.00     0.000 HD 
HETATM   20  C   UNL     1      -9.672  10.345  65.806  1.00  0.00    -0.228 A  
HETATM   21  O   UNL     1      -8.543  11.157  63.880  1.00  0.00    -0.378 OA 
HETATM   22  H   UNL     1      -8.013  10.368  63.864  1.00  0.00     0.000 HD 
HETATM   23  C   UNL     1     -10.628  10.497  66.797  1.00  0.00    -0.284 A  
HETATM   24  O   UNL     1      -8.904   9.216  65.777  1.00  0.00    -0.152 OA 
HETATM   25  H   UNL     1      -9.023   8.541  66.435  1.00  0.00     0.000 HD 
HETATM   26  C   UNL     1     -11.404  11.663  66.831  1.00  0.00    -0.364 A  
ENDBRANCH  14  15
ENDBRANCH  12  14
ENDBRANCH  11  12
ENDBRANCH   3   8
TORSDOF 5
ENDMDL
MODEL      147
REMARK 921   NORMALIZED FREE ENERGY PREDICTED BY IDOCK:   -4.46 KCAL/MOL
REMARK 922        TOTAL FREE ENERGY PREDICTED BY IDOCK:   -6.22 KCAL/MOL
REMARK 923 INTER-LIGAND FREE ENERGY PREDICTED BY IDOCK:   -5.86 KCAL/MOL
REMARK 924 INTRA-LIGAND FREE ENERGY PREDICTED BY IDOCK:   -0.35 KCAL/MOL
REMARK 927      BINDING AFFINITY PREDICTED BY RF-SCORE:    0.00 PKD
ROOT
HETATM    1  N   UNL     1      -9.384  11.687  62.483  1.00  0.00    -0.510 NA 
HETATM    2  H1  UNL     1      -9.821  11.772  61.565  1.00  0.00     0.000 HD 
HETATM    3  CA  UNL     1     -10.361  11.215  63.505  1.00  0.00    -0.387 C  
HETATM    4  H2  UNL     1      -8.557  11.091  62.451  1.00  0.00     0.000 HD 
ENDROOT
BRANCH   3   5
HETATM    5  C   UNL     1      -9.705  11.088  64.886  1.00  0.00    -0.254 C  
HETATM    6  H   UNL     1     -10.299  10.752  66.731  1.00  0.00     0.000 HD 
HETATM    7  O   UNL     1     -10.705  10.830  65.876  1.00  0.00    -0.179 OA 
ENDBRANCH   3   5
BRANCH   3   8
HETATM    8  C   UNL     1     -11.573  12.149  63.563  1.00  0.00    -0.474 C  
HETATM    9  O   UNL     1     -12.738  11.774  63.438  1.00  0.00    -0.565 OA 
HETATM   10  H   UNL     1     -10.244  13.753  63.806  1.00  0.00     0.000 HD 
HETATM   11  N   UNL     1     -11.224  13.487  63.709  1.00  0.00    -0.121 N  
BRANCH  11  12
HETATM   12  N   UNL     1     -12.231  14.472  63.723  1.00  0.00    -1.047 NA 
HETATM   13  H   UNL     1     -13.123  14.090  64.036  1.00  0.00     0.000 HD 
BRANCH  12  14
HETATM   14  C   UNL     1     -11.830  15.638  64.531  1.00  0.00    -0.172 C  
BRANCH  14  15
HETATM   15  C   UNL     1     -11.145  15.230  65.818  1.00  0.00    -0.301 A  
HETATM   16  C   UNL     1      -9.800  15.508  66.102  1.00  0.00    -0.316 A  
HETATM   17  O   UNL     1      -8.974  16.193  65.242  1.00  0.00     0.033 OA 
HETATM   18  C   UNL     1      -9.229  15.098  67.304  1.00  0.00    -0.198 A  
HETATM   19  H   UNL     1      -8.064  16.382  65.435  1.00  0.00     0.000 HD 
HETATM   20  C   UNL     1      -9.973  14.385  68.231  1.00  0.00    -0.232 A  
HETATM   21  O   UNL     1      -7.925  15.406  67.590  1.00  0.00    -0.134 OA 
HETATM   22  H   UNL     1      -7.535  15.126  68.411  1.00  0.00     0.000 HD 
HETATM   23  C   UNL     1     -11.294  14.065  67.968  1.00  0.00    -0.320 A  
HETATM   24  O   UNL     1      -9.404  13.991  69.409  1.00  0.00    -0.296 OA 
HETATM   25  H   UNL     1      -9.914  13.502  70.044  1.00  0.00     0.000 HD 
HETATM   26  C   UNL     1     -11.877  14.484  66.765  1.00  0.00    -0.390 A  
ENDBRANCH  14  15
ENDBRANCH  12  14
ENDBRANCH  11  12
ENDBRANCH   3   8
TORSDOF 5
ENDMDL
MODEL      148
REMARK 921   NORMALIZED FREE ENERGY PREDICTED BY IDOCK:   -4.45 KCAL/MOL
REMARK 922        TOTAL FREE ENERGY PREDICTED BY IDOCK:   -6.20 KCAL/MOL
REMARK 923 INTER-LIGAND FREE ENERGY PREDICTED BY IDOCK:   -5.67 KCAL/MOL
REMARK 924 INTRA-LIGAND FREE ENERGY PREDICTED BY IDOCK:   -0.53 KCAL/MOL
REMARK 927      BINDING AFFINITY PREDICTED BY RF-SCORE:    0.00 PKD
ROOT
HETATM    1  N   UNL     1      -6.583  16.614  69.293  1.00  0.00    -0.204 NA 
HETATM    2  H1  UNL     1      -6.619  15.802  69.909  1.00  0.00     0.000 HD 
HETATM    3  CA  UNL     1      -7.933  16.940  68.750  1.00  0.00    -0.254 C  
HETATM    4  H2  UNL     1      -6.161  17.419  69.757  1.00  0.00     0.000 HD 
ENDROOT
BRANCH   3   5
HETATM    5  C   UNL     1      -7.880  18.161  67.823  1.00  0.00    -0.235 C  
HETATM    6  H   UNL     1      -8.410  20.053  67.911  1.00  0.00     0.000 HD 
HETATM    7  O   UNL     1      -8.442  19.298  68.485  1.00  0.00    -0.345 OA 
ENDBRANCH   3   5
BRANCH   3   8
HETATM    8  C   UNL     1      -8.526  15.730  68.022  1.00  0.00    -0.161 C  
HETATM    9  O   UNL     1      -7.892  14.710  67.754  1.00  0.00    -0.127 OA 
HETATM   10  H   UNL     1     -10.332  16.785  67.876  1.00  0.00     0.000 HD 
HETATM   11  N   UNL     1      -9.847  15.921  67.634  1.00  0.00    -0.232 N  
BRANCH  11  12
HETATM   12  N   UNL     1     -10.511  14.915  66.905  1.00  0.00    -0.275 NA 
HETATM   13  H   UNL     1      -9.983  14.043  66.905  1.00  0.00     0.000 HD 
BRANCH  12  14
HETATM   14  C   UNL     1     -11.886  14.715  67.397  1.00  0.00    -0.348 C  
BRANCH  14  15
HETATM   15  C   UNL     1     -11.960  13.634  68.454  1.00  0.00    -0.391 A  
HETATM   16  C   UNL     1     -11.841  12.265  68.173  1.00  0.00    -0.311 A  
HETATM   17  O   UNL     1     -11.631  11.771  66.907  1.00  0.00    -0.491 OA 
HETATM   18  C   UNL     1     -11.926  11.321  69.193  1.00  0.00    -0.336 A  
HETATM   19  H   UNL     1     -11.550  10.844  66.717  1.00  0.00     0.000 HD 
HETATM   20  C   UNL     1     -12.154  11.715  70.502  1.00  0.00    -0.366 A  
HETATM   21  O   UNL     1     -11.771   9.988  68.915  1.00  0.00    -0.496 OA 
HETATM   22  H   UNL     1     -11.828   9.344  69.611  1.00  0.00     0.000 HD 
HETATM   23  C   UNL     1     -12.309  13.057  70.809  1.00  0.00    -0.394 A  
HETATM   24  O   UNL     1     -12.231  10.781  71.495  1.00  0.00    -0.311 OA 
HETATM   25  H   UNL     1     -12.388  11.052  72.393  1.00  0.00     0.000 HD 
HETATM   26  C   UNL     1     -12.215  14.012  69.789  1.00  0.00    -0.396 A  
ENDBRANCH  14  15
ENDBRANCH  12  14
ENDBRANCH  11  12
ENDBRANCH   3   8
TORSDOF 5
ENDMDL
MODEL      149
REMARK 921   NORMALIZED FREE ENERGY PREDICTED BY IDOCK:   -4.45 KCAL/MOL
REMARK 922        TOTAL FREE ENERGY PREDICTED BY IDOCK:   -6.20 KCAL/MOL
REMARK 923 INTER-LIGAND FREE ENERGY PREDICTED BY IDOCK:   -5.85 KCAL/MOL
REMARK 924 INTRA-LIGAND FREE ENERGY PREDICTED BY IDOCK:   -0.35 KCAL/MOL
REMARK 927      BINDING AFFINITY PREDICTED BY RF-SCORE:    0.00 PKD
ROOT
HETATM    1  N   UNL     1      -8.760   8.027  64.865  1.00  0.00    -0.387 NA 
HETATM    2  H1  UNL     1      -9.154   7.167  65.248  1.00  0.00     0.000 HD 
HETATM    3  CA  UNL     1      -8.589   9.062  65.924  1.00  0.00    -0.154 C  
HETATM    4  H2  UNL     1      -7.887   7.850  64.368  1.00  0.00     0.000 HD 
ENDROOT
BRANCH   3   5
HETATM    5  C   UNL     1      -7.998  10.355  65.347  1.00  0.00    -0.147 C  
HETATM    6  H   UNL     1      -7.671  11.111  63.561  1.00  0.00     0.000 HD 
HETATM    7  O   UNL     1      -8.037  10.311  63.917  1.00  0.00    -0.155 OA 
ENDBRANCH   3   5
BRANCH   3   8
HETATM    8  C   UNL     1      -9.922   9.340  66.625  1.00  0.00    -0.264 C  
HETATM    9  O   UNL     1     -10.702   8.462  66.991  1.00  0.00    -0.289 OA 
HETATM   10  H   UNL     1      -9.523  11.390  66.432  1.00  0.00     0.000 HD 
HETATM   11  N   UNL     1     -10.198  10.696  66.753  1.00  0.00    -0.224 N  
BRANCH  11  12
HETATM   12  N   UNL     1     -11.417  11.107  67.330  1.00  0.00    -0.501 NA 
HETATM   13  H   UNL     1     -11.360  11.130  68.348  1.00  0.00     0.000 HD 
BRANCH  12  14
HETATM   14  C   UNL     1     -11.859  12.402  66.783  1.00  0.00    -0.315 C  
BRANCH  14  15
HETATM   15  C   UNL     1     -11.740  13.519  67.799  1.00  0.00    -0.394 A  
HETATM   16  C   UNL     1     -11.352  14.826  67.473  1.00  0.00    -0.344 A  
HETATM   17  O   UNL     1     -11.053  15.225  66.191  1.00  0.00    -0.336 OA 
HETATM   18  C   UNL     1     -11.256  15.805  68.458  1.00  0.00    -0.354 A  
HETATM   19  H   UNL     1     -10.790  16.111  65.970  1.00  0.00     0.000 HD 
HETATM   20  C   UNL     1     -11.518  15.499  69.784  1.00  0.00    -0.331 A  
HETATM   21  O   UNL     1     -10.911  17.089  68.125  1.00  0.00    -0.367 OA 
HETATM   22  H   UNL     1     -10.846  17.757  68.798  1.00  0.00     0.000 HD 
HETATM   23  C   UNL     1     -11.873  14.210  70.146  1.00  0.00    -0.382 A  
HETATM   24  O   UNL     1     -11.425  16.468  70.742  1.00  0.00    -0.562 OA 
HETATM   25  H   UNL     1     -11.605  16.258  71.651  1.00  0.00     0.000 HD 
HETATM   26  C   UNL     1     -11.981  13.223  69.157  1.00  0.00    -0.343 A  
ENDBRANCH  14  15
ENDBRANCH  12  14
ENDBRANCH  11  12
ENDBRANCH   3   8
TORSDOF 5
ENDMDL
MODEL      150
REMARK 921   NORMALIZED FREE ENERGY PREDICTED BY IDOCK:   -4.43 KCAL/MOL
REMARK 922        TOTAL FREE ENERGY PREDICTED BY IDOCK:   -6.17 KCAL/MOL
REMARK 923 INTER-LIGAND FREE ENERGY PREDICTED BY IDOCK:   -5.87 KCAL/MOL
REMARK 924 INTRA-LIGAND FREE ENERGY PREDICTED BY IDOCK:   -0.31 KCAL/MOL
REMARK 927      BINDING AFFINITY PREDICTED BY RF-SCORE:    0.00 PKD
ROOT
HETATM    1  N   UNL     1      -8.741   8.528  64.792  1.00  0.00    -0.391 NA 
HETATM    2  H1  UNL     1      -9.420   7.863  64.420  1.00  0.00     0.000 HD 
HETATM    3  CA  UNL     1      -8.722   8.505  66.282  1.00  0.00    -0.142 C  
HETATM    4  H2  UNL     1      -7.811   8.370  64.402  1.00  0.00     0.000 HD 
ENDROOT
BRANCH   3   5
HETATM    5  C   UNL     1      -7.700   9.503  66.841  1.00  0.00    -0.098 C  
HETATM    6  H   UNL     1      -5.974   9.415  67.781  1.00  0.00     0.000 HD 
HETATM    7  O   UNL     1      -6.606   8.797  67.435  1.00  0.00    -0.057 OA 
ENDBRANCH   3   5
BRANCH   3   8
HETATM    8  C   UNL     1     -10.119   8.786  66.842  1.00  0.00    -0.278 C  
HETATM    9  O   UNL     1     -11.024   7.953  66.883  1.00  0.00    -0.188 OA 
HETATM   10  H   UNL     1      -9.512  10.762  67.191  1.00  0.00     0.000 HD 
HETATM   11  N   UNL     1     -10.289  10.104  67.246  1.00  0.00    -0.222 N  
BRANCH  11  12
HETATM   12  N   UNL     1     -11.542  10.527  67.733  1.00  0.00    -0.667 NA 
HETATM   13  H   UNL     1     -11.760  10.094  68.630  1.00  0.00     0.000 HD 
BRANCH  12  14
HETATM   14  C   UNL     1     -11.620  11.997  67.809  1.00  0.00    -0.330 C  
BRANCH  14  15
HETATM   15  C   UNL     1     -12.131  12.471  69.154  1.00  0.00    -0.187 A  
HETATM   16  C   UNL     1     -12.362  13.819  69.464  1.00  0.00    -0.209 A  
HETATM   17  O   UNL     1     -12.161  14.843  68.569  1.00  0.00    -0.576 OA 
HETATM   18  C   UNL     1     -12.827  14.188  70.724  1.00  0.00    -0.310 A  
HETATM   19  H   UNL     1     -12.318  15.756  68.779  1.00  0.00     0.000 HD 
HETATM   20  C   UNL     1     -13.044  13.231  71.703  1.00  0.00    -0.363 A  
HETATM   21  O   UNL     1     -13.086  15.503  71.007  1.00  0.00    -0.477 OA 
HETATM   22  H   UNL     1     -13.403  15.755  71.867  1.00  0.00     0.000 HD 
HETATM   23  C   UNL     1     -12.794  11.895  71.440  1.00  0.00    -0.411 A  
HETATM   24  O   UNL     1     -13.503  13.604  72.934  1.00  0.00    -0.639 OA 
HETATM   25  H   UNL     1     -13.652  12.948  73.606  1.00  0.00     0.000 HD 
HETATM   26  C   UNL     1     -12.337  11.516  70.171  1.00  0.00    -0.323 A  
ENDBRANCH  14  15
ENDBRANCH  12  14
ENDBRANCH  11  12
ENDBRANCH   3   8
TORSDOF 5
ENDMDL
MODEL      151
REMARK 921   NORMALIZED FREE ENERGY PREDICTED BY IDOCK:   -4.43 KCAL/MOL
REMARK 922        TOTAL FREE ENERGY PREDICTED BY IDOCK:   -6.17 KCAL/MOL
REMARK 923 INTER-LIGAND FREE ENERGY PREDICTED BY IDOCK:   -5.39 KCAL/MOL
REMARK 924 INTRA-LIGAND FREE ENERGY PREDICTED BY IDOCK:   -0.78 KCAL/MOL
REMARK 927      BINDING AFFINITY PREDICTED BY RF-SCORE:    0.00 PKD
ROOT
HETATM    1  N   UNL     1     -13.913  14.275  72.717  1.00  0.00    -0.584 NA 
HETATM    2  H1  UNL     1     -14.030  15.282  72.834  1.00  0.00     0.000 HD 
HETATM    3  CA  UNL     1     -12.695  13.962  71.916  1.00  0.00    -0.272 C  
HETATM    4  H2  UNL     1     -13.905  13.792  73.616  1.00  0.00     0.000 HD 
ENDROOT
BRANCH   3   5
HETATM    5  C   UNL     1     -12.519  12.448  71.740  1.00  0.00     0.175 C  
HETATM    6  H   UNL     1     -13.690  10.871  71.631  1.00  0.00     0.000 HD 
HETATM    7  O   UNL     1     -13.799  11.807  71.740  1.00  0.00     0.157 OA 
ENDBRANCH   3   5
BRANCH   3   8
HETATM    8  C   UNL     1     -12.751  14.664  70.556  1.00  0.00    -0.337 C  
HETATM    9  O   UNL     1     -13.400  15.685  70.335  1.00  0.00    -0.338 OA 
HETATM   10  H   UNL     1     -11.517  13.148  69.795  1.00  0.00     0.000 HD 
HETATM   11  N   UNL     1     -12.039  13.994  69.568  1.00  0.00    -0.338 N  
BRANCH  11  12
HETATM   12  N   UNL     1     -12.043  14.491  68.249  1.00  0.00    -0.571 NA 
HETATM   13  H   UNL     1     -12.625  15.324  68.165  1.00  0.00     0.000 HD 
BRANCH  12  14
HETATM   14  C   UNL     1     -10.673  14.738  67.764  1.00  0.00    -0.268 C  
BRANCH  14  15
HETATM   15  C   UNL     1     -10.468  16.180  67.349  1.00  0.00    -0.310 A  
HETATM   16  C   UNL     1     -10.503  17.257  68.246  1.00  0.00    -0.385 A  
HETATM   17  O   UNL     1     -10.715  17.107  69.597  1.00  0.00    -0.367 OA 
HETATM   18  C   UNL     1     -10.313  18.562  67.797  1.00  0.00    -0.402 A  
HETATM   19  H   UNL     1     -10.739  17.836  70.204  1.00  0.00     0.000 HD 
HETATM   20  C   UNL     1     -10.110  18.821  66.451  1.00  0.00    -0.404 A  
HETATM   21  O   UNL     1     -10.313  19.605  68.685  1.00  0.00    -0.499 OA 
HETATM   22  H   UNL     1     -10.183  20.495  68.379  1.00  0.00     0.000 HD 
HETATM   23  C   UNL     1     -10.101  17.783  65.534  1.00  0.00     0.252 A  
HETATM   24  O   UNL     1      -9.921  20.104  66.022  1.00  0.00    -0.525 OA 
HETATM   25  H   UNL     1      -9.781  20.282  65.099  1.00  0.00     0.000 HD 
HETATM   26  C   UNL     1     -10.282  16.468  65.981  1.00  0.00    -0.372 A  
ENDBRANCH  14  15
ENDBRANCH  12  14
ENDBRANCH  11  12
ENDBRANCH   3   8
TORSDOF 5
ENDMDL
MODEL      152
REMARK 921   NORMALIZED FREE ENERGY PREDICTED BY IDOCK:   -4.42 KCAL/MOL
REMARK 922        TOTAL FREE ENERGY PREDICTED BY IDOCK:   -6.16 KCAL/MOL
REMARK 923 INTER-LIGAND FREE ENERGY PREDICTED BY IDOCK:   -5.93 KCAL/MOL
REMARK 924 INTRA-LIGAND FREE ENERGY PREDICTED BY IDOCK:   -0.24 KCAL/MOL
REMARK 927      BINDING AFFINITY PREDICTED BY RF-SCORE:    0.00 PKD
ROOT
HETATM    1  N   UNL     1      -9.936   5.365  65.442  1.00  0.00    -0.359 NA 
HETATM    2  H1  UNL     1     -10.862   5.654  65.126  1.00  0.00     0.000 HD 
HETATM    3  CA  UNL     1      -9.652   5.868  66.816  1.00  0.00    -0.148 C  
HETATM    4  H2  UNL     1      -9.818   4.353  65.382  1.00  0.00     0.000 HD 
ENDROOT
BRANCH   3   5
HETATM    5  C   UNL     1      -8.259   5.433  67.291  1.00  0.00    -0.104 C  
HETATM    6  H   UNL     1      -7.319   3.736  67.612  1.00  0.00     0.000 HD 
HETATM    7  O   UNL     1      -8.180   4.005  67.318  1.00  0.00    -0.098 OA 
ENDBRANCH   3   5
BRANCH   3   8
HETATM    8  C   UNL     1      -9.793   7.392  66.870  1.00  0.00    -0.216 C  
HETATM    9  O   UNL     1      -9.640   8.132  65.899  1.00  0.00    -0.103 OA 
HETATM   10  H   UNL     1     -10.168   7.220  68.926  1.00  0.00     0.000 HD 
HETATM   11  N   UNL     1     -10.052   7.870  68.149  1.00  0.00    -0.184 N  
BRANCH  11  12
HETATM   12  N   UNL     1     -10.153   9.259  68.366  1.00  0.00    -0.183 NA 
HETATM   13  H   UNL     1     -11.078   9.609  68.120  1.00  0.00     0.000 HD 
BRANCH  12  14
HETATM   14  C   UNL     1      -9.791   9.614  69.750  1.00  0.00    -0.229 C  
BRANCH  14  15
HETATM   15  C   UNL     1     -10.970   9.500  70.693  1.00  0.00    -0.370 A  
HETATM   16  C   UNL     1     -11.813  10.574  71.013  1.00  0.00    -0.340 A  
HETATM   17  O   UNL     1     -11.658  11.836  70.488  1.00  0.00    -0.493 OA 
HETATM   18  C   UNL     1     -12.877  10.403  71.895  1.00  0.00    -0.415 A  
HETATM   19  H   UNL     1     -12.230  12.563  70.704  1.00  0.00     0.000 HD 
HETATM   20  C   UNL     1     -13.108   9.174  72.492  1.00  0.00    -0.377 A  
HETATM   21  O   UNL     1     -13.719  11.448  72.173  1.00  0.00    -0.376 OA 
HETATM   22  H   UNL     1     -14.445  11.331  72.774  1.00  0.00     0.000 HD 
HETATM   23  C   UNL     1     -12.274   8.101  72.223  1.00  0.00    -0.397 A  
HETATM   24  O   UNL     1     -14.157   9.016  73.352  1.00  0.00    -1.231 OA 
HETATM   25  H   UNL     1     -14.315   8.173  73.761  1.00  0.00     0.000 HD 
HETATM   26  C   UNL     1     -11.208   8.264  71.329  1.00  0.00    -0.302 A  
ENDBRANCH  14  15
ENDBRANCH  12  14
ENDBRANCH  11  12
ENDBRANCH   3   8
TORSDOF 5
ENDMDL
MODEL      153
REMARK 921   NORMALIZED FREE ENERGY PREDICTED BY IDOCK:   -4.42 KCAL/MOL
REMARK 922        TOTAL FREE ENERGY PREDICTED BY IDOCK:   -6.16 KCAL/MOL
REMARK 923 INTER-LIGAND FREE ENERGY PREDICTED BY IDOCK:   -5.88 KCAL/MOL
REMARK 924 INTRA-LIGAND FREE ENERGY PREDICTED BY IDOCK:   -0.28 KCAL/MOL
REMARK 927      BINDING AFFINITY PREDICTED BY RF-SCORE:    0.00 PKD
ROOT
HETATM    1  N   UNL     1     -12.069   6.935  71.825  1.00  0.00    -0.330 NA 
HETATM    2  H1  UNL     1     -11.905   7.263  72.777  1.00  0.00     0.000 HD 
HETATM    3  CA  UNL     1     -10.877   7.169  70.960  1.00  0.00    -0.240 C  
HETATM    4  H2  UNL     1     -12.356   5.956  71.810  1.00  0.00     0.000 HD 
ENDROOT
BRANCH   3   5
HETATM    5  C   UNL     1     -11.123   6.675  69.528  1.00  0.00    -0.322 C  
HETATM    6  H   UNL     1     -10.719   5.061  68.478  1.00  0.00     0.000 HD 
HETATM    7  O   UNL     1     -10.567   5.367  69.364  1.00  0.00    -0.276 OA 
ENDBRANCH   3   5
BRANCH   3   8
HETATM    8  C   UNL     1     -10.492   8.651  70.965  1.00  0.00    -0.219 C  
HETATM    9  O   UNL     1      -9.773   9.172  71.817  1.00  0.00    -0.283 OA 
HETATM   10  H   UNL     1     -11.682   8.900  69.256  1.00  0.00     0.000 HD 
HETATM   11  N   UNL     1     -11.090   9.373  69.939  1.00  0.00    -0.228 N  
BRANCH  11  12
HETATM   12  N   UNL     1     -10.872  10.763  69.847  1.00  0.00    -0.424 NA 
HETATM   13  H   UNL     1     -10.117  10.981  69.198  1.00  0.00     0.000 HD 
BRANCH  12  14
HETATM   14  C   UNL     1     -12.113  11.478  69.494  1.00  0.00    -0.284 C  
BRANCH  14  15
HETATM   15  C   UNL     1     -11.851  12.923  69.129  1.00  0.00    -0.353 A  
HETATM   16  C   UNL     1     -11.809  13.965  70.067  1.00  0.00    -0.315 A  
HETATM   17  O   UNL     1     -11.989  13.771  71.416  1.00  0.00    -0.384 OA 
HETATM   18  C   UNL     1     -11.570  15.276  69.663  1.00  0.00    -0.321 A  
HETATM   19  H   UNL     1     -11.960  14.476  72.052  1.00  0.00     0.000 HD 
HETATM   20  C   UNL     1     -11.393  15.578  68.322  1.00  0.00    -0.357 A  
HETATM   21  O   UNL     1     -11.493  16.282  70.590  1.00  0.00    -0.455 OA 
HETATM   22  H   UNL     1     -11.330  17.176  70.314  1.00  0.00     0.000 HD 
HETATM   23  C   UNL     1     -11.461  14.579  67.366  1.00  0.00    -0.385 A  
HETATM   24  O   UNL     1     -11.156  16.867  67.936  1.00  0.00    -0.301 OA 
HETATM   25  H   UNL     1     -11.035  17.075  67.017  1.00  0.00     0.000 HD 
HETATM   26  C   UNL     1     -11.692  13.256  67.768  1.00  0.00    -0.398 A  
ENDBRANCH  14  15
ENDBRANCH  12  14
ENDBRANCH  11  12
ENDBRANCH   3   8
TORSDOF 5
ENDMDL
MODEL      154
REMARK 921   NORMALIZED FREE ENERGY PREDICTED BY IDOCK:   -4.42 KCAL/MOL
REMARK 922        TOTAL FREE ENERGY PREDICTED BY IDOCK:   -6.15 KCAL/MOL
REMARK 923 INTER-LIGAND FREE ENERGY PREDICTED BY IDOCK:   -5.60 KCAL/MOL
REMARK 924 INTRA-LIGAND FREE ENERGY PREDICTED BY IDOCK:   -0.55 KCAL/MOL
REMARK 927      BINDING AFFINITY PREDICTED BY RF-SCORE:    0.00 PKD
ROOT
HETATM    1  N   UNL     1     -11.000  11.386  63.106  1.00  0.00    -0.820 NA 
HETATM    2  H1  UNL     1     -12.009  11.383  63.259  1.00  0.00     0.000 HD 
HETATM    3  CA  UNL     1     -10.286  10.670  64.201  1.00  0.00    -0.295 C  
HETATM    4  H2  UNL     1     -10.760  11.006  62.190  1.00  0.00     0.000 HD 
ENDROOT
BRANCH   3   5
HETATM    5  C   UNL     1      -8.769  10.674  63.970  1.00  0.00    -0.131 C  
HETATM    6  H   UNL     1      -7.553  10.704  62.424  1.00  0.00     0.000 HD 
HETATM    7  O   UNL     1      -8.492  10.702  62.567  1.00  0.00    -0.181 OA 
ENDBRANCH   3   5
BRANCH   3   8
HETATM    8  C   UNL     1     -10.630  11.286  65.560  1.00  0.00    -0.246 C  
HETATM    9  O   UNL     1     -10.033  11.027  66.604  1.00  0.00    -0.198 OA 
HETATM   10  H   UNL     1     -12.202  12.312  64.625  1.00  0.00     0.000 HD 
HETATM   11  N   UNL     1     -11.735  12.128  65.513  1.00  0.00    -0.361 N  
BRANCH  11  12
HETATM   12  N   UNL     1     -12.206  12.726  66.699  1.00  0.00    -0.476 NA 
HETATM   13  H   UNL     1     -11.745  12.338  67.522  1.00  0.00     0.000 HD 
BRANCH  12  14
HETATM   14  C   UNL     1     -12.076  14.194  66.648  1.00  0.00    -0.451 C  
BRANCH  14  15
HETATM   15  C   UNL     1     -10.812  14.677  67.326  1.00  0.00    -0.305 A  
HETATM   16  C   UNL     1      -9.572  14.768  66.679  1.00  0.00    -0.272 A  
HETATM   17  O   UNL     1      -9.386  14.439  65.356  1.00  0.00    -0.469 OA 
HETATM   18  C   UNL     1      -8.444  15.214  67.364  1.00  0.00    -0.183 A  
HETATM   19  H   UNL     1      -8.546  14.501  64.918  1.00  0.00     0.000 HD 
HETATM   20  C   UNL     1      -8.523  15.553  68.705  1.00  0.00    -0.190 A  
HETATM   21  O   UNL     1      -7.244  15.336  66.714  1.00  0.00    -0.279 OA 
HETATM   22  H   UNL     1      -6.475  15.641  67.181  1.00  0.00     0.000 HD 
HETATM   23  C   UNL     1      -9.725  15.444  69.383  1.00  0.00    -0.273 A  
HETATM   24  O   UNL     1      -7.412  15.994  69.366  1.00  0.00    -0.226 OA 
HETATM   25  H   UNL     1      -7.466  16.226  70.286  1.00  0.00     0.000 HD 
HETATM   26  C   UNL     1     -10.865  15.005  68.697  1.00  0.00    -0.249 A  
ENDBRANCH  14  15
ENDBRANCH  12  14
ENDBRANCH  11  12
ENDBRANCH   3   8
TORSDOF 5
ENDMDL
MODEL      155
REMARK 921   NORMALIZED FREE ENERGY PREDICTED BY IDOCK:   -4.41 KCAL/MOL
REMARK 922        TOTAL FREE ENERGY PREDICTED BY IDOCK:   -6.14 KCAL/MOL
REMARK 923 INTER-LIGAND FREE ENERGY PREDICTED BY IDOCK:   -5.96 KCAL/MOL
REMARK 924 INTRA-LIGAND FREE ENERGY PREDICTED BY IDOCK:   -0.18 KCAL/MOL
REMARK 927      BINDING AFFINITY PREDICTED BY RF-SCORE:    0.00 PKD
ROOT
HETATM    1  N   UNL     1      -7.769  16.570  68.173  1.00  0.00    -0.162 NA 
HETATM    2  H1  UNL     1      -7.929  15.748  68.756  1.00  0.00     0.000 HD 
HETATM    3  CA  UNL     1      -9.045  17.077  67.593  1.00  0.00    -0.229 C  
HETATM    4  H2  UNL     1      -7.273  17.301  68.685  1.00  0.00     0.000 HD 
ENDROOT
BRANCH   3   5
HETATM    5  C   UNL     1      -8.805  18.314  66.717  1.00  0.00    -0.276 C  
HETATM    6  H   UNL     1      -7.630  18.803  65.217  1.00  0.00     0.000 HD 
HETATM    7  O   UNL     1      -7.779  18.038  65.758  1.00  0.00    -0.532 OA 
ENDBRANCH   3   5
BRANCH   3   8
HETATM    8  C   UNL     1      -9.748  15.976  66.796  1.00  0.00    -0.239 C  
HETATM    9  O   UNL     1      -9.338  15.533  65.724  1.00  0.00    -0.332 OA 
HETATM   10  H   UNL     1     -11.246  15.959  68.263  1.00  0.00     0.000 HD 
HETATM   11  N   UNL     1     -10.943  15.562  67.374  1.00  0.00    -0.314 N  
BRANCH  11  12
HETATM   12  N   UNL     1     -11.731  14.591  66.725  1.00  0.00    -0.383 NA 
HETATM   13  H   UNL     1     -11.396  14.408  65.780  1.00  0.00     0.000 HD 
BRANCH  12  14
HETATM   14  C   UNL     1     -11.816  13.351  67.518  1.00  0.00    -0.366 C  
BRANCH  14  15
HETATM   15  C   UNL     1     -11.174  12.177  66.809  1.00  0.00    -0.375 A  
HETATM   16  C   UNL     1     -11.252  10.855  67.271  1.00  0.00    -0.233 A  
HETATM   17  O   UNL     1     -11.934  10.494  68.409  1.00  0.00    -0.773 OA 
HETATM   18  C   UNL     1     -10.632   9.822  66.573  1.00  0.00    -0.080 A  
HETATM   19  H   UNL     1     -11.987   9.599  68.722  1.00  0.00     0.000 HD 
HETATM   20  C   UNL     1      -9.905  10.084  65.423  1.00  0.00    -0.314 A  
HETATM   21  O   UNL     1     -10.745   8.528  67.011  1.00  0.00    -0.338 OA 
HETATM   22  H   UNL     1     -10.322   7.823  66.535  1.00  0.00     0.000 HD 
HETATM   23  C   UNL     1      -9.781  11.383  64.957  1.00  0.00    -0.286 A  
HETATM   24  O   UNL     1      -9.305   9.063  64.744  1.00  0.00    -0.441 OA 
HETATM   25  H   UNL     1      -8.806   9.242  63.955  1.00  0.00     0.000 HD 
HETATM   26  C   UNL     1     -10.410  12.426  65.649  1.00  0.00    -0.284 A  
ENDBRANCH  14  15
ENDBRANCH  12  14
ENDBRANCH  11  12
ENDBRANCH   3   8
TORSDOF 5
ENDMDL
MODEL      156
REMARK 921   NORMALIZED FREE ENERGY PREDICTED BY IDOCK:   -4.40 KCAL/MOL
REMARK 922        TOTAL FREE ENERGY PREDICTED BY IDOCK:   -6.14 KCAL/MOL
REMARK 923 INTER-LIGAND FREE ENERGY PREDICTED BY IDOCK:   -5.65 KCAL/MOL
REMARK 924 INTRA-LIGAND FREE ENERGY PREDICTED BY IDOCK:   -0.49 KCAL/MOL
REMARK 927      BINDING AFFINITY PREDICTED BY RF-SCORE:    0.00 PKD
ROOT
HETATM    1  N   UNL     1     -12.496  16.045  71.688  1.00  0.00    -0.563 NA 
HETATM    2  H1  UNL     1     -13.098  15.728  72.448  1.00  0.00     0.000 HD 
HETATM    3  CA  UNL     1     -12.725  15.249  70.448  1.00  0.00    -0.356 C  
HETATM    4  H2  UNL     1     -12.603  17.045  71.516  1.00  0.00     0.000 HD 
ENDROOT
BRANCH   3   5
HETATM    5  C   UNL     1     -11.819  15.726  69.305  1.00  0.00    -0.346 C  
HETATM    6  H   UNL     1     -10.269  16.919  69.107  1.00  0.00     0.000 HD 
HETATM    7  O   UNL     1     -10.829  16.624  69.814  1.00  0.00    -0.333 OA 
ENDBRANCH   3   5
BRANCH   3   8
HETATM    8  C   UNL     1     -12.517  13.757  70.721  1.00  0.00    -0.370 C  
HETATM    9  O   UNL     1     -12.985  13.164  71.692  1.00  0.00    -0.370 OA 
HETATM   10  H   UNL     1     -11.318  13.676  69.002  1.00  0.00     0.000 HD 
HETATM   11  N   UNL     1     -11.687  13.143  69.791  1.00  0.00    -0.298 N  
BRANCH  11  12
HETATM   12  N   UNL     1     -11.357  11.782  69.942  1.00  0.00    -0.491 NA 
HETATM   13  H   UNL     1     -12.191  11.206  70.060  1.00  0.00     0.000 HD 
BRANCH  12  14
HETATM   14  C   UNL     1     -10.524  11.303  68.824  1.00  0.00    -0.208 C  
BRANCH  14  15
HETATM   15  C   UNL     1     -10.548   9.794  68.703  1.00  0.00    -0.249 A  
HETATM   16  C   UNL     1     -10.423   8.926  69.797  1.00  0.00    -0.212 A  
HETATM   17  O   UNL     1     -10.281   9.364  71.093  1.00  0.00    -0.304 OA 
HETATM   18  C   UNL     1     -10.446   7.546  69.615  1.00  0.00    -0.234 A  
HETATM   19  H   UNL     1     -10.196   8.776  71.834  1.00  0.00     0.000 HD 
HETATM   20  C   UNL     1     -10.568   7.004  68.345  1.00  0.00    -0.202 A  
HETATM   21  O   UNL     1     -10.361   6.705  70.694  1.00  0.00    -0.198 OA 
HETATM   22  H   UNL     1     -10.377   5.763  70.569  1.00  0.00     0.000 HD 
HETATM   23  C   UNL     1     -10.661   7.833  67.239  1.00  0.00    -0.376 A  
HETATM   24  O   UNL     1     -10.593   5.649  68.178  1.00  0.00    -0.216 OA 
HETATM   25  H   UNL     1     -10.677   5.278  67.308  1.00  0.00     0.000 HD 
HETATM   26  C   UNL     1     -10.648   9.223  67.417  1.00  0.00    -0.324 A  
ENDBRANCH  14  15
ENDBRANCH  12  14
ENDBRANCH  11  12
ENDBRANCH   3   8
TORSDOF 5
ENDMDL
MODEL      157
REMARK 921   NORMALIZED FREE ENERGY PREDICTED BY IDOCK:   -4.39 KCAL/MOL
REMARK 922        TOTAL FREE ENERGY PREDICTED BY IDOCK:   -6.12 KCAL/MOL
REMARK 923 INTER-LIGAND FREE ENERGY PREDICTED BY IDOCK:   -5.83 KCAL/MOL
REMARK 924 INTRA-LIGAND FREE ENERGY PREDICTED BY IDOCK:   -0.30 KCAL/MOL
REMARK 927      BINDING AFFINITY PREDICTED BY RF-SCORE:    0.00 PKD
ROOT
HETATM    1  N   UNL     1     -12.123  16.359  71.878  1.00  0.00    -0.628 NA 
HETATM    2  H1  UNL     1     -13.054  16.186  72.257  1.00  0.00     0.000 HD 
HETATM    3  CA  UNL     1     -11.981  15.787  70.509  1.00  0.00    -0.371 C  
HETATM    4  H2  UNL     1     -11.890  17.352  71.896  1.00  0.00     0.000 HD 
ENDROOT
BRANCH   3   5
HETATM    5  C   UNL     1     -10.581  16.047  69.940  1.00  0.00    -0.314 C  
HETATM    6  H   UNL     1      -9.814  16.979  68.386  1.00  0.00     0.000 HD 
HETATM    7  O   UNL     1     -10.681  16.818  68.739  1.00  0.00    -0.316 OA 
ENDBRANCH   3   5
BRANCH   3   8
HETATM    8  C   UNL     1     -12.295  14.288  70.518  1.00  0.00    -0.360 C  
HETATM    9  O   UNL     1     -12.758  13.688  71.487  1.00  0.00    -0.346 OA 
HETATM   10  H   UNL     1     -11.562  14.189  68.555  1.00  0.00     0.000 HD 
HETATM   11  N   UNL     1     -11.946  13.651  69.333  1.00  0.00    -0.334 N  
BRANCH  11  12
HETATM   12  N   UNL     1     -12.124  12.259  69.212  1.00  0.00    -0.221 NA 
HETATM   13  H   UNL     1     -12.728  12.027  68.424  1.00  0.00     0.000 HD 
BRANCH  12  14
HETATM   14  C   UNL     1     -10.831  11.557  69.127  1.00  0.00    -0.195 C  
BRANCH  14  15
HETATM   15  C   UNL     1     -10.555  11.040  67.731  1.00  0.00    -0.250 A  
HETATM   16  C   UNL     1     -10.287   9.694  67.442  1.00  0.00    -0.247 A  
HETATM   17  O   UNL     1     -10.263   8.708  68.399  1.00  0.00    -0.190 OA 
HETATM   18  C   UNL     1     -10.034   9.286  66.134  1.00  0.00    -0.277 A  
HETATM   19  H   UNL     1     -10.082   7.796  68.203  1.00  0.00     0.000 HD 
HETATM   20  C   UNL     1     -10.018  10.207  65.099  1.00  0.00    -0.309 A  
HETATM   21  O   UNL     1      -9.810   7.963  65.855  1.00  0.00    -0.434 OA 
HETATM   22  H   UNL     1      -9.638   7.685  64.963  1.00  0.00     0.000 HD 
HETATM   23  C   UNL     1     -10.247  11.548  65.354  1.00  0.00    -0.311 A  
HETATM   24  O   UNL     1      -9.773   9.795  63.820  1.00  0.00    -0.472 OA 
HETATM   25  H   UNL     1      -9.762  10.426  63.110  1.00  0.00     0.000 HD 
HETATM   26  C   UNL     1     -10.511  11.964  66.666  1.00  0.00    -0.250 A  
ENDBRANCH  14  15
ENDBRANCH  12  14
ENDBRANCH  11  12
ENDBRANCH   3   8
TORSDOF 5
ENDMDL
MODEL      158
REMARK 921   NORMALIZED FREE ENERGY PREDICTED BY IDOCK:   -4.39 KCAL/MOL
REMARK 922        TOTAL FREE ENERGY PREDICTED BY IDOCK:   -6.12 KCAL/MOL
REMARK 923 INTER-LIGAND FREE ENERGY PREDICTED BY IDOCK:   -5.57 KCAL/MOL
REMARK 924 INTRA-LIGAND FREE ENERGY PREDICTED BY IDOCK:   -0.56 KCAL/MOL
REMARK 927      BINDING AFFINITY PREDICTED BY RF-SCORE:    0.00 PKD
ROOT
HETATM    1  N   UNL     1     -12.219  13.751  68.237  1.00  0.00    -0.444 NA 
HETATM    2  H1  UNL     1     -13.113  13.346  68.516  1.00  0.00     0.000 HD 
HETATM    3  CA  UNL     1     -11.569  12.940  67.168  1.00  0.00    -0.363 C  
HETATM    4  H2  UNL     1     -12.321  14.727  67.958  1.00  0.00     0.000 HD 
ENDROOT
BRANCH   3   5
HETATM    5  C   UNL     1     -10.225  13.549  66.749  1.00  0.00    -0.264 C  
HETATM    6  H   UNL     1      -9.404  15.336  66.727  1.00  0.00     0.000 HD 
HETATM    7  O   UNL     1     -10.235  14.960  66.987  1.00  0.00    -0.252 OA 
ENDBRANCH   3   5
BRANCH   3   8
HETATM    8  C   UNL     1     -11.390  11.490  67.627  1.00  0.00    -0.291 C  
HETATM    9  O   UNL     1     -10.873  10.611  66.940  1.00  0.00    -0.255 OA 
HETATM   10  H   UNL     1     -12.352  12.005  69.418  1.00  0.00     0.000 HD 
HETATM   11  N   UNL     1     -11.929  11.245  68.884  1.00  0.00    -0.344 N  
BRANCH  11  12
HETATM   12  N   UNL     1     -11.889   9.942  69.418  1.00  0.00    -0.450 NA 
HETATM   13  H   UNL     1     -11.010   9.474  69.197  1.00  0.00     0.000 HD 
BRANCH  12  14
HETATM   14  C   UNL     1     -12.148   9.947  70.869  1.00  0.00    -0.341 C  
BRANCH  14  15
HETATM   15  C   UNL     1     -11.129   9.128  71.632  1.00  0.00    -0.445 A  
HETATM   16  C   UNL     1      -9.744   9.245  71.443  1.00  0.00    -0.199 A  
HETATM   17  O   UNL     1      -9.176  10.127  70.555  1.00  0.00    -0.266 OA 
HETATM   18  C   UNL     1      -8.859   8.456  72.174  1.00  0.00    -0.217 A  
HETATM   19  H   UNL     1      -8.238  10.206  70.427  1.00  0.00     0.000 HD 
HETATM   20  C   UNL     1      -9.332   7.523  73.083  1.00  0.00    -0.206 A  
HETATM   21  O   UNL     1      -7.507   8.602  72.011  1.00  0.00    -0.199 OA 
HETATM   22  H   UNL     1      -6.903   8.064  72.510  1.00  0.00     0.000 HD 
HETATM   23  C   UNL     1     -10.695   7.359  73.270  1.00  0.00    -0.441 A  
HETATM   24  O   UNL     1      -8.456   6.757  73.797  1.00  0.00    -0.121 OA 
HETATM   25  H   UNL     1      -8.780   6.117  74.421  1.00  0.00     0.000 HD 
HETATM   26  C   UNL     1     -11.590   8.157  72.545  1.00  0.00    -0.468 A  
ENDBRANCH  14  15
ENDBRANCH  12  14
ENDBRANCH  11  12
ENDBRANCH   3   8
TORSDOF 5
ENDMDL
MODEL      159
REMARK 921   NORMALIZED FREE ENERGY PREDICTED BY IDOCK:   -4.39 KCAL/MOL
REMARK 922        TOTAL FREE ENERGY PREDICTED BY IDOCK:   -6.12 KCAL/MOL
REMARK 923 INTER-LIGAND FREE ENERGY PREDICTED BY IDOCK:   -5.85 KCAL/MOL
REMARK 924 INTRA-LIGAND FREE ENERGY PREDICTED BY IDOCK:   -0.27 KCAL/MOL
REMARK 927      BINDING AFFINITY PREDICTED BY RF-SCORE:    0.00 PKD
ROOT
HETATM    1  N   UNL     1     -12.505  15.422  63.902  1.00  0.00    -0.935 NA 
HETATM    2  H1  UNL     1     -13.079  14.885  63.251  1.00  0.00     0.000 HD 
HETATM    3  CA  UNL     1     -11.281  14.665  64.291  1.00  0.00    -0.039 C  
HETATM    4  H2  UNL     1     -12.273  16.342  63.527  1.00  0.00     0.000 HD 
ENDROOT
BRANCH   3   5
HETATM    5  C   UNL     1     -10.416  15.471  65.270  1.00  0.00    -0.411 C  
HETATM    6  H   UNL     1      -9.958  17.362  65.557  1.00  0.00     0.000 HD 
HETATM    7  O   UNL     1     -10.493  16.864  64.951  1.00  0.00    -0.600 OA 
ENDBRANCH   3   5
BRANCH   3   8
HETATM    8  C   UNL     1     -11.655  13.306  64.889  1.00  0.00    -0.325 C  
HETATM    9  O   UNL     1     -12.777  13.026  65.311  1.00  0.00    -0.541 OA 
HETATM   10  H   UNL     1      -9.666  12.706  64.609  1.00  0.00     0.000 HD 
HETATM   11  N   UNL     1     -10.580  12.430  64.969  1.00  0.00    -0.288 N  
BRANCH  11  12
HETATM   12  N   UNL     1     -10.759  11.158  65.548  1.00  0.00    -0.224 NA 
HETATM   13  H   UNL     1     -11.055  10.470  64.857  1.00  0.00     0.000 HD 
BRANCH  12  14
HETATM   14  C   UNL     1      -9.547  10.718  66.263  1.00  0.00    -0.195 C  
BRANCH  14  15
HETATM   15  C   UNL     1      -9.875   9.837  67.450  1.00  0.00    -0.219 A  
HETATM   16  C   UNL     1      -9.742  10.251  68.783  1.00  0.00    -0.177 A  
HETATM   17  O   UNL     1      -9.313  11.507  69.143  1.00  0.00    -0.405 OA 
HETATM   18  C   UNL     1     -10.055   9.387  69.830  1.00  0.00    -0.211 A  
HETATM   19  H   UNL     1      -9.223  11.788  70.046  1.00  0.00     0.000 HD 
HETATM   20  C   UNL     1     -10.480   8.093  69.572  1.00  0.00    -0.227 A  
HETATM   21  O   UNL     1      -9.958   9.812  71.129  1.00  0.00    -0.277 OA 
HETATM   22  H   UNL     1     -10.172   9.222  71.843  1.00  0.00     0.000 HD 
HETATM   23  C   UNL     1     -10.591   7.642  68.268  1.00  0.00    -0.175 A  
HETATM   24  O   UNL     1     -10.788   7.256  70.606  1.00  0.00    -0.231 OA 
HETATM   25  H   UNL     1     -11.079   6.368  70.429  1.00  0.00     0.000 HD 
HETATM   26  C   UNL     1     -10.287   8.510  67.211  1.00  0.00    -0.372 A  
ENDBRANCH  14  15
ENDBRANCH  12  14
ENDBRANCH  11  12
ENDBRANCH   3   8
TORSDOF 5
ENDMDL
MODEL      160
REMARK 921   NORMALIZED FREE ENERGY PREDICTED BY IDOCK:   -4.39 KCAL/MOL
REMARK 922        TOTAL FREE ENERGY PREDICTED BY IDOCK:   -6.12 KCAL/MOL
REMARK 923 INTER-LIGAND FREE ENERGY PREDICTED BY IDOCK:   -5.87 KCAL/MOL
REMARK 924 INTRA-LIGAND FREE ENERGY PREDICTED BY IDOCK:   -0.25 KCAL/MOL
REMARK 927      BINDING AFFINITY PREDICTED BY RF-SCORE:    0.00 PKD
ROOT
HETATM    1  N   UNL     1     -10.539   7.307  73.958  1.00  0.00    -0.564 NA 
HETATM    2  H1  UNL     1     -10.163   8.249  73.844  1.00  0.00     0.000 HD 
HETATM    3  CA  UNL     1     -10.839   6.683  72.638  1.00  0.00    -0.248 C  
HETATM    4  H2  UNL     1      -9.919   6.721  74.517  1.00  0.00     0.000 HD 
ENDROOT
BRANCH   3   5
HETATM    5  C   UNL     1     -11.404   5.266  72.808  1.00  0.00    -0.276 C  
HETATM    6  H   UNL     1     -10.811   3.430  72.425  1.00  0.00     0.000 HD 
HETATM    7  O   UNL     1     -10.461   4.307  72.320  1.00  0.00    -0.170 OA 
ENDBRANCH   3   5
BRANCH   3   8
HETATM    8  C   UNL     1     -11.804   7.559  71.835  1.00  0.00    -0.296 C  
HETATM    9  O   UNL     1     -13.029   7.447  71.873  1.00  0.00    -0.314 OA 
HETATM   10  H   UNL     1     -10.137   8.519  71.000  1.00  0.00     0.000 HD 
HETATM   11  N   UNL     1     -11.155   8.463  71.002  1.00  0.00    -0.251 N  
BRANCH  11  12
HETATM   12  N   UNL     1     -11.912   9.301  70.159  1.00  0.00    -0.454 NA 
HETATM   13  H   UNL     1     -12.523   9.917  70.695  1.00  0.00     0.000 HD 
BRANCH  12  14
HETATM   14  C   UNL     1     -11.046  10.063  69.241  1.00  0.00    -0.206 C  
BRANCH  14  15
HETATM   15  C   UNL     1     -11.403  11.534  69.212  1.00  0.00    -0.353 A  
HETATM   16  C   UNL     1     -11.435  12.301  68.039  1.00  0.00    -0.321 A  
HETATM   17  O   UNL     1     -11.159  11.786  66.794  1.00  0.00    -0.277 OA 
HETATM   18  C   UNL     1     -11.765  13.653  68.083  1.00  0.00    -0.357 A  
HETATM   19  H   UNL     1     -11.182  12.305  65.999  1.00  0.00     0.000 HD 
HETATM   20  C   UNL     1     -12.043  14.271  69.292  1.00  0.00    -0.313 A  
HETATM   21  O   UNL     1     -11.831  14.387  66.928  1.00  0.00    -0.392 OA 
HETATM   22  H   UNL     1     -12.056  15.309  66.958  1.00  0.00     0.000 HD 
HETATM   23  C   UNL     1     -11.988  13.551  70.473  1.00  0.00    -0.344 A  
HETATM   24  O   UNL     1     -12.369  15.597  69.324  1.00  0.00    -0.584 OA 
HETATM   25  H   UNL     1     -12.560  16.021  70.153  1.00  0.00     0.000 HD 
HETATM   26  C   UNL     1     -11.666  12.188  70.434  1.00  0.00    -0.150 A  
ENDBRANCH  14  15
ENDBRANCH  12  14
ENDBRANCH  11  12
ENDBRANCH   3   8
TORSDOF 5
ENDMDL
MODEL      161
REMARK 921   NORMALIZED FREE ENERGY PREDICTED BY IDOCK:   -4.36 KCAL/MOL
REMARK 922        TOTAL FREE ENERGY PREDICTED BY IDOCK:   -6.08 KCAL/MOL
REMARK 923 INTER-LIGAND FREE ENERGY PREDICTED BY IDOCK:   -5.57 KCAL/MOL
REMARK 924 INTRA-LIGAND FREE ENERGY PREDICTED BY IDOCK:   -0.50 KCAL/MOL
REMARK 927      BINDING AFFINITY PREDICTED BY RF-SCORE:    0.00 PKD
ROOT
HETATM    1  N   UNL     1      -8.415  18.319  66.585  1.00  0.00    -0.258 NA 
HETATM    2  H1  UNL     1      -7.621  17.683  66.508  1.00  0.00     0.000 HD 
HETATM    3  CA  UNL     1      -8.868  18.450  67.999  1.00  0.00    -0.287 C  
HETATM    4  H2  UNL     1      -8.208  19.229  66.172  1.00  0.00     0.000 HD 
ENDROOT
BRANCH   3   5
HETATM    5  C   UNL     1     -10.062  19.406  68.114  1.00  0.00    -0.425 C  
HETATM    6  H   UNL     1     -11.197  20.439  66.883  1.00  0.00     0.000 HD 
HETATM    7  O   UNL     1     -10.458  19.847  66.812  1.00  0.00    -0.444 OA 
ENDBRANCH   3   5
BRANCH   3   8
HETATM    8  C   UNL     1      -9.213  17.077  68.582  1.00  0.00    -0.266 C  
HETATM    9  O   UNL     1      -8.410  16.362  69.180  1.00  0.00    -0.239 OA 
HETATM   10  H   UNL     1     -11.150  17.307  67.811  1.00  0.00     0.000 HD 
HETATM   11  N   UNL     1     -10.519  16.682  68.314  1.00  0.00    -0.304 N  
BRANCH  11  12
HETATM   12  N   UNL     1     -10.966  15.416  68.740  1.00  0.00    -0.251 NA 
HETATM   13  H   UNL     1     -11.572  15.489  69.557  1.00  0.00     0.000 HD 
BRANCH  12  14
HETATM   14  C   UNL     1     -11.622  14.681  67.644  1.00  0.00    -0.361 C  
BRANCH  14  15
HETATM   15  C   UNL     1     -10.994  13.323  67.413  1.00  0.00    -0.287 A  
HETATM   16  C   UNL     1      -9.819  13.128  66.674  1.00  0.00    -0.261 A  
HETATM   17  O   UNL     1      -9.113  14.157  66.095  1.00  0.00    -0.491 OA 
HETATM   18  C   UNL     1      -9.296  11.850  66.494  1.00  0.00    -0.216 A  
HETATM   19  H   UNL     1      -8.317  14.025  65.594  1.00  0.00     0.000 HD 
HETATM   20  C   UNL     1      -9.943  10.744  67.022  1.00  0.00    -0.197 A  
HETATM   21  O   UNL     1      -8.128  11.672  65.801  1.00  0.00    -0.357 OA 
HETATM   22  H   UNL     1      -7.771  10.800  65.679  1.00  0.00     0.000 HD 
HETATM   23  C   UNL     1     -11.123  10.897  67.730  1.00  0.00    -0.371 A  
HETATM   24  O   UNL     1      -9.420   9.495  66.843  1.00  0.00    -0.147 OA 
HETATM   25  H   UNL     1      -9.864   8.736  67.205  1.00  0.00     0.000 HD 
HETATM   26  C   UNL     1     -11.648  12.182  67.923  1.00  0.00    -0.413 A  
ENDBRANCH  14  15
ENDBRANCH  12  14
ENDBRANCH  11  12
ENDBRANCH   3   8
TORSDOF 5
ENDMDL
MODEL      162
REMARK 921   NORMALIZED FREE ENERGY PREDICTED BY IDOCK:   -4.33 KCAL/MOL
REMARK 922        TOTAL FREE ENERGY PREDICTED BY IDOCK:   -6.04 KCAL/MOL
REMARK 923 INTER-LIGAND FREE ENERGY PREDICTED BY IDOCK:   -5.64 KCAL/MOL
REMARK 924 INTRA-LIGAND FREE ENERGY PREDICTED BY IDOCK:   -0.40 KCAL/MOL
REMARK 927      BINDING AFFINITY PREDICTED BY RF-SCORE:    0.00 PKD
ROOT
HETATM    1  N   UNL     1      -6.591   7.228  64.846  1.00  0.00    -0.040 NA 
HETATM    2  H1  UNL     1      -6.115   7.548  64.002  1.00  0.00     0.000 HD 
HETATM    3  CA  UNL     1      -7.997   7.722  64.893  1.00  0.00    -0.139 C  
HETATM    4  H2  UNL     1      -6.547   6.213  64.939  1.00  0.00     0.000 HD 
ENDROOT
BRANCH   3   5
HETATM    5  C   UNL     1      -8.713   7.241  66.162  1.00  0.00    -0.155 C  
HETATM    6  H   UNL     1      -9.169   5.513  66.985  1.00  0.00     0.000 HD 
HETATM    7  O   UNL     1      -8.726   5.810  66.200  1.00  0.00    -0.129 OA 
ENDBRANCH   3   5
BRANCH   3   8
HETATM    8  C   UNL     1      -8.035   9.249  64.794  1.00  0.00    -0.123 C  
HETATM    9  O   UNL     1      -7.601  10.006  65.662  1.00  0.00    -0.123 OA 
HETATM   10  H   UNL     1      -9.017   9.041  62.953  1.00  0.00     0.000 HD 
HETATM   11  N   UNL     1      -8.669   9.706  63.645  1.00  0.00    -0.211 N  
BRANCH  11  12
HETATM   12  N   UNL     1      -8.830  11.091  63.441  1.00  0.00    -0.385 NA 
HETATM   13  H   UNL     1      -8.256  11.423  62.666  1.00  0.00     0.000 HD 
BRANCH  12  14
HETATM   14  C   UNL     1     -10.248  11.445  63.254  1.00  0.00    -0.385 C  
BRANCH  14  15
HETATM   15  C   UNL     1     -10.776  12.294  64.391  1.00  0.00    -0.369 A  
HETATM   16  C   UNL     1     -12.064  12.849  64.411  1.00  0.00    -0.410 A  
HETATM   17  O   UNL     1     -12.980  12.664  63.402  1.00  0.00    -0.649 OA 
HETATM   18  C   UNL     1     -12.486  13.627  65.487  1.00  0.00    -0.503 A  
HETATM   19  H   UNL     1     -13.852  13.039  63.416  1.00  0.00     0.000 HD 
HETATM   20  C   UNL     1     -11.631  13.888  66.546  1.00  0.00    -0.369 A  
HETATM   21  O   UNL     1     -13.758  14.135  65.515  1.00  0.00    -0.560 OA 
HETATM   22  H   UNL     1     -14.045  14.666  66.249  1.00  0.00     0.000 HD 
HETATM   23  C   UNL     1     -10.341  13.382  66.543  1.00  0.00    -0.284 A  
HETATM   24  O   UNL     1     -12.055  14.649  67.597  1.00  0.00    -0.558 OA 
HETATM   25  H   UNL     1     -11.469  14.828  68.324  1.00  0.00     0.000 HD 
HETATM   26  C   UNL     1      -9.915  12.590  65.468  1.00  0.00    -0.248 A  
ENDBRANCH  14  15
ENDBRANCH  12  14
ENDBRANCH  11  12
ENDBRANCH   3   8
TORSDOF 5
ENDMDL
MODEL      163
REMARK 921   NORMALIZED FREE ENERGY PREDICTED BY IDOCK:   -4.29 KCAL/MOL
REMARK 922        TOTAL FREE ENERGY PREDICTED BY IDOCK:   -5.99 KCAL/MOL
REMARK 923 INTER-LIGAND FREE ENERGY PREDICTED BY IDOCK:   -5.57 KCAL/MOL
REMARK 924 INTRA-LIGAND FREE ENERGY PREDICTED BY IDOCK:   -0.43 KCAL/MOL
REMARK 927      BINDING AFFINITY PREDICTED BY RF-SCORE:    0.00 PKD
ROOT
HETATM    1  N   UNL     1      -6.912  10.545  64.778  1.00  0.00    -0.348 NA 
HETATM    2  H1  UNL     1      -7.488  11.134  64.175  1.00  0.00     0.000 HD 
HETATM    3  CA  UNL     1      -7.715   9.444  65.383  1.00  0.00    -0.103 C  
HETATM    4  H2  UNL     1      -6.096  10.186  64.283  1.00  0.00     0.000 HD 
ENDROOT
BRANCH   3   5
HETATM    5  C   UNL     1      -6.850   8.559  66.290  1.00  0.00    -0.073 C  
HETATM    6  H   UNL     1      -6.757   6.653  66.768  1.00  0.00     0.000 HD 
HETATM    7  O   UNL     1      -7.292   7.201  66.206  1.00  0.00    -0.073 OA 
ENDBRANCH   3   5
BRANCH   3   8
HETATM    8  C   UNL     1      -8.909  10.011  66.155  1.00  0.00    -0.148 C  
HETATM    9  O   UNL     1     -10.056   9.573  66.066  1.00  0.00    -0.295 OA 
HETATM   10  H   UNL     1      -7.619  11.449  66.969  1.00  0.00     0.000 HD 
HETATM   11  N   UNL     1      -8.583  11.119  66.928  1.00  0.00    -0.143 N  
BRANCH  11  12
HETATM   12  N   UNL     1      -9.592  11.783  67.654  1.00  0.00    -0.180 NA 
HETATM   13  H   UNL     1      -9.568  11.533  68.642  1.00  0.00     0.000 HD 
BRANCH  12  14
HETATM   14  C   UNL     1      -9.516  13.243  67.465  1.00  0.00    -0.220 C  
BRANCH  14  15
HETATM   15  C   UNL     1     -10.411  13.718  66.339  1.00  0.00    -0.284 A  
HETATM   16  C   UNL     1     -10.324  14.995  65.766  1.00  0.00    -0.335 A  
HETATM   17  O   UNL     1      -9.405  15.937  66.162  1.00  0.00    -0.294 OA 
HETATM   18  C   UNL     1     -11.183  15.371  64.736  1.00  0.00    -0.395 A  
HETATM   19  H   UNL     1      -9.345  16.802  65.773  1.00  0.00     0.000 HD 
HETATM   20  C   UNL     1     -12.157  14.498  64.277  1.00  0.00    -0.425 A  
HETATM   21  O   UNL     1     -11.067  16.606  64.156  1.00  0.00    -1.338 OA 
HETATM   22  H   UNL     1     -11.654  16.863  63.454  1.00  0.00     0.000 HD 
HETATM   23  C   UNL     1     -12.292  13.242  64.844  1.00  0.00    -0.476 A  
HETATM   24  O   UNL     1     -12.993  14.876  63.265  1.00  0.00    -0.051 OA 
HETATM   25  H   UNL     1     -13.661  14.278  62.950  1.00  0.00     0.000 HD 
HETATM   26  C   UNL     1     -11.424  12.854  65.873  1.00  0.00    -0.387 A  
ENDBRANCH  14  15
ENDBRANCH  12  14
ENDBRANCH  11  12
ENDBRANCH   3   8
TORSDOF 5
ENDMDL
MODEL      164
REMARK 921   NORMALIZED FREE ENERGY PREDICTED BY IDOCK:   -4.28 KCAL/MOL
REMARK 922        TOTAL FREE ENERGY PREDICTED BY IDOCK:   -5.99 KCAL/MOL
REMARK 923 INTER-LIGAND FREE ENERGY PREDICTED BY IDOCK:   -5.21 KCAL/MOL
REMARK 924 INTRA-LIGAND FREE ENERGY PREDICTED BY IDOCK:   -0.77 KCAL/MOL
REMARK 927      BINDING AFFINITY PREDICTED BY RF-SCORE:    0.00 PKD
ROOT
HETATM    1  N   UNL     1      -8.748   8.322  63.575  1.00  0.00    -0.384 NA 
HETATM    2  H1  UNL     1      -9.559   7.732  63.765  1.00  0.00     0.000 HD 
HETATM    3  CA  UNL     1      -8.396   9.156  64.759  1.00  0.00    -0.169 C  
HETATM    4  H2  UNL     1      -7.951   7.771  63.254  1.00  0.00     0.000 HD 
ENDROOT
BRANCH   3   5
HETATM    5  C   UNL     1      -7.177  10.043  64.473  1.00  0.00    -0.139 C  
HETATM    6  H   UNL     1      -5.844  11.033  65.527  1.00  0.00     0.000 HD 
HETATM    7  O   UNL     1      -6.598  10.484  65.705  1.00  0.00    -0.124 OA 
ENDBRANCH   3   5
BRANCH   3   8
HETATM    8  C   UNL     1      -9.594  10.004  65.195  1.00  0.00    -0.291 C  
HETATM    9  O   UNL     1     -10.343   9.709  66.126  1.00  0.00    -0.230 OA 
HETATM   10  H   UNL     1      -9.150  11.323  63.627  1.00  0.00     0.000 HD 
HETATM   11  N   UNL     1      -9.795  11.119  64.390  1.00  0.00    -0.263 N  
BRANCH  11  12
HETATM   12  N   UNL     1     -10.894  11.966  64.636  1.00  0.00    -0.298 NA 
HETATM   13  H   UNL     1     -11.420  11.668  65.456  1.00  0.00     0.000 HD 
BRANCH  12  14
HETATM   14  C   UNL     1     -10.473  13.375  64.746  1.00  0.00    -0.403 C  
BRANCH  14  15
HETATM   15  C   UNL     1     -10.361  13.823  66.188  1.00  0.00    -0.301 A  
HETATM   16  C   UNL     1      -9.241  13.573  66.993  1.00  0.00    -0.246 A  
HETATM   17  O   UNL     1      -8.125  12.905  66.545  1.00  0.00    -0.381 OA 
HETATM   18  C   UNL     1      -9.205  14.008  68.316  1.00  0.00    -0.200 A  
HETATM   19  H   UNL     1      -7.366  12.736  67.091  1.00  0.00     0.000 HD 
HETATM   20  C   UNL     1     -10.288  14.674  68.868  1.00  0.00    -0.245 A  
HETATM   21  O   UNL     1      -8.092  13.791  69.085  1.00  0.00    -0.337 OA 
HETATM   22  H   UNL     1      -8.068  14.089  69.987  1.00  0.00     0.000 HD 
HETATM   23  C   UNL     1     -11.423  14.910  68.110  1.00  0.00    -0.348 A  
HETATM   24  O   UNL     1     -10.241  15.100  70.165  1.00  0.00    -0.477 OA 
HETATM   25  H   UNL     1     -10.983  15.557  70.543  1.00  0.00     0.000 HD 
HETATM   26  C   UNL     1     -11.460  14.483  66.776  1.00  0.00    -0.376 A  
ENDBRANCH  14  15
ENDBRANCH  12  14
ENDBRANCH  11  12
ENDBRANCH   3   8
TORSDOF 5
ENDMDL
MODEL      165
REMARK 921   NORMALIZED FREE ENERGY PREDICTED BY IDOCK:   -4.26 KCAL/MOL
REMARK 922        TOTAL FREE ENERGY PREDICTED BY IDOCK:   -5.95 KCAL/MOL
REMARK 923 INTER-LIGAND FREE ENERGY PREDICTED BY IDOCK:   -5.82 KCAL/MOL
REMARK 924 INTRA-LIGAND FREE ENERGY PREDICTED BY IDOCK:   -0.13 KCAL/MOL
REMARK 927      BINDING AFFINITY PREDICTED BY RF-SCORE:    0.00 PKD
ROOT
HETATM    1  N   UNL     1      -8.193  13.185  68.701  1.00  0.00    -0.330 NA 
HETATM    2  H1  UNL     1      -9.134  12.871  68.940  1.00  0.00     0.000 HD 
HETATM    3  CA  UNL     1      -8.169  14.648  68.414  1.00  0.00    -0.154 C  
HETATM    4  H2  UNL     1      -7.520  12.934  69.426  1.00  0.00     0.000 HD 
ENDROOT
BRANCH   3   5
HETATM    5  C   UNL     1      -6.754  15.121  68.056  1.00  0.00    -0.141 C  
HETATM    6  H   UNL     1      -5.172  14.366  67.162  1.00  0.00     0.000 HD 
HETATM    7  O   UNL     1      -6.048  14.073  67.384  1.00  0.00    -0.345 OA 
ENDBRANCH   3   5
BRANCH   3   8
HETATM    8  C   UNL     1      -9.156  14.993  67.296  1.00  0.00    -0.201 C  
HETATM    9  O   UNL     1      -9.643  16.110  67.128  1.00  0.00    -0.225 OA 
HETATM   10  H   UNL     1      -9.077  12.985  66.694  1.00  0.00     0.000 HD 
HETATM   11  N   UNL     1      -9.503  13.895  66.517  1.00  0.00    -0.283 N  
BRANCH  11  12
HETATM   12  N   UNL     1     -10.447  14.046  65.481  1.00  0.00    -0.311 NA 
HETATM   13  H   UNL     1     -10.130  13.603  64.619  1.00  0.00     0.000 HD 
BRANCH  12  14
HETATM   14  C   UNL     1     -11.774  13.550  65.887  1.00  0.00    -0.352 C  
BRANCH  14  15
HETATM   15  C   UNL     1     -11.732  12.841  67.225  1.00  0.00    -0.440 A  
HETATM   16  C   UNL     1     -11.964  13.483  68.449  1.00  0.00    -0.343 A  
HETATM   17  O   UNL     1     -12.268  14.820  68.554  1.00  0.00    -0.580 OA 
HETATM   18  C   UNL     1     -11.903  12.773  69.646  1.00  0.00    -0.317 A  
HETATM   19  H   UNL     1     -12.425  15.255  69.384  1.00  0.00     0.000 HD 
HETATM   20  C   UNL     1     -11.586  11.424  69.650  1.00  0.00    -0.330 A  
HETATM   21  O   UNL     1     -12.168  13.400  70.835  1.00  0.00    -0.380 OA 
HETATM   22  H   UNL     1     -12.126  12.915  71.652  1.00  0.00     0.000 HD 
HETATM   23  C   UNL     1     -11.319  10.767  68.460  1.00  0.00    -0.360 A  
HETATM   24  O   UNL     1     -11.533  10.736  70.828  1.00  0.00    -0.369 OA 
HETATM   25  H   UNL     1     -11.316   9.811  70.831  1.00  0.00     0.000 HD 
HETATM   26  C   UNL     1     -11.389  11.474  67.252  1.00  0.00    -0.359 A  
ENDBRANCH  14  15
ENDBRANCH  12  14
ENDBRANCH  11  12
ENDBRANCH   3   8
TORSDOF 5
ENDMDL
MODEL      166
REMARK 921   NORMALIZED FREE ENERGY PREDICTED BY IDOCK:   -4.26 KCAL/MOL
REMARK 922        TOTAL FREE ENERGY PREDICTED BY IDOCK:   -5.95 KCAL/MOL
REMARK 923 INTER-LIGAND FREE ENERGY PREDICTED BY IDOCK:   -5.81 KCAL/MOL
REMARK 924 INTRA-LIGAND FREE ENERGY PREDICTED BY IDOCK:   -0.14 KCAL/MOL
REMARK 927      BINDING AFFINITY PREDICTED BY RF-SCORE:    0.00 PKD
ROOT
HETATM    1  N   UNL     1     -11.983  15.496  72.975  1.00  0.00    -0.439 NA 
HETATM    2  H1  UNL     1     -12.671  15.436  73.725  1.00  0.00     0.000 HD 
HETATM    3  CA  UNL     1     -12.560  15.047  71.675  1.00  0.00    -0.339 C  
HETATM    4  H2  UNL     1     -11.584  16.432  72.905  1.00  0.00     0.000 HD 
ENDROOT
BRANCH   3   5
HETATM    5  C   UNL     1     -11.524  15.136  70.547  1.00  0.00    -0.304 C  
HETATM    6  H   UNL     1     -11.451  15.868  68.722  1.00  0.00     0.000 HD 
HETATM    7  O   UNL     1     -12.092  15.813  69.421  1.00  0.00    -0.354 OA 
ENDBRANCH   3   5
BRANCH   3   8
HETATM    8  C   UNL     1     -13.112  13.624  71.795  1.00  0.00    -0.382 C  
HETATM    9  O   UNL     1     -13.971  13.286  72.608  1.00  0.00    -0.741 OA 
HETATM   10  H   UNL     1     -11.788  13.051  70.273  1.00  0.00     0.000 HD 
HETATM   11  N   UNL     1     -12.499  12.727  70.929  1.00  0.00    -0.345 N  
BRANCH  11  12
HETATM   12  N   UNL     1     -12.864  11.366  70.962  1.00  0.00    -0.324 NA 
HETATM   13  H   UNL     1     -13.460  11.119  70.172  1.00  0.00     0.000 HD 
BRANCH  12  14
HETATM   14  C   UNL     1     -11.679  10.493  71.038  1.00  0.00    -0.289 C  
BRANCH  14  15
HETATM   15  C   UNL     1     -11.241  10.008  69.672  1.00  0.00    -0.285 A  
HETATM   16  C   UNL     1     -10.842   8.690  69.409  1.00  0.00    -0.095 A  
HETATM   17  O   UNL     1     -10.821   7.703  70.367  1.00  0.00    -0.236 OA 
HETATM   18  C   UNL     1     -10.444   8.310  68.130  1.00  0.00    -0.171 A  
HETATM   19  H   UNL     1     -10.551   6.811  70.189  1.00  0.00     0.000 HD 
HETATM   20  C   UNL     1     -10.412   9.235  67.098  1.00  0.00    -0.249 A  
HETATM   21  O   UNL     1     -10.091   7.012  67.873  1.00  0.00    -0.154 OA 
HETATM   22  H   UNL     1      -9.820   6.753  67.000  1.00  0.00     0.000 HD 
HETATM   23  C   UNL     1     -10.769  10.553  67.331  1.00  0.00    -0.334 A  
HETATM   24  O   UNL     1     -10.024   8.851  65.846  1.00  0.00    -0.441 OA 
HETATM   25  H   UNL     1     -10.003   9.486  65.139  1.00  0.00     0.000 HD 
HETATM   26  C   UNL     1     -11.180  10.939  68.614  1.00  0.00    -0.326 A  
ENDBRANCH  14  15
ENDBRANCH  12  14
ENDBRANCH  11  12
ENDBRANCH   3   8
TORSDOF 5
ENDMDL
MODEL      167
REMARK 921   NORMALIZED FREE ENERGY PREDICTED BY IDOCK:   -4.25 KCAL/MOL
REMARK 922        TOTAL FREE ENERGY PREDICTED BY IDOCK:   -5.94 KCAL/MOL
REMARK 923 INTER-LIGAND FREE ENERGY PREDICTED BY IDOCK:   -5.44 KCAL/MOL
REMARK 924 INTRA-LIGAND FREE ENERGY PREDICTED BY IDOCK:   -0.50 KCAL/MOL
REMARK 927      BINDING AFFINITY PREDICTED BY RF-SCORE:    0.00 PKD
ROOT
HETATM    1  N   UNL     1     -11.657   8.888  70.379  1.00  0.00    -0.440 NA 
HETATM    2  H1  UNL     1     -11.218   9.747  70.047  1.00  0.00     0.000 HD 
HETATM    3  CA  UNL     1     -10.695   7.749  70.361  1.00  0.00    -0.236 C  
HETATM    4  H2  UNL     1     -12.074   9.012  71.301  1.00  0.00     0.000 HD 
ENDROOT
BRANCH   3   5
HETATM    5  C   UNL     1     -11.354   6.457  70.860  1.00  0.00    -0.338 C  
HETATM    6  H   UNL     1     -12.639   5.950  72.261  1.00  0.00     0.000 HD 
HETATM    7  O   UNL     1     -12.231   6.750  71.952  1.00  0.00    -0.329 OA 
ENDBRANCH   3   5
BRANCH   3   8
HETATM    8  C   UNL     1     -10.115   7.556  68.957  1.00  0.00    -0.192 C  
HETATM    9  O   UNL     1      -9.966   6.460  68.420  1.00  0.00    -0.133 OA 
HETATM   10  H   UNL     1      -9.852   9.634  68.850  1.00  0.00     0.000 HD 
HETATM   11  N   UNL     1      -9.711   8.747  68.366  1.00  0.00    -0.158 N  
BRANCH  11  12
HETATM   12  N   UNL     1      -9.106   8.723  67.093  1.00  0.00    -0.130 NA 
HETATM   13  H   UNL     1      -9.757   8.404  66.376  1.00  0.00     0.000 HD 
BRANCH  12  14
HETATM   14  C   UNL     1      -8.523  10.033  66.750  1.00  0.00    -0.125 C  
BRANCH  14  15
HETATM   15  C   UNL     1      -9.488  10.897  65.967  1.00  0.00    -0.235 A  
HETATM   16  C   UNL     1      -9.916  10.597  64.666  1.00  0.00    -0.337 A  
HETATM   17  O   UNL     1      -9.510   9.478  63.978  1.00  0.00    -0.408 OA 
HETATM   18  C   UNL     1     -10.802  11.440  63.997  1.00  0.00    -0.383 A  
HETATM   19  H   UNL     1      -9.800   9.274  63.097  1.00  0.00     0.000 HD 
HETATM   20  C   UNL     1     -11.256  12.603  64.597  1.00  0.00    -0.310 A  
HETATM   21  O   UNL     1     -11.244  11.120  62.740  1.00  0.00    -0.703 OA 
HETATM   22  H   UNL     1     -11.848  11.695  62.285  1.00  0.00     0.000 HD 
HETATM   23  C   UNL     1     -10.828  12.946  65.869  1.00  0.00    -0.294 A  
HETATM   24  O   UNL     1     -12.127  13.420  63.934  1.00  0.00    -0.454 OA 
HETATM   25  H   UNL     1     -12.439  14.218  64.346  1.00  0.00     0.000 HD 
HETATM   26  C   UNL     1      -9.945  12.098  66.550  1.00  0.00    -0.230 A  
ENDBRANCH  14  15
ENDBRANCH  12  14
ENDBRANCH  11  12
ENDBRANCH   3   8
TORSDOF 5
ENDMDL
MODEL      168
REMARK 921   NORMALIZED FREE ENERGY PREDICTED BY IDOCK:   -4.25 KCAL/MOL
REMARK 922        TOTAL FREE ENERGY PREDICTED BY IDOCK:   -5.94 KCAL/MOL
REMARK 923 INTER-LIGAND FREE ENERGY PREDICTED BY IDOCK:   -5.60 KCAL/MOL
REMARK 924 INTRA-LIGAND FREE ENERGY PREDICTED BY IDOCK:   -0.33 KCAL/MOL
REMARK 927      BINDING AFFINITY PREDICTED BY RF-SCORE:    0.00 PKD
ROOT
HETATM    1  N   UNL     1     -10.042  13.987  65.250  1.00  0.00    -0.499 NA 
HETATM    2  H1  UNL     1      -9.160  14.420  65.523  1.00  0.00     0.000 HD 
HETATM    3  CA  UNL     1     -11.189  14.582  65.994  1.00  0.00    -0.337 C  
HETATM    4  H2  UNL     1     -10.186  14.032  64.241  1.00  0.00     0.000 HD 
ENDROOT
BRANCH   3   5
HETATM    5  C   UNL     1     -12.516  13.930  65.584  1.00  0.00    -0.505 C  
HETATM    6  H   UNL     1     -13.085  12.420  64.460  1.00  0.00     0.000 HD 
HETATM    7  O   UNL     1     -12.264  12.823  64.713  1.00  0.00    -0.406 OA 
ENDBRANCH   3   5
BRANCH   3   8
HETATM    8  C   UNL     1     -10.969  14.465  67.505  1.00  0.00    -0.293 C  
HETATM    9  O   UNL     1     -10.522  15.370  68.207  1.00  0.00    -0.234 OA 
HETATM   10  H   UNL     1     -11.635  12.480  67.383  1.00  0.00     0.000 HD 
HETATM   11  N   UNL     1     -11.268  13.202  68.003  1.00  0.00    -0.262 N  
BRANCH  11  12
HETATM   12  N   UNL     1     -11.063  12.926  69.369  1.00  0.00    -0.453 NA 
HETATM   13  H   UNL     1     -11.130  13.771  69.936  1.00  0.00     0.000 HD 
BRANCH  12  14
HETATM   14  C   UNL     1     -11.984  11.879  69.849  1.00  0.00    -0.325 C  
BRANCH  14  15
HETATM   15  C   UNL     1     -11.341  10.508  69.840  1.00  0.00    -0.380 A  
HETATM   16  C   UNL     1     -11.142   9.754  68.675  1.00  0.00    -0.093 A  
HETATM   17  O   UNL     1     -11.500  10.193  67.422  1.00  0.00    -0.455 OA 
HETATM   18  C   UNL     1     -10.549   8.495  68.737  1.00  0.00    -0.133 A  
HETATM   19  H   UNL     1     -11.365   9.682  66.633  1.00  0.00     0.000 HD 
HETATM   20  C   UNL     1     -10.168   7.954  69.955  1.00  0.00    -0.210 A  
HETATM   21  O   UNL     1     -10.325   7.780  67.590  1.00  0.00    -0.206 OA 
HETATM   22  H   UNL     1      -9.920   6.921  67.632  1.00  0.00     0.000 HD 
HETATM   23  C   UNL     1     -10.380   8.659  71.128  1.00  0.00    -0.294 A  
HETATM   24  O   UNL     1      -9.584   6.721  70.004  1.00  0.00    -0.157 OA 
HETATM   25  H   UNL     1      -9.323   6.350  70.839  1.00  0.00     0.000 HD 
HETATM   26  C   UNL     1     -10.966   9.931  71.071  1.00  0.00    -0.360 A  
ENDBRANCH  14  15
ENDBRANCH  12  14
ENDBRANCH  11  12
ENDBRANCH   3   8
TORSDOF 5
ENDMDL
MODEL      169
REMARK 921   NORMALIZED FREE ENERGY PREDICTED BY IDOCK:   -4.23 KCAL/MOL
REMARK 922        TOTAL FREE ENERGY PREDICTED BY IDOCK:   -5.92 KCAL/MOL
REMARK 923 INTER-LIGAND FREE ENERGY PREDICTED BY IDOCK:   -5.62 KCAL/MOL
REMARK 924 INTRA-LIGAND FREE ENERGY PREDICTED BY IDOCK:   -0.30 KCAL/MOL
REMARK 927      BINDING AFFINITY PREDICTED BY RF-SCORE:    0.00 PKD
ROOT
HETATM    1  N   UNL     1      -6.413   3.644  71.148  1.00  0.00    -0.022 NA 
HETATM    2  H1  UNL     1      -6.468   3.913  70.165  1.00  0.00     0.000 HD 
HETATM    3  CA  UNL     1      -7.718   3.854  71.839  1.00  0.00    -0.066 C  
HETATM    4  H2  UNL     1      -6.081   2.685  71.257  1.00  0.00     0.000 HD 
ENDROOT
BRANCH   3   5
HETATM    5  C   UNL     1      -7.636   3.450  73.317  1.00  0.00    -0.061 C  
HETATM    6  H   UNL     1      -8.686   2.348  74.563  1.00  0.00     0.000 HD 
HETATM    7  O   UNL     1      -8.737   2.598  73.648  1.00  0.00    -0.071 OA 
ENDBRANCH   3   5
BRANCH   3   8
HETATM    8  C   UNL     1      -8.173   5.308  71.697  1.00  0.00    -0.118 C  
HETATM    9  O   UNL     1      -7.903   6.195  72.506  1.00  0.00    -0.102 OA 
HETATM   10  H   UNL     1      -9.185   4.754  69.946  1.00  0.00     0.000 HD 
HETATM   11  N   UNL     1      -8.984   5.521  70.588  1.00  0.00    -0.142 N  
BRANCH  11  12
HETATM   12  N   UNL     1      -9.526   6.800  70.356  1.00  0.00    -0.166 NA 
HETATM   13  H   UNL     1      -9.085   7.254  69.557  1.00  0.00     0.000 HD 
BRANCH  12  14
HETATM   14  C   UNL     1     -10.992   6.743  70.205  1.00  0.00    -0.291 C  
BRANCH  14  15
HETATM   15  C   UNL     1     -11.672   7.956  70.802  1.00  0.00    -0.230 A  
HETATM   16  C   UNL     1     -12.687   7.879  71.767  1.00  0.00    -0.329 A  
HETATM   17  O   UNL     1     -13.154   6.690  72.276  1.00  0.00    -0.546 OA 
HETATM   18  C   UNL     1     -13.277   9.036  72.271  1.00  0.00    -0.460 A  
HETATM   19  H   UNL     1     -13.841   6.638  72.930  1.00  0.00     0.000 HD 
HETATM   20  C   UNL     1     -12.889  10.284  71.810  1.00  0.00    -0.460 A  
HETATM   21  O   UNL     1     -14.242   8.953  73.241  1.00  0.00    -1.197 OA 
HETATM   22  H   UNL     1     -14.644   9.742  73.585  1.00  0.00     0.000 HD 
HETATM   23  C   UNL     1     -11.913  10.394  70.834  1.00  0.00    -0.478 A  
HETATM   24  O   UNL     1     -13.472  11.411  72.313  1.00  0.00    -0.601 OA 
HETATM   25  H   UNL     1     -13.206  12.267  71.997  1.00  0.00     0.000 HD 
HETATM   26  C   UNL     1     -11.309   9.235  70.330  1.00  0.00    -0.283 A  
ENDBRANCH  14  15
ENDBRANCH  12  14
ENDBRANCH  11  12
ENDBRANCH   3   8
TORSDOF 5
ENDMDL
MODEL      170
REMARK 921   NORMALIZED FREE ENERGY PREDICTED BY IDOCK:   -4.23 KCAL/MOL
REMARK 922        TOTAL FREE ENERGY PREDICTED BY IDOCK:   -5.91 KCAL/MOL
REMARK 923 INTER-LIGAND FREE ENERGY PREDICTED BY IDOCK:   -5.59 KCAL/MOL
REMARK 924 INTRA-LIGAND FREE ENERGY PREDICTED BY IDOCK:   -0.32 KCAL/MOL
REMARK 927      BINDING AFFINITY PREDICTED BY RF-SCORE:    0.00 PKD
ROOT
HETATM    1  N   UNL     1     -10.359  17.541  68.471  1.00  0.00    -0.369 NA 
HETATM    2  H1  UNL     1     -10.874  16.789  68.930  1.00  0.00     0.000 HD 
HETATM    3  CA  UNL     1     -10.478  17.449  66.988  1.00  0.00    -0.284 C  
HETATM    4  H2  UNL     1     -10.648  18.457  68.814  1.00  0.00     0.000 HD 
ENDROOT
BRANCH   3   5
HETATM    5  C   UNL     1      -9.704  18.579  66.296  1.00  0.00    -0.305 C  
HETATM    6  H   UNL     1      -8.579  20.095  66.850  1.00  0.00     0.000 HD 
HETATM    7  O   UNL     1      -9.058  19.395  67.278  1.00  0.00    -0.288 OA 
ENDBRANCH   3   5
BRANCH   3   8
HETATM    8  C   UNL     1     -10.000  16.081  66.494  1.00  0.00    -0.279 C  
HETATM    9  O   UNL     1      -8.927  15.893  65.922  1.00  0.00    -0.323 OA 
HETATM   10  H   UNL     1     -11.810  15.272  67.176  1.00  0.00     0.000 HD 
HETATM   11  N   UNL     1     -10.931  15.070  66.700  1.00  0.00    -0.323 N  
BRANCH  11  12
HETATM   12  N   UNL     1     -10.654  13.765  66.247  1.00  0.00    -0.286 NA 
HETATM   13  H   UNL     1      -9.788  13.406  66.647  1.00  0.00     0.000 HD 
BRANCH  12  14
HETATM   14  C   UNL     1     -11.786  12.856  66.505  1.00  0.00    -0.407 C  
BRANCH  14  15
HETATM   15  C   UNL     1     -11.558  11.997  67.731  1.00  0.00    -0.400 A  
HETATM   16  C   UNL     1     -10.964  10.727  67.688  1.00  0.00    -0.306 A  
HETATM   17  O   UNL     1     -10.517  10.143  66.526  1.00  0.00    -0.222 OA 
HETATM   18  C   UNL     1     -10.788   9.986  68.854  1.00  0.00    -0.220 A  
HETATM   19  H   UNL     1     -10.114   9.284  66.497  1.00  0.00     0.000 HD 
HETATM   20  C   UNL     1     -11.221  10.479  70.074  1.00  0.00    -0.315 A  
HETATM   21  O   UNL     1     -10.174   8.762  68.808  1.00  0.00    -0.197 OA 
HETATM   22  H   UNL     1     -10.054   8.256  69.604  1.00  0.00     0.000 HD 
HETATM   23  C   UNL     1     -11.841  11.715  70.148  1.00  0.00    -0.428 A  
HETATM   24  O   UNL     1     -11.041   9.745  71.212  1.00  0.00    -0.355 OA 
HETATM   25  H   UNL     1     -11.338  10.083  72.049  1.00  0.00     0.000 HD 
HETATM   26  C   UNL     1     -12.011  12.470  68.980  1.00  0.00    -0.280 A  
ENDBRANCH  14  15
ENDBRANCH  12  14
ENDBRANCH  11  12
ENDBRANCH   3   8
TORSDOF 5
ENDMDL
MODEL      171
REMARK 921   NORMALIZED FREE ENERGY PREDICTED BY IDOCK:   -4.22 KCAL/MOL
REMARK 922        TOTAL FREE ENERGY PREDICTED BY IDOCK:   -5.91 KCAL/MOL
REMARK 923 INTER-LIGAND FREE ENERGY PREDICTED BY IDOCK:   -5.42 KCAL/MOL
REMARK 924 INTRA-LIGAND FREE ENERGY PREDICTED BY IDOCK:   -0.49 KCAL/MOL
REMARK 927      BINDING AFFINITY PREDICTED BY RF-SCORE:    0.00 PKD
ROOT
HETATM    1  N   UNL     1     -11.271   9.665  68.176  1.00  0.00    -0.514 NA 
HETATM    2  H1  UNL     1     -12.268   9.546  68.356  1.00  0.00     0.000 HD 
HETATM    3  CA  UNL     1     -10.673  10.676  69.093  1.00  0.00    -0.228 C  
HETATM    4  H2  UNL     1     -10.773   8.775  68.222  1.00  0.00     0.000 HD 
ENDROOT
BRANCH   3   5
HETATM    5  C   UNL     1      -9.174  10.855  68.822  1.00  0.00    -0.183 C  
HETATM    6  H   UNL     1      -7.900  10.344  67.413  1.00  0.00     0.000 HD 
HETATM    7  O   UNL     1      -8.827  10.233  67.581  1.00  0.00    -0.122 OA 
ENDBRANCH   3   5
BRANCH   3   8
HETATM    8  C   UNL     1     -11.410  12.013  68.974  1.00  0.00    -0.275 C  
HETATM    9  O   UNL     1     -11.715  12.718  69.935  1.00  0.00    -0.302 OA 
HETATM   10  H   UNL     1     -11.489  11.711  66.900  1.00  0.00     0.000 HD 
HETATM   11  N   UNL     1     -11.761  12.327  67.666  1.00  0.00    -0.350 N  
BRANCH  11  12
HETATM   12  N   UNL     1     -12.493  13.503  67.405  1.00  0.00    -0.239 NA 
HETATM   13  H   UNL     1     -12.585  14.079  68.241  1.00  0.00     0.000 HD 
BRANCH  12  14
HETATM   14  C   UNL     1     -11.908  14.262  66.286  1.00  0.00    -0.406 C  
BRANCH  14  15
HETATM   15  C   UNL     1     -11.010  15.383  66.767  1.00  0.00    -0.282 A  
HETATM   16  C   UNL     1      -9.933  15.886  66.024  1.00  0.00    -0.334 A  
HETATM   17  O   UNL     1      -9.594  15.418  64.776  1.00  0.00    -0.145 OA 
HETATM   18  C   UNL     1      -9.141  16.915  66.528  1.00  0.00    -0.273 A  
HETATM   19  H   UNL     1      -8.864  15.759  64.272  1.00  0.00     0.000 HD 
HETATM   20  C   UNL     1      -9.389  17.443  67.785  1.00  0.00    -0.255 A  
HETATM   21  O   UNL     1      -8.113  17.426  65.780  1.00  0.00    -0.543 OA 
HETATM   22  H   UNL     1      -7.573  18.128  66.124  1.00  0.00     0.000 HD 
HETATM   23  C   UNL     1     -10.425  16.948  68.559  1.00  0.00    -0.361 A  
HETATM   24  O   UNL     1      -8.609  18.455  68.268  1.00  0.00    -0.287 OA 
HETATM   25  H   UNL     1      -8.779  18.818  69.130  1.00  0.00     0.000 HD 
HETATM   26  C   UNL     1     -11.231  15.919  68.052  1.00  0.00    -0.319 A  
ENDBRANCH  14  15
ENDBRANCH  12  14
ENDBRANCH  11  12
ENDBRANCH   3   8
TORSDOF 5
ENDMDL
MODEL      172
REMARK 921   NORMALIZED FREE ENERGY PREDICTED BY IDOCK:   -4.22 KCAL/MOL
REMARK 922        TOTAL FREE ENERGY PREDICTED BY IDOCK:   -5.91 KCAL/MOL
REMARK 923 INTER-LIGAND FREE ENERGY PREDICTED BY IDOCK:   -5.39 KCAL/MOL
REMARK 924 INTRA-LIGAND FREE ENERGY PREDICTED BY IDOCK:   -0.51 KCAL/MOL
REMARK 927      BINDING AFFINITY PREDICTED BY RF-SCORE:    0.00 PKD
ROOT
HETATM    1  N   UNL     1      -6.467  16.329  69.531  1.00  0.00    -0.197 NA 
HETATM    2  H1  UNL     1      -6.645  15.435  69.989  1.00  0.00     0.000 HD 
HETATM    3  CA  UNL     1      -7.672  16.810  68.797  1.00  0.00    -0.242 C  
HETATM    4  H2  UNL     1      -6.128  17.028  70.193  1.00  0.00     0.000 HD 
ENDROOT
BRANCH   3   5
HETATM    5  C   UNL     1      -7.405  18.155  68.109  1.00  0.00    -0.251 C  
HETATM    6  H   UNL     1      -7.740  20.054  68.493  1.00  0.00     0.000 HD 
HETATM    7  O   UNL     1      -7.905  19.222  68.919  1.00  0.00    -0.351 OA 
ENDBRANCH   3   5
BRANCH   3   8
HETATM    8  C   UNL     1      -8.136  15.762  67.781  1.00  0.00    -0.144 C  
HETATM    9  O   UNL     1      -7.542  14.708  67.560  1.00  0.00    -0.166 OA 
HETATM   10  H   UNL     1      -9.729  17.035  67.292  1.00  0.00     0.000 HD 
HETATM   11  N   UNL     1      -9.271  16.149  67.078  1.00  0.00    -0.205 N  
BRANCH  11  12
HETATM   12  N   UNL     1      -9.785  15.311  66.069  1.00  0.00    -0.311 NA 
HETATM   13  H   UNL     1      -9.227  14.464  65.966  1.00  0.00     0.000 HD 
BRANCH  12  14
HETATM   14  C   UNL     1     -11.206  14.997  66.303  1.00  0.00    -0.309 C  
BRANCH  14  15
HETATM   15  C   UNL     1     -11.392  14.016  67.441  1.00  0.00    -0.350 A  
HETATM   16  C   UNL     1     -11.805  14.391  68.728  1.00  0.00    -0.325 A  
HETATM   17  O   UNL     1     -12.096  15.689  69.078  1.00  0.00    -0.545 OA 
HETATM   18  C   UNL     1     -11.950  13.438  69.733  1.00  0.00    -0.330 A  
HETATM   19  H   UNL     1     -12.376  15.943  69.949  1.00  0.00     0.000 HD 
HETATM   20  C   UNL     1     -11.665  12.105  69.486  1.00  0.00    -0.336 A  
HETATM   21  O   UNL     1     -12.390  13.807  70.977  1.00  0.00    -0.355 OA 
HETATM   22  H   UNL     1     -12.489  13.157  71.662  1.00  0.00     0.000 HD 
HETATM   23  C   UNL     1     -11.223  11.705  68.235  1.00  0.00    -0.320 A  
HETATM   24  O   UNL     1     -11.814  11.178  70.478  1.00  0.00    -0.337 OA 
HETATM   25  H   UNL     1     -11.618  10.263  70.309  1.00  0.00     0.000 HD 
HETATM   26  C   UNL     1     -11.085  12.658  67.218  1.00  0.00    -0.320 A  
ENDBRANCH  14  15
ENDBRANCH  12  14
ENDBRANCH  11  12
ENDBRANCH   3   8
TORSDOF 5
ENDMDL
MODEL      173
REMARK 921   NORMALIZED FREE ENERGY PREDICTED BY IDOCK:   -4.21 KCAL/MOL
REMARK 922        TOTAL FREE ENERGY PREDICTED BY IDOCK:   -5.89 KCAL/MOL
REMARK 923 INTER-LIGAND FREE ENERGY PREDICTED BY IDOCK:   -5.35 KCAL/MOL
REMARK 924 INTRA-LIGAND FREE ENERGY PREDICTED BY IDOCK:   -0.54 KCAL/MOL
REMARK 927      BINDING AFFINITY PREDICTED BY RF-SCORE:    0.00 PKD
ROOT
HETATM    1  N   UNL     1      -8.847  11.663  62.508  1.00  0.00    -0.532 NA 
HETATM    2  H1  UNL     1      -9.485  12.426  62.280  1.00  0.00     0.000 HD 
HETATM    3  CA  UNL     1      -9.593  10.445  62.935  1.00  0.00    -0.295 C  
HETATM    4  H2  UNL     1      -8.212  11.462  61.735  1.00  0.00     0.000 HD 
ENDROOT
BRANCH   3   5
HETATM    5  C   UNL     1      -8.634   9.297  63.278  1.00  0.00    -0.201 C  
HETATM    6  H   UNL     1      -6.689   9.055  63.447  1.00  0.00     0.000 HD 
HETATM    7  O   UNL     1      -7.282   9.765  63.235  1.00  0.00    -0.112 OA 
ENDBRANCH   3   5
BRANCH   3   8
HETATM    8  C   UNL     1     -10.506  10.762  64.123  1.00  0.00    -0.239 C  
HETATM    9  O   UNL     1     -11.482  11.509  64.059  1.00  0.00    -0.350 OA 
HETATM   10  H   UNL     1      -9.268   9.560  65.314  1.00  0.00     0.000 HD 
HETATM   11  N   UNL     1     -10.086  10.170  65.308  1.00  0.00    -0.314 N  
BRANCH  11  12
HETATM   12  N   UNL     1     -10.796  10.416  66.499  1.00  0.00    -0.094 NA 
HETATM   13  H   UNL     1     -11.280   9.580  66.826  1.00  0.00     0.000 HD 
BRANCH  12  14
HETATM   14  C   UNL     1      -9.918  10.974  67.543  1.00  0.00    -0.174 C  
BRANCH  14  15
HETATM   15  C   UNL     1     -10.123  10.297  68.881  1.00  0.00    -0.216 A  
HETATM   16  C   UNL     1     -11.359  10.246  69.543  1.00  0.00    -0.241 A  
HETATM   17  O   UNL     1     -12.510  10.795  69.031  1.00  0.00    -0.757 OA 
HETATM   18  C   UNL     1     -11.478   9.611  70.777  1.00  0.00    -0.328 A  
HETATM   19  H   UNL     1     -13.347  10.761  69.478  1.00  0.00     0.000 HD 
HETATM   20  C   UNL     1     -10.371   9.041  71.386  1.00  0.00    -0.326 A  
HETATM   21  O   UNL     1     -12.696   9.533  71.399  1.00  0.00    -0.322 OA 
HETATM   22  H   UNL     1     -12.778   9.100  72.241  1.00  0.00     0.000 HD 
HETATM   23  C   UNL     1      -9.130   9.102  70.776  1.00  0.00    -0.313 A  
HETATM   24  O   UNL     1     -10.500   8.418  72.595  1.00  0.00    -0.326 OA 
HETATM   25  H   UNL     1      -9.741   8.027  73.012  1.00  0.00     0.000 HD 
HETATM   26  C   UNL     1      -9.006   9.730  69.529  1.00  0.00    -0.215 A  
ENDBRANCH  14  15
ENDBRANCH  12  14
ENDBRANCH  11  12
ENDBRANCH   3   8
TORSDOF 5
ENDMDL
MODEL      174
REMARK 921   NORMALIZED FREE ENERGY PREDICTED BY IDOCK:   -4.18 KCAL/MOL
REMARK 922        TOTAL FREE ENERGY PREDICTED BY IDOCK:   -5.85 KCAL/MOL
REMARK 923 INTER-LIGAND FREE ENERGY PREDICTED BY IDOCK:   -5.30 KCAL/MOL
REMARK 924 INTRA-LIGAND FREE ENERGY PREDICTED BY IDOCK:   -0.55 KCAL/MOL
REMARK 927      BINDING AFFINITY PREDICTED BY RF-SCORE:    0.00 PKD
ROOT
HETATM    1  N   UNL     1      -8.782   8.411  64.279  1.00  0.00    -0.399 NA 
HETATM    2  H1  UNL     1      -9.667   7.996  63.983  1.00  0.00     0.000 HD 
HETATM    3  CA  UNL     1      -8.862   8.911  65.681  1.00  0.00    -0.191 C  
HETATM    4  H2  UNL     1      -8.005   7.761  64.156  1.00  0.00     0.000 HD 
ENDROOT
BRANCH   3   5
HETATM    5  C   UNL     1      -7.533   9.534  66.125  1.00  0.00    -0.100 C  
HETATM    6  H   UNL     1      -6.961  11.071  67.212  1.00  0.00     0.000 HD 
HETATM    7  O   UNL     1      -7.784  10.686  66.937  1.00  0.00    -0.112 OA 
ENDBRANCH   3   5
BRANCH   3   8
HETATM    8  C   UNL     1     -10.009   9.915  65.829  1.00  0.00    -0.277 C  
HETATM    9  O   UNL     1     -10.746   9.977  66.812  1.00  0.00    -0.187 OA 
HETATM   10  H   UNL     1      -9.548  10.628  63.912  1.00  0.00     0.000 HD 
HETATM   11  N   UNL     1     -10.181  10.717  64.707  1.00  0.00    -0.341 N  
BRANCH  11  12
HETATM   12  N   UNL     1     -11.234  11.653  64.674  1.00  0.00    -0.287 NA 
HETATM   13  H   UNL     1     -11.884  11.512  65.446  1.00  0.00     0.000 HD 
BRANCH  12  14
HETATM   14  C   UNL     1     -10.723  13.035  64.643  1.00  0.00    -0.367 C  
BRANCH  14  15
HETATM   15  C   UNL     1     -10.529  13.601  66.034  1.00  0.00    -0.300 A  
HETATM   16  C   UNL     1     -11.588  14.013  66.857  1.00  0.00    -0.386 A  
HETATM   17  O   UNL     1     -12.909  13.929  66.484  1.00  0.00    -0.403 OA 
HETATM   18  C   UNL     1     -11.340  14.532  68.125  1.00  0.00    -0.298 A  
HETATM   19  H   UNL     1     -13.625  14.207  67.041  1.00  0.00     0.000 HD 
HETATM   20  C   UNL     1     -10.042  14.674  68.587  1.00  0.00    -0.238 A  
HETATM   21  O   UNL     1     -12.382  14.897  68.937  1.00  0.00    -0.570 OA 
HETATM   22  H   UNL     1     -12.213  15.251  69.803  1.00  0.00     0.000 HD 
HETATM   23  C   UNL     1      -8.972  14.307  67.788  1.00  0.00    -0.188 A  
HETATM   24  O   UNL     1      -9.810  15.180  69.835  1.00  0.00    -0.444 OA 
HETATM   25  H   UNL     1      -8.920  15.278  70.152  1.00  0.00     0.000 HD 
HETATM   26  C   UNL     1      -9.215  13.775  66.514  1.00  0.00    -0.210 A  
ENDBRANCH  14  15
ENDBRANCH  12  14
ENDBRANCH  11  12
ENDBRANCH   3   8
TORSDOF 5
ENDMDL
MODEL      175
REMARK 921   NORMALIZED FREE ENERGY PREDICTED BY IDOCK:   -4.18 KCAL/MOL
REMARK 922        TOTAL FREE ENERGY PREDICTED BY IDOCK:   -5.84 KCAL/MOL
REMARK 923 INTER-LIGAND FREE ENERGY PREDICTED BY IDOCK:   -5.48 KCAL/MOL
REMARK 924 INTRA-LIGAND FREE ENERGY PREDICTED BY IDOCK:   -0.36 KCAL/MOL
REMARK 927      BINDING AFFINITY PREDICTED BY RF-SCORE:    0.00 PKD
ROOT
HETATM    1  N   UNL     1     -10.698   5.753  70.119  1.00  0.00    -0.307 NA 
HETATM    2  H1  UNL     1     -11.712   5.671  70.197  1.00  0.00     0.000 HD 
HETATM    3  CA  UNL     1     -10.174   6.830  71.006  1.00  0.00    -0.197 C  
HETATM    4  H2  UNL     1     -10.235   4.861  70.297  1.00  0.00     0.000 HD 
ENDROOT
BRANCH   3   5
HETATM    5  C   UNL     1      -8.649   6.954  70.890  1.00  0.00    -0.136 C  
HETATM    6  H   UNL     1      -7.258   6.394  69.616  1.00  0.00     0.000 HD 
HETATM    7  O   UNL     1      -8.201   6.318  69.688  1.00  0.00    -0.120 OA 
ENDBRANCH   3   5
BRANCH   3   8
HETATM    8  C   UNL     1     -10.853   8.165  70.691  1.00  0.00    -0.233 C  
HETATM    9  O   UNL     1     -11.411   8.868  71.533  1.00  0.00    -0.274 OA 
HETATM   10  H   UNL     1     -10.362   7.866  68.675  1.00  0.00     0.000 HD 
HETATM   11  N   UNL     1     -10.834   8.481  69.338  1.00  0.00    -0.152 N  
BRANCH  11  12
HETATM   12  N   UNL     1     -11.470   9.655  68.887  1.00  0.00    -0.456 NA 
HETATM   13  H   UNL     1     -12.114  10.023  69.587  1.00  0.00     0.000 HD 
BRANCH  12  14
HETATM   14  C   UNL     1     -10.487  10.671  68.468  1.00  0.00    -0.191 C  
BRANCH  14  15
HETATM   15  C   UNL     1     -10.579  10.975  66.988  1.00  0.00    -0.303 A  
HETATM   16  C   UNL     1     -11.286  12.067  66.464  1.00  0.00    -0.334 A  
HETATM   17  O   UNL     1     -11.954  12.979  67.247  1.00  0.00    -0.366 OA 
HETATM   18  C   UNL     1     -11.336  12.286  65.089  1.00  0.00    -0.329 A  
HETATM   19  H   UNL     1     -12.432  13.718  66.892  1.00  0.00     0.000 HD 
HETATM   20  C   UNL     1     -10.710  11.414  64.213  1.00  0.00    -0.356 A  
HETATM   21  O   UNL     1     -11.997  13.376  64.587  1.00  0.00    -0.366 OA 
HETATM   22  H   UNL     1     -12.032  13.526  63.650  1.00  0.00     0.000 HD 
HETATM   23  C   UNL     1     -10.031  10.307  64.696  1.00  0.00    -0.377 A  
HETATM   24  O   UNL     1     -10.763  11.640  62.867  1.00  0.00    -0.652 OA 
HETATM   25  H   UNL     1     -10.334  11.042  62.266  1.00  0.00     0.000 HD 
HETATM   26  C   UNL     1      -9.969  10.087  66.078  1.00  0.00    -0.334 A  
ENDBRANCH  14  15
ENDBRANCH  12  14
ENDBRANCH  11  12
ENDBRANCH   3   8
TORSDOF 5
ENDMDL
MODEL      176
REMARK 921   NORMALIZED FREE ENERGY PREDICTED BY IDOCK:   -4.17 KCAL/MOL
REMARK 922        TOTAL FREE ENERGY PREDICTED BY IDOCK:   -5.83 KCAL/MOL
REMARK 923 INTER-LIGAND FREE ENERGY PREDICTED BY IDOCK:   -4.94 KCAL/MOL
REMARK 924 INTRA-LIGAND FREE ENERGY PREDICTED BY IDOCK:   -0.89 KCAL/MOL
REMARK 927      BINDING AFFINITY PREDICTED BY RF-SCORE:    0.00 PKD
ROOT
HETATM    1  N   UNL     1     -10.800  11.250  64.099  1.00  0.00    -0.360 NA 
HETATM    2  H1  UNL     1      -9.808  11.275  64.337  1.00  0.00     0.000 HD 
HETATM    3  CA  UNL     1     -11.501  12.475  64.580  1.00  0.00    -0.337 C  
HETATM    4  H2  UNL     1     -10.942  11.105  63.099  1.00  0.00     0.000 HD 
ENDROOT
BRANCH   3   5
HETATM    5  C   UNL     1     -12.993  12.438  64.222  1.00  0.00    -0.157 C  
HETATM    6  H   UNL     1     -14.116  11.605  62.838  1.00  0.00     0.000 HD 
HETATM    7  O   UNL     1     -13.193  11.627  63.060  1.00  0.00    -0.411 OA 
ENDBRANCH   3   5
BRANCH   3   8
HETATM    8  C   UNL     1     -11.309  12.647  66.089  1.00  0.00    -0.330 C  
HETATM    9  O   UNL     1     -12.202  12.488  66.919  1.00  0.00    -0.511 OA 
HETATM   10  H   UNL     1      -9.319  13.190  65.708  1.00  0.00     0.000 HD 
HETATM   11  N   UNL     1     -10.029  13.067  66.431  1.00  0.00    -0.271 N  
BRANCH  11  12
HETATM   12  N   UNL     1      -9.717  13.322  67.781  1.00  0.00    -0.211 NA 
HETATM   13  H   UNL     1     -10.554  13.339  68.362  1.00  0.00     0.000 HD 
BRANCH  12  14
HETATM   14  C   UNL     1      -8.723  12.361  68.293  1.00  0.00    -0.175 C  
BRANCH  14  15
HETATM   15  C   UNL     1      -9.334  11.004  68.568  1.00  0.00    -0.188 A  
HETATM   16  C   UNL     1     -10.537  10.822  69.266  1.00  0.00    -0.229 A  
HETATM   17  O   UNL     1     -11.287  11.865  69.758  1.00  0.00    -0.429 OA 
HETATM   18  C   UNL     1     -11.042   9.544  69.492  1.00  0.00    -0.142 A  
HETATM   19  H   UNL     1     -12.102  11.742  70.231  1.00  0.00     0.000 HD 
HETATM   20  C   UNL     1     -10.351   8.426  69.051  1.00  0.00    -0.218 A  
HETATM   21  O   UNL     1     -12.236   9.377  70.142  1.00  0.00    -0.453 OA 
HETATM   22  H   UNL     1     -12.580   8.505  70.295  1.00  0.00     0.000 HD 
HETATM   23  C   UNL     1      -9.144   8.568  68.387  1.00  0.00    -0.139 A  
HETATM   24  O   UNL     1     -10.857   7.177  69.274  1.00  0.00    -0.268 OA 
HETATM   25  H   UNL     1     -10.383   6.410  68.972  1.00  0.00     0.000 HD 
HETATM   26  C   UNL     1      -8.636   9.852  68.149  1.00  0.00    -0.118 A  
ENDBRANCH  14  15
ENDBRANCH  12  14
ENDBRANCH  11  12
ENDBRANCH   3   8
TORSDOF 5
ENDMDL
MODEL      177
REMARK 921   NORMALIZED FREE ENERGY PREDICTED BY IDOCK:   -4.14 KCAL/MOL
REMARK 922        TOTAL FREE ENERGY PREDICTED BY IDOCK:   -5.80 KCAL/MOL
REMARK 923 INTER-LIGAND FREE ENERGY PREDICTED BY IDOCK:   -5.24 KCAL/MOL
REMARK 924 INTRA-LIGAND FREE ENERGY PREDICTED BY IDOCK:   -0.56 KCAL/MOL
REMARK 927      BINDING AFFINITY PREDICTED BY RF-SCORE:    0.00 PKD
ROOT
HETATM    1  N   UNL     1     -11.834   6.748  72.409  1.00  0.00    -0.462 NA 
HETATM    2  H1  UNL     1     -12.824   6.891  72.203  1.00  0.00     0.000 HD 
HETATM    3  CA  UNL     1     -11.067   8.020  72.283  1.00  0.00    -0.331 C  
HETATM    4  H2  UNL     1     -11.701   6.318  73.325  1.00  0.00     0.000 HD 
ENDROOT
BRANCH   3   5
HETATM    5  C   UNL     1      -9.580   7.805  72.592  1.00  0.00    -0.202 C  
HETATM    6  H   UNL     1      -7.911   8.825  72.389  1.00  0.00     0.000 HD 
HETATM    7  O   UNL     1      -8.831   8.958  72.197  1.00  0.00    -0.381 OA 
ENDBRANCH   3   5
BRANCH   3   8
HETATM    8  C   UNL     1     -11.250   8.622  70.887  1.00  0.00    -0.267 C  
HETATM    9  O   UNL     1     -10.788   8.129  69.859  1.00  0.00    -0.247 OA 
HETATM   10  H   UNL     1     -12.307  10.200  71.777  1.00  0.00     0.000 HD 
HETATM   11  N   UNL     1     -11.944   9.827  70.900  1.00  0.00    -0.309 N  
BRANCH  11  12
HETATM   12  N   UNL     1     -12.143  10.529  69.694  1.00  0.00    -0.494 NA 
HETATM   13  H   UNL     1     -13.074  10.941  69.651  1.00  0.00     0.000 HD 
BRANCH  12  14
HETATM   14  C   UNL     1     -11.093  11.542  69.484  1.00  0.00    -0.191 C  
BRANCH  14  15
HETATM   15  C   UNL     1     -10.370  11.347  68.168  1.00  0.00    -0.206 A  
HETATM   16  C   UNL     1     -10.934  11.654  66.921  1.00  0.00    -0.292 A  
HETATM   17  O   UNL     1     -12.198  12.176  66.774  1.00  0.00    -0.553 OA 
HETATM   18  C   UNL     1     -10.217  11.443  65.746  1.00  0.00    -0.248 A  
HETATM   19  H   UNL     1     -12.580  12.384  65.929  1.00  0.00     0.000 HD 
HETATM   20  C   UNL     1      -8.941  10.904  65.786  1.00  0.00    -0.193 A  
HETATM   21  O   UNL     1     -10.761  11.780  64.535  1.00  0.00    -0.283 OA 
HETATM   22  H   UNL     1     -10.271  11.637  63.733  1.00  0.00     0.000 HD 
HETATM   23  C   UNL     1      -8.367  10.560  66.998  1.00  0.00    -0.128 A  
HETATM   24  O   UNL     1      -8.245  10.706  64.628  1.00  0.00    -0.301 OA 
HETATM   25  H   UNL     1      -7.370  10.336  64.656  1.00  0.00     0.000 HD 
HETATM   26  C   UNL     1      -9.080  10.778  68.185  1.00  0.00    -0.151 A  
ENDBRANCH  14  15
ENDBRANCH  12  14
ENDBRANCH  11  12
ENDBRANCH   3   8
TORSDOF 5
ENDMDL
MODEL      178
REMARK 921   NORMALIZED FREE ENERGY PREDICTED BY IDOCK:   -4.13 KCAL/MOL
REMARK 922        TOTAL FREE ENERGY PREDICTED BY IDOCK:   -5.79 KCAL/MOL
REMARK 923 INTER-LIGAND FREE ENERGY PREDICTED BY IDOCK:   -4.98 KCAL/MOL
REMARK 924 INTRA-LIGAND FREE ENERGY PREDICTED BY IDOCK:   -0.81 KCAL/MOL
REMARK 927      BINDING AFFINITY PREDICTED BY RF-SCORE:    0.00 PKD
ROOT
HETATM    1  N   UNL     1     -12.753  13.870  65.581  1.00  0.00    -0.545 NA 
HETATM    2  H1  UNL     1     -13.502  13.597  66.219  1.00  0.00     0.000 HD 
HETATM    3  CA  UNL     1     -11.775  12.761  65.390  1.00  0.00    -0.387 C  
HETATM    4  H2  UNL     1     -13.123  14.202  64.690  1.00  0.00     0.000 HD 
ENDROOT
BRANCH   3   5
HETATM    5  C   UNL     1     -10.650  13.171  64.431  1.00  0.00    -0.421 C  
HETATM    6  H   UNL     1      -9.785  14.846  63.868  1.00  0.00     0.000 HD 
HETATM    7  O   UNL     1     -10.481  14.592  64.461  1.00  0.00    -0.317 OA 
ENDBRANCH   3   5
BRANCH   3   8
HETATM    8  C   UNL     1     -11.204  12.309  66.737  1.00  0.00    -0.318 C  
HETATM    9  O   UNL     1     -10.059  11.887  66.891  1.00  0.00    -0.205 OA 
HETATM   10  H   UNL     1     -13.073  12.719  67.595  1.00  0.00     0.000 HD 
HETATM   11  N   UNL     1     -12.133  12.364  67.769  1.00  0.00    -0.165 N  
BRANCH  11  12
HETATM   12  N   UNL     1     -11.768  11.927  69.058  1.00  0.00    -0.309 NA 
HETATM   13  H   UNL     1     -12.139  12.543  69.781  1.00  0.00     0.000 HD 
BRANCH  12  14
HETATM   14  C   UNL     1     -12.170  10.527  69.284  1.00  0.00     0.051 C  
BRANCH  14  15
HETATM   15  C   UNL     1     -11.251   9.821  70.258  1.00  0.00    -0.347 A  
HETATM   16  C   UNL     1      -9.863  10.019  70.296  1.00  0.00    -0.085 A  
HETATM   17  O   UNL     1      -9.203  10.887  69.459  1.00  0.00    -0.402 OA 
HETATM   18  C   UNL     1      -9.073   9.332  71.214  1.00  0.00    -0.057 A  
HETATM   19  H   UNL     1      -8.263  11.022  69.484  1.00  0.00     0.000 HD 
HETATM   20  C   UNL     1      -9.640   8.421  72.090  1.00  0.00    -0.297 A  
HETATM   21  O   UNL     1      -7.723   9.559  71.270  1.00  0.00    -0.322 OA 
HETATM   22  H   UNL     1      -7.183   9.091  71.896  1.00  0.00     0.000 HD 
HETATM   23  C   UNL     1     -11.003   8.177  72.057  1.00  0.00    -0.350 A  
HETATM   24  O   UNL     1      -8.856   7.755  72.989  1.00  0.00    -0.152 OA 
HETATM   25  H   UNL     1      -9.246   7.131  73.590  1.00  0.00     0.000 HD 
HETATM   26  C   UNL     1     -11.805   8.873  71.143  1.00  0.00    -0.353 A  
ENDBRANCH  14  15
ENDBRANCH  12  14
ENDBRANCH  11  12
ENDBRANCH   3   8
TORSDOF 5
ENDMDL
MODEL      179
REMARK 921   NORMALIZED FREE ENERGY PREDICTED BY IDOCK:   -4.12 KCAL/MOL
REMARK 922        TOTAL FREE ENERGY PREDICTED BY IDOCK:   -5.77 KCAL/MOL
REMARK 923 INTER-LIGAND FREE ENERGY PREDICTED BY IDOCK:   -4.98 KCAL/MOL
REMARK 924 INTRA-LIGAND FREE ENERGY PREDICTED BY IDOCK:   -0.79 KCAL/MOL
REMARK 927      BINDING AFFINITY PREDICTED BY RF-SCORE:    0.00 PKD
ROOT
HETATM    1  N   UNL     1      -8.379   5.621  65.745  1.00  0.00    -0.126 NA 
HETATM    2  H1  UNL     1      -9.392   5.606  65.870  1.00  0.00     0.000 HD 
HETATM    3  CA  UNL     1      -7.725   6.512  66.745  1.00  0.00    -0.099 C  
HETATM    4  H2  UNL     1      -7.985   4.680  65.766  1.00  0.00     0.000 HD 
ENDROOT
BRANCH   3   5
HETATM    5  C   UNL     1      -6.202   6.535  66.558  1.00  0.00    -0.040 C  
HETATM    6  H   UNL     1      -4.901   5.777  65.292  1.00  0.00     0.000 HD 
HETATM    7  O   UNL     1      -5.843   5.762  65.408  1.00  0.00    -0.023 OA 
ENDBRANCH   3   5
BRANCH   3   8
HETATM    8  C   UNL     1      -8.304   7.927  66.665  1.00  0.00    -0.125 C  
HETATM    9  O   UNL     1      -9.136   8.375  67.452  1.00  0.00    -0.135 OA 
HETATM   10  H   UNL     1      -7.151   8.232  64.940  1.00  0.00     0.000 HD 
HETATM   11  N   UNL     1      -7.840   8.645  65.569  1.00  0.00    -0.095 N  
BRANCH  11  12
HETATM   12  N   UNL     1      -8.327   9.946  65.332  1.00  0.00    -0.139 NA 
HETATM   13  H   UNL     1      -7.582  10.575  65.031  1.00  0.00     0.000 HD 
BRANCH  12  14
HETATM   14  C   UNL     1      -9.445   9.934  64.371  1.00  0.00    -0.239 C  
BRANCH  14  15
HETATM   15  C   UNL     1     -10.462  11.016  64.669  1.00  0.00    -0.398 A  
HETATM   16  C   UNL     1     -10.817  11.409  65.967  1.00  0.00    -0.249 A  
HETATM   17  O   UNL     1     -10.264  10.858  67.099  1.00  0.00    -0.194 OA 
HETATM   18  C   UNL     1     -11.766  12.408  66.172  1.00  0.00    -0.400 A  
HETATM   19  H   UNL     1     -10.504  11.125  67.979  1.00  0.00     0.000 HD 
HETATM   20  C   UNL     1     -12.395  13.014  65.096  1.00  0.00    -0.484 A  
HETATM   21  O   UNL     1     -12.080  12.813  67.443  1.00  0.00    -0.382 OA 
HETATM   22  H   UNL     1     -12.727  13.494  67.582  1.00  0.00     0.000 HD 
HETATM   23  C   UNL     1     -12.091  12.626  63.801  1.00  0.00    -0.604 A  
HETATM   24  O   UNL     1     -13.321  13.995  65.308  1.00  0.00    -0.741 OA 
HETATM   25  H   UNL     1     -13.752  14.410  64.570  1.00  0.00     0.000 HD 
HETATM   26  C   UNL     1     -11.130  11.629  63.589  1.00  0.00    -0.506 A  
ENDBRANCH  14  15
ENDBRANCH  12  14
ENDBRANCH  11  12
ENDBRANCH   3   8
TORSDOF 5
ENDMDL
MODEL      180
REMARK 921   NORMALIZED FREE ENERGY PREDICTED BY IDOCK:   -4.11 KCAL/MOL
REMARK 922        TOTAL FREE ENERGY PREDICTED BY IDOCK:   -5.77 KCAL/MOL
REMARK 923 INTER-LIGAND FREE ENERGY PREDICTED BY IDOCK:   -5.18 KCAL/MOL
REMARK 924 INTRA-LIGAND FREE ENERGY PREDICTED BY IDOCK:   -0.59 KCAL/MOL
REMARK 927      BINDING AFFINITY PREDICTED BY RF-SCORE:    0.00 PKD
ROOT
HETATM    1  N   UNL     1      -9.722   5.455  71.391  1.00  0.00    -0.156 NA 
HETATM    2  H1  UNL     1      -9.789   5.549  70.377  1.00  0.00     0.000 HD 
HETATM    3  CA  UNL     1     -11.071   5.469  72.025  1.00  0.00    -0.184 C  
HETATM    4  H2  UNL     1      -9.191   4.625  71.657  1.00  0.00     0.000 HD 
ENDROOT
BRANCH   3   5
HETATM    5  C   UNL     1     -10.971   5.327  73.549  1.00  0.00    -0.296 C  
HETATM    6  H   UNL     1     -10.258   6.388  75.044  1.00  0.00     0.000 HD 
HETATM    7  O   UNL     1     -10.320   6.476  74.101  1.00  0.00    -0.341 OA 
ENDBRANCH   3   5
BRANCH   3   8
HETATM    8  C   UNL     1     -11.831   6.743  71.646  1.00  0.00    -0.326 C  
HETATM    9  O   UNL     1     -12.993   6.975  71.978  1.00  0.00    -0.259 OA 
HETATM   10  H   UNL     1     -10.136   7.359  70.576  1.00  0.00     0.000 HD 
HETATM   11  N   UNL     1     -11.096   7.594  70.829  1.00  0.00    -0.260 N  
BRANCH  11  12
HETATM   12  N   UNL     1     -11.684   8.782  70.353  1.00  0.00    -0.467 NA 
HETATM   13  H   UNL     1     -12.605   8.934  70.763  1.00  0.00     0.000 HD 
BRANCH  12  14
HETATM   14  C   UNL     1     -10.799   9.942  70.566  1.00  0.00    -0.326 C  
BRANCH  14  15
HETATM   15  C   UNL     1     -10.183  10.433  69.273  1.00  0.00    -0.248 A  
HETATM   16  C   UNL     1     -10.933  10.924  68.195  1.00  0.00    -0.249 A  
HETATM   17  O   UNL     1     -12.305  11.022  68.214  1.00  0.00    -0.717 OA 
HETATM   18  C   UNL     1     -10.304  11.355  67.030  1.00  0.00    -0.223 A  
HETATM   19  H   UNL     1     -12.813  11.355  67.484  1.00  0.00     0.000 HD 
HETATM   20  C   UNL     1      -8.925  11.281  66.905  1.00  0.00    -0.162 A  
HETATM   21  O   UNL     1     -11.041  11.868  65.996  1.00  0.00    -0.303 OA 
HETATM   22  H   UNL     1     -10.611  12.162  65.200  1.00  0.00     0.000 HD 
HETATM   23  C   UNL     1      -8.157  10.770  67.938  1.00  0.00    -0.112 A  
HETATM   24  O   UNL     1      -8.318  11.709  65.759  1.00  0.00    -0.376 OA 
HETATM   25  H   UNL     1      -7.372  11.658  65.673  1.00  0.00     0.000 HD 
HETATM   26  C   UNL     1      -8.784  10.345  69.117  1.00  0.00    -0.173 A  
ENDBRANCH  14  15
ENDBRANCH  12  14
ENDBRANCH  11  12
ENDBRANCH   3   8
TORSDOF 5
ENDMDL
MODEL      181
REMARK 921   NORMALIZED FREE ENERGY PREDICTED BY IDOCK:   -4.11 KCAL/MOL
REMARK 922        TOTAL FREE ENERGY PREDICTED BY IDOCK:   -5.75 KCAL/MOL
REMARK 923 INTER-LIGAND FREE ENERGY PREDICTED BY IDOCK:   -5.32 KCAL/MOL
REMARK 924 INTRA-LIGAND FREE ENERGY PREDICTED BY IDOCK:   -0.43 KCAL/MOL
REMARK 927      BINDING AFFINITY PREDICTED BY RF-SCORE:    0.00 PKD
ROOT
HETATM    1  N   UNL     1      -9.598  14.904  69.461  1.00  0.00    -0.426 NA 
HETATM    2  H1  UNL     1      -9.145  14.093  69.884  1.00  0.00     0.000 HD 
HETATM    3  CA  UNL     1     -11.058  14.671  69.273  1.00  0.00    -0.269 C  
HETATM    4  H2  UNL     1      -9.420  15.755  69.997  1.00  0.00     0.000 HD 
ENDROOT
BRANCH   3   5
HETATM    5  C   UNL     1     -11.739  15.890  68.637  1.00  0.00    -0.322 C  
HETATM    6  H   UNL     1     -11.176  17.485  67.631  1.00  0.00     0.000 HD 
HETATM    7  O   UNL     1     -10.755  16.730  68.025  1.00  0.00    -0.339 OA 
ENDBRANCH   3   5
BRANCH   3   8
HETATM    8  C   UNL     1     -11.298  13.414  68.432  1.00  0.00    -0.294 C  
HETATM    9  O   UNL     1     -11.191  13.376  67.207  1.00  0.00    -0.278 OA 
HETATM   10  H   UNL     1     -11.792  12.402  70.201  1.00  0.00     0.000 HD 
HETATM   11  N   UNL     1     -11.714  12.324  69.187  1.00  0.00    -0.309 N  
BRANCH  11  12
HETATM   12  N   UNL     1     -12.027  11.110  68.543  1.00  0.00    -0.635 NA 
HETATM   13  H   UNL     1     -12.053  11.220  67.530  1.00  0.00     0.000 HD 
BRANCH  12  14
HETATM   14  C   UNL     1     -11.104  10.034  68.948  1.00  0.00    -0.176 C  
BRANCH  14  15
HETATM   15  C   UNL     1     -10.425   9.391  67.757  1.00  0.00    -0.310 A  
HETATM   16  C   UNL     1     -10.461   8.014  67.496  1.00  0.00    -0.260 A  
HETATM   17  O   UNL     1     -11.130   7.113  68.290  1.00  0.00    -0.458 OA 
HETATM   18  C   UNL     1      -9.808   7.484  66.385  1.00  0.00    -0.082 A  
HETATM   19  H   UNL     1     -11.155   6.180  68.113  1.00  0.00     0.000 HD 
HETATM   20  C   UNL     1      -9.090   8.307  65.532  1.00  0.00    -0.006 A  
HETATM   21  O   UNL     1      -9.879   6.143  66.116  1.00  0.00    -0.355 OA 
HETATM   22  H   UNL     1      -9.434   5.782  65.358  1.00  0.00     0.000 HD 
HETATM   23  C   UNL     1      -9.006   9.667  65.779  1.00  0.00    -0.207 A  
HETATM   24  O   UNL     1      -8.456   7.778  64.443  1.00  0.00    -0.364 OA 
HETATM   25  H   UNL     1      -7.964   8.342  63.858  1.00  0.00     0.000 HD 
HETATM   26  C   UNL     1      -9.669  10.207  66.889  1.00  0.00    -0.233 A  
ENDBRANCH  14  15
ENDBRANCH  12  14
ENDBRANCH  11  12
ENDBRANCH   3   8
TORSDOF 5
ENDMDL
MODEL      182
REMARK 921   NORMALIZED FREE ENERGY PREDICTED BY IDOCK:   -4.10 KCAL/MOL
REMARK 922        TOTAL FREE ENERGY PREDICTED BY IDOCK:   -5.75 KCAL/MOL
REMARK 923 INTER-LIGAND FREE ENERGY PREDICTED BY IDOCK:   -5.88 KCAL/MOL
REMARK 924 INTRA-LIGAND FREE ENERGY PREDICTED BY IDOCK:    0.13 KCAL/MOL
REMARK 927      BINDING AFFINITY PREDICTED BY RF-SCORE:    0.00 PKD
ROOT
HETATM    1  N   UNL     1     -10.861   8.757  67.950  1.00  0.00    -0.488 NA 
HETATM    2  H1  UNL     1     -11.263   8.466  68.841  1.00  0.00     0.000 HD 
HETATM    3  CA  UNL     1     -10.269  10.122  68.045  1.00  0.00    -0.173 C  
HETATM    4  H2  UNL     1     -10.182   8.078  67.605  1.00  0.00     0.000 HD 
ENDROOT
BRANCH   3   5
HETATM    5  C   UNL     1      -9.664  10.561  66.705  1.00  0.00    -0.189 C  
HETATM    6  H   UNL     1      -8.411  11.943  66.081  1.00  0.00     0.000 HD 
HETATM    7  O   UNL     1      -8.785  11.672  66.910  1.00  0.00    -0.172 OA 
ENDBRANCH   3   5
BRANCH   3   8
HETATM    8  C   UNL     1     -11.317  11.131  68.523  1.00  0.00    -0.282 C  
HETATM    9  O   UNL     1     -12.283  10.837  69.227  1.00  0.00    -0.334 OA 
HETATM   10  H   UNL     1     -10.292  12.610  67.447  1.00  0.00     0.000 HD 
HETATM   11  N   UNL     1     -11.106  12.413  68.030  1.00  0.00    -0.230 N  
BRANCH  11  12
HETATM   12  N   UNL     1     -12.021  13.438  68.341  1.00  0.00    -0.353 NA 
HETATM   13  H   UNL     1     -12.770  13.101  68.944  1.00  0.00     0.000 HD 
BRANCH  12  14
HETATM   14  C   UNL     1     -11.340  14.607  68.926  1.00  0.00    -0.283 C  
BRANCH  14  15
HETATM   15  C   UNL     1     -11.841  14.918  70.320  1.00  0.00    -0.358 A  
HETATM   16  C   UNL     1     -11.501  16.082  71.025  1.00  0.00    -0.417 A  
HETATM   17  O   UNL     1     -10.688  17.064  70.510  1.00  0.00    -0.054 OA 
HETATM   18  C   UNL     1     -11.993  16.304  72.309  1.00  0.00    -0.520 A  
HETATM   19  H   UNL     1     -10.457  17.852  70.987  1.00  0.00     0.000 HD 
HETATM   20  C   UNL     1     -12.807  15.366  72.924  1.00  0.00    -0.445 A  
HETATM   21  O   UNL     1     -11.686  17.461  72.975  1.00  0.00     0.042 OA 
HETATM   22  H   UNL     1     -12.022  17.613  73.852  1.00  0.00     0.000 HD 
HETATM   23  C   UNL     1     -13.136  14.191  72.269  1.00  0.00    -0.514 A  
HETATM   24  O   UNL     1     -13.287  15.596  74.182  1.00  0.00    -0.665 OA 
HETATM   25  H   UNL     1     -13.845  14.953  74.603  1.00  0.00     0.000 HD 
HETATM   26  C   UNL     1     -12.653  13.967  70.973  1.00  0.00    -0.444 A  
ENDBRANCH  14  15
ENDBRANCH  12  14
ENDBRANCH  11  12
ENDBRANCH   3   8
TORSDOF 5
ENDMDL
MODEL      183
REMARK 921   NORMALIZED FREE ENERGY PREDICTED BY IDOCK:   -4.10 KCAL/MOL
REMARK 922        TOTAL FREE ENERGY PREDICTED BY IDOCK:   -5.75 KCAL/MOL
REMARK 923 INTER-LIGAND FREE ENERGY PREDICTED BY IDOCK:   -5.27 KCAL/MOL
REMARK 924 INTRA-LIGAND FREE ENERGY PREDICTED BY IDOCK:   -0.48 KCAL/MOL
REMARK 927      BINDING AFFINITY PREDICTED BY RF-SCORE:    0.00 PKD
ROOT
HETATM    1  N   UNL     1      -5.653  11.725  69.227  1.00  0.00    -0.053 NA 
HETATM    2  H1  UNL     1      -5.309  11.661  70.185  1.00  0.00     0.000 HD 
HETATM    3  CA  UNL     1      -7.142  11.671  69.183  1.00  0.00    -0.090 C  
HETATM    4  H2  UNL     1      -5.294  12.554  68.754  1.00  0.00     0.000 HD 
ENDROOT
BRANCH   3   5
HETATM    5  C   UNL     1      -7.660  11.768  67.742  1.00  0.00    -0.127 C  
HETATM    6  H   UNL     1      -8.855  12.952  66.723  1.00  0.00     0.000 HD 
HETATM    7  O   UNL     1      -8.535  12.893  67.615  1.00  0.00    -0.158 OA 
ENDBRANCH   3   5
BRANCH   3   8
HETATM    8  C   UNL     1      -7.655  10.398  69.860  1.00  0.00    -0.100 C  
HETATM    9  O   UNL     1      -7.256   9.990  70.950  1.00  0.00    -0.326 OA 
HETATM   10  H   UNL     1      -8.881  10.078  68.189  1.00  0.00     0.000 HD 
HETATM   11  N   UNL     1      -8.581   9.704  69.089  1.00  0.00    -0.137 N  
BRANCH  11  12
HETATM   12  N   UNL     1      -9.102   8.482  69.558  1.00  0.00    -0.149 NA 
HETATM   13  H   UNL     1      -8.999   8.395  70.569  1.00  0.00     0.000 HD 
BRANCH  12  14
HETATM   14  C   UNL     1     -10.503   8.300  69.139  1.00  0.00    -0.206 C  
BRANCH  14  15
HETATM   15  C   UNL     1     -11.473   8.554  70.273  1.00  0.00    -0.064 A  
HETATM   16  C   UNL     1     -11.834   9.837  70.711  1.00  0.00    -0.319 A  
HETATM   17  O   UNL     1     -11.351  10.991  70.141  1.00  0.00    -0.352 OA 
HETATM   18  C   UNL     1     -12.729  10.002  71.766  1.00  0.00    -0.428 A  
HETATM   19  H   UNL     1     -11.596  11.860  70.437  1.00  0.00     0.000 HD 
HETATM   20  C   UNL     1     -13.259   8.900  72.419  1.00  0.00    -0.430 A  
HETATM   21  O   UNL     1     -13.105  11.258  72.163  1.00  0.00    -0.518 OA 
HETATM   22  H   UNL     1     -13.715  11.370  72.883  1.00  0.00     0.000 HD 
HETATM   23  C   UNL     1     -12.898   7.620  72.034  1.00  0.00    -0.242 A  
HETATM   24  O   UNL     1     -14.137   9.073  73.450  1.00  0.00    -1.231 OA 
HETATM   25  H   UNL     1     -14.501   8.318  73.898  1.00  0.00     0.000 HD 
HETATM   26  C   UNL     1     -12.006   7.448  70.966  1.00  0.00    -0.337 A  
ENDBRANCH  14  15
ENDBRANCH  12  14
ENDBRANCH  11  12
ENDBRANCH   3   8
TORSDOF 5
ENDMDL
MODEL      184
REMARK 921   NORMALIZED FREE ENERGY PREDICTED BY IDOCK:   -4.09 KCAL/MOL
REMARK 922        TOTAL FREE ENERGY PREDICTED BY IDOCK:   -5.74 KCAL/MOL
REMARK 923 INTER-LIGAND FREE ENERGY PREDICTED BY IDOCK:   -5.91 KCAL/MOL
REMARK 924 INTRA-LIGAND FREE ENERGY PREDICTED BY IDOCK:    0.18 KCAL/MOL
REMARK 927      BINDING AFFINITY PREDICTED BY RF-SCORE:    0.00 PKD
ROOT
HETATM    1  N   UNL     1     -14.409  15.626  71.431  1.00  0.00    -0.613 NA 
HETATM    2  H1  UNL     1     -14.232  16.614  71.615  1.00  0.00     0.000 HD 
HETATM    3  CA  UNL     1     -13.231  14.789  71.796  1.00  0.00    -0.348 C  
HETATM    4  H2  UNL     1     -15.257  15.304  71.899  1.00  0.00     0.000 HD 
ENDROOT
BRANCH   3   5
HETATM    5  C   UNL     1     -13.497  13.303  71.520  1.00  0.00    -0.179 C  
HETATM    6  H   UNL     1     -13.543  11.637  72.564  1.00  0.00     0.000 HD 
HETATM    7  O   UNL     1     -13.379  12.556  72.735  1.00  0.00    -0.221 OA 
ENDBRANCH   3   5
BRANCH   3   8
HETATM    8  C   UNL     1     -11.982  15.265  71.049  1.00  0.00    -0.343 C  
HETATM    9  O   UNL     1     -10.851  14.821  71.247  1.00  0.00     0.047 OA 
HETATM   10  H   UNL     1     -13.193  16.641  70.030  1.00  0.00     0.000 HD 
HETATM   11  N   UNL     1     -12.239  16.302  70.160  1.00  0.00     0.148 N  
BRANCH  11  12
HETATM   12  N   UNL     1     -11.177  16.882  69.440  1.00  0.00    -0.257 NA 
HETATM   13  H   UNL     1     -10.607  17.485  70.033  1.00  0.00     0.000 HD 
BRANCH  12  14
HETATM   14  C   UNL     1     -10.359  15.855  68.769  1.00  0.00    -0.228 C  
BRANCH  14  15
HETATM   15  C   UNL     1     -10.865  15.545  67.376  1.00  0.00    -0.312 A  
HETATM   16  C   UNL     1     -11.839  14.574  67.104  1.00  0.00    -0.387 A  
HETATM   17  O   UNL     1     -12.440  13.815  68.081  1.00  0.00    -0.372 OA 
HETATM   18  C   UNL     1     -12.256  14.333  65.798  1.00  0.00    -0.403 A  
HETATM   19  H   UNL     1     -13.100  13.157  67.897  1.00  0.00     0.000 HD 
HETATM   20  C   UNL     1     -11.698  15.032  64.739  1.00  0.00    -0.370 A  
HETATM   21  O   UNL     1     -13.235  13.408  65.544  1.00  0.00    -0.500 OA 
HETATM   22  H   UNL     1     -13.520  13.244  64.652  1.00  0.00     0.000 HD 
HETATM   23  C   UNL     1     -10.711  15.976  64.970  1.00  0.00    -0.400 A  
HETATM   24  O   UNL     1     -12.118  14.791  63.462  1.00  0.00    -0.837 OA 
HETATM   25  H   UNL     1     -11.735  15.271  62.736  1.00  0.00     0.000 HD 
HETATM   26  C   UNL     1     -10.294  16.229  66.283  1.00  0.00    -0.335 A  
ENDBRANCH  14  15
ENDBRANCH  12  14
ENDBRANCH  11  12
ENDBRANCH   3   8
TORSDOF 5
ENDMDL
MODEL      185
REMARK 921   NORMALIZED FREE ENERGY PREDICTED BY IDOCK:   -4.07 KCAL/MOL
REMARK 922        TOTAL FREE ENERGY PREDICTED BY IDOCK:   -5.71 KCAL/MOL
REMARK 923 INTER-LIGAND FREE ENERGY PREDICTED BY IDOCK:   -5.16 KCAL/MOL
REMARK 924 INTRA-LIGAND FREE ENERGY PREDICTED BY IDOCK:   -0.55 KCAL/MOL
REMARK 927      BINDING AFFINITY PREDICTED BY RF-SCORE:    0.00 PKD
ROOT
HETATM    1  N   UNL     1     -14.373  15.493  70.660  1.00  0.00    -0.550 NA 
HETATM    2  H1  UNL     1     -14.198  16.495  70.579  1.00  0.00     0.000 HD 
HETATM    3  CA  UNL     1     -13.435  14.858  71.629  1.00  0.00    -0.398 C  
HETATM    4  H2  UNL     1     -15.346  15.301  70.898  1.00  0.00     0.000 HD 
ENDROOT
BRANCH   3   5
HETATM    5  C   UNL     1     -13.698  13.351  71.751  1.00  0.00    -0.254 C  
HETATM    6  H   UNL     1     -12.636  11.734  72.105  1.00  0.00     0.000 HD 
HETATM    7  O   UNL     1     -12.473  12.666  72.029  1.00  0.00     0.077 OA 
ENDBRANCH   3   5
BRANCH   3   8
HETATM    8  C   UNL     1     -11.983  15.125  71.226  1.00  0.00    -0.344 C  
HETATM    9  O   UNL     1     -11.088  15.404  72.023  1.00  0.00    -0.362 OA 
HETATM   10  H   UNL     1     -12.554  14.851  69.227  1.00  0.00     0.000 HD 
HETATM   11  N   UNL     1     -11.781  15.084  69.851  1.00  0.00    -0.286 N  
BRANCH  11  12
HETATM   12  N   UNL     1     -10.505  15.365  69.325  1.00  0.00    -0.236 NA 
HETATM   13  H   UNL     1      -9.950  15.928  69.970  1.00  0.00     0.000 HD 
BRANCH  12  14
HETATM   14  C   UNL     1      -9.798  14.129  68.942  1.00  0.00    -0.105 C  
BRANCH  14  15
HETATM   15  C   UNL     1     -10.262  13.602  67.600  1.00  0.00    -0.239 A  
HETATM   16  C   UNL     1     -10.217  14.351  66.416  1.00  0.00    -0.289 A  
HETATM   17  O   UNL     1      -9.734  15.637  66.356  1.00  0.00    -0.243 OA 
HETATM   18  C   UNL     1     -10.666  13.808  65.215  1.00  0.00    -0.339 A  
HETATM   19  H   UNL     1      -9.703  16.145  65.553  1.00  0.00     0.000 HD 
HETATM   20  C   UNL     1     -11.189  12.525  65.173  1.00  0.00    -0.304 A  
HETATM   21  O   UNL     1     -10.585  14.533  64.055  1.00  0.00    -0.267 OA 
HETATM   22  H   UNL     1     -10.891  14.163  63.236  1.00  0.00     0.000 HD 
HETATM   23  C   UNL     1     -11.277  11.769  66.330  1.00  0.00    -0.382 A  
HETATM   24  O   UNL     1     -11.623  12.001  63.989  1.00  0.00    -0.367 OA 
HETATM   25  H   UNL     1     -11.981  11.121  63.960  1.00  0.00     0.000 HD 
HETATM   26  C   UNL     1     -10.818  12.307  67.540  1.00  0.00    -0.271 A  
ENDBRANCH  14  15
ENDBRANCH  12  14
ENDBRANCH  11  12
ENDBRANCH   3   8
TORSDOF 5
ENDMDL
MODEL      186
REMARK 921   NORMALIZED FREE ENERGY PREDICTED BY IDOCK:   -4.07 KCAL/MOL
REMARK 922        TOTAL FREE ENERGY PREDICTED BY IDOCK:   -5.70 KCAL/MOL
REMARK 923 INTER-LIGAND FREE ENERGY PREDICTED BY IDOCK:   -5.04 KCAL/MOL
REMARK 924 INTRA-LIGAND FREE ENERGY PREDICTED BY IDOCK:   -0.66 KCAL/MOL
REMARK 927      BINDING AFFINITY PREDICTED BY RF-SCORE:    0.00 PKD
ROOT
HETATM    1  N   UNL     1      -9.956   8.522  71.138  1.00  0.00    -0.193 NA 
HETATM    2  H1  UNL     1     -10.591   8.826  71.877  1.00  0.00     0.000 HD 
HETATM    3  CA  UNL     1      -9.476   9.678  70.329  1.00  0.00    -0.248 C  
HETATM    4  H2  UNL     1      -9.179   7.977  71.513  1.00  0.00     0.000 HD 
ENDROOT
BRANCH   3   5
HETATM    5  C   UNL     1      -8.522   9.221  69.218  1.00  0.00    -0.137 C  
HETATM    6  H   UNL     1      -6.686   8.523  69.101  1.00  0.00     0.000 HD 
HETATM    7  O   UNL     1      -7.277   8.805  69.788  1.00  0.00    -0.049 OA 
ENDBRANCH   3   5
BRANCH   3   8
HETATM    8  C   UNL     1     -10.659  10.454  69.744  1.00  0.00    -0.258 C  
HETATM    9  O   UNL     1     -11.515  11.018  70.424  1.00  0.00    -0.298 OA 
HETATM   10  H   UNL     1      -9.979   9.923  67.832  1.00  0.00     0.000 HD 
HETATM   11  N   UNL     1     -10.710  10.406  68.356  1.00  0.00    -0.209 N  
BRANCH  11  12
HETATM   12  N   UNL     1     -11.775  11.029  67.676  1.00  0.00    -0.580 NA 
HETATM   13  H   UNL     1     -12.300  11.649  68.291  1.00  0.00     0.000 HD 
BRANCH  12  14
HETATM   14  C   UNL     1     -11.303  11.736  66.471  1.00  0.00    -0.305 C  
BRANCH  14  15
HETATM   15  C   UNL     1     -11.049  13.205  66.737  1.00  0.00    -0.314 A  
HETATM   16  C   UNL     1     -11.670  13.924  67.768  1.00  0.00    -0.366 A  
HETATM   17  O   UNL     1     -12.561  13.360  68.650  1.00  0.00    -0.010 OA 
HETATM   18  C   UNL     1     -11.397  15.277  67.954  1.00  0.00    -0.334 A  
HETATM   19  H   UNL     1     -12.981  13.847  69.349  1.00  0.00     0.000 HD 
HETATM   20  C   UNL     1     -10.526  15.943  67.107  1.00  0.00    -0.313 A  
HETATM   21  O   UNL     1     -11.978  15.964  68.988  1.00  0.00    -0.458 OA 
HETATM   22  H   UNL     1     -11.792  16.887  69.115  1.00  0.00     0.000 HD 
HETATM   23  C   UNL     1      -9.921  15.271  66.058  1.00  0.00    -0.344 A  
HETATM   24  O   UNL     1     -10.262  17.269  67.301  1.00  0.00    -0.302 OA 
HETATM   25  H   UNL     1      -9.664  17.726  66.720  1.00  0.00     0.000 HD 
HETATM   26  C   UNL     1     -10.184  13.907  65.872  1.00  0.00    -0.326 A  
ENDBRANCH  14  15
ENDBRANCH  12  14
ENDBRANCH  11  12
ENDBRANCH   3   8
TORSDOF 5
ENDMDL
MODEL      187
REMARK 921   NORMALIZED FREE ENERGY PREDICTED BY IDOCK:   -4.06 KCAL/MOL
REMARK 922        TOTAL FREE ENERGY PREDICTED BY IDOCK:   -5.69 KCAL/MOL
REMARK 923 INTER-LIGAND FREE ENERGY PREDICTED BY IDOCK:   -6.01 KCAL/MOL
REMARK 924 INTRA-LIGAND FREE ENERGY PREDICTED BY IDOCK:    0.31 KCAL/MOL
REMARK 927      BINDING AFFINITY PREDICTED BY RF-SCORE:    0.00 PKD
ROOT
HETATM    1  N   UNL     1     -11.214  15.951  71.092  1.00  0.00    -0.351 NA 
HETATM    2  H1  UNL     1     -12.056  15.639  71.577  1.00  0.00     0.000 HD 
HETATM    3  CA  UNL     1     -11.307  15.691  69.627  1.00  0.00    -0.329 C  
HETATM    4  H2  UNL     1     -11.011  16.932  71.286  1.00  0.00     0.000 HD 
ENDROOT
BRANCH   3   5
HETATM    5  C   UNL     1     -10.041  16.159  68.897  1.00  0.00    -0.238 C  
HETATM    6  H   UNL     1      -8.113  16.238  69.277  1.00  0.00     0.000 HD 
HETATM    7  O   UNL     1      -8.896  15.948  69.728  1.00  0.00    -0.108 OA 
ENDBRANCH   3   5
BRANCH   3   8
HETATM    8  C   UNL     1     -11.570  14.206  69.360  1.00  0.00    -0.304 C  
HETATM    9  O   UNL     1     -12.615  13.629  69.655  1.00  0.00    -0.185 OA 
HETATM   10  H   UNL     1      -9.630  14.069  68.576  1.00  0.00     0.000 HD 
HETATM   11  N   UNL     1     -10.478  13.551  68.802  1.00  0.00    -0.230 N  
BRANCH  11  12
HETATM   12  N   UNL     1     -10.551  12.166  68.550  1.00  0.00    -0.228 NA 
HETATM   13  H   UNL     1     -10.579  11.629  69.417  1.00  0.00     0.000 HD 
BRANCH  12  14
HETATM   14  C   UNL     1     -11.692  11.839  67.675  1.00  0.00    -0.250 C  
BRANCH  14  15
HETATM   15  C   UNL     1     -11.262  11.620  66.240  1.00  0.00    -0.332 A  
HETATM   16  C   UNL     1     -11.972  12.112  65.135  1.00  0.00    -0.262 A  
HETATM   17  O   UNL     1     -13.123  12.855  65.249  1.00  0.00    -0.682 OA 
HETATM   18  C   UNL     1     -11.525  11.869  63.838  1.00  0.00    -0.426 A  
HETATM   19  H   UNL     1     -13.603  13.189  64.500  1.00  0.00     0.000 HD 
HETATM   20  C   UNL     1     -10.384  11.114  63.616  1.00  0.00    -0.389 A  
HETATM   21  O   UNL     1     -12.203  12.384  62.765  1.00  0.00    -0.423 OA 
HETATM   22  H   UNL     1     -11.898  12.218  61.881  1.00  0.00     0.000 HD 
HETATM   23  C   UNL     1      -9.677  10.586  64.684  1.00  0.00    -0.369 A  
HETATM   24  O   UNL     1      -9.952  10.885  62.341  1.00  0.00    -0.594 OA 
HETATM   25  H   UNL     1      -9.170  10.367  62.188  1.00  0.00     0.000 HD 
HETATM   26  C   UNL     1     -10.117  10.836  65.991  1.00  0.00    -0.305 A  
ENDBRANCH  14  15
ENDBRANCH  12  14
ENDBRANCH  11  12
ENDBRANCH   3   8
TORSDOF 5
ENDMDL
MODEL      188
REMARK 921   NORMALIZED FREE ENERGY PREDICTED BY IDOCK:   -4.05 KCAL/MOL
REMARK 922        TOTAL FREE ENERGY PREDICTED BY IDOCK:   -5.68 KCAL/MOL
REMARK 923 INTER-LIGAND FREE ENERGY PREDICTED BY IDOCK:   -5.50 KCAL/MOL
REMARK 924 INTRA-LIGAND FREE ENERGY PREDICTED BY IDOCK:   -0.17 KCAL/MOL
REMARK 927      BINDING AFFINITY PREDICTED BY RF-SCORE:    0.00 PKD
ROOT
HETATM    1  N   UNL     1     -10.904  16.774  65.255  1.00  0.00    -0.509 NA 
HETATM    2  H1  UNL     1     -10.515  16.444  64.371  1.00  0.00     0.000 HD 
HETATM    3  CA  UNL     1      -9.836  17.301  66.151  1.00  0.00    -0.253 C  
HETATM    4  H2  UNL     1     -11.642  17.462  65.106  1.00  0.00     0.000 HD 
ENDROOT
BRANCH   3   5
HETATM    5  C   UNL     1     -10.420  17.797  67.480  1.00  0.00    -0.372 C  
HETATM    6  H   UNL     1     -11.470  17.036  68.959  1.00  0.00     0.000 HD 
HETATM    7  O   UNL     1     -11.109  16.728  68.137  1.00  0.00    -0.363 OA 
ENDBRANCH   3   5
BRANCH   3   8
HETATM    8  C   UNL     1      -8.763  16.236  66.394  1.00  0.00    -0.319 C  
HETATM    9  O   UNL     1      -7.560  16.480  66.484  1.00  0.00    -0.258 OA 
HETATM   10  H   UNL     1     -10.281  14.790  66.357  1.00  0.00     0.000 HD 
HETATM   11  N   UNL     1      -9.276  14.945  66.439  1.00  0.00    -0.288 N  
BRANCH  11  12
HETATM   12  N   UNL     1      -8.401  13.853  66.601  1.00  0.00    -0.395 NA 
HETATM   13  H   UNL     1      -7.428  14.130  66.470  1.00  0.00     0.000 HD 
BRANCH  12  14
HETATM   14  C   UNL     1      -8.603  13.191  67.903  1.00  0.00    -0.185 C  
BRANCH  14  15
HETATM   15  C   UNL     1      -9.203  11.809  67.751  1.00  0.00    -0.181 A  
HETATM   16  C   UNL     1      -9.161  11.073  66.558  1.00  0.00    -0.173 A  
HETATM   17  O   UNL     1      -8.556  11.531  65.411  1.00  0.00    -0.391 OA 
HETATM   18  C   UNL     1      -9.739   9.808  66.484  1.00  0.00    -0.209 A  
HETATM   19  H   UNL     1      -8.527  11.032  64.603  1.00  0.00     0.000 HD 
HETATM   20  C   UNL     1     -10.389   9.264  67.581  1.00  0.00    -0.253 A  
HETATM   21  O   UNL     1      -9.661   9.080  65.326  1.00  0.00    -0.457 OA 
HETATM   22  H   UNL     1     -10.055   8.217  65.275  1.00  0.00     0.000 HD 
HETATM   23  C   UNL     1     -10.477   9.978  68.764  1.00  0.00    -0.229 A  
HETATM   24  O   UNL     1     -10.949   8.022  67.498  1.00  0.00    -0.513 OA 
HETATM   25  H   UNL     1     -11.394   7.649  68.250  1.00  0.00     0.000 HD 
HETATM   26  C   UNL     1      -9.888  11.247  68.848  1.00  0.00    -0.153 A  
ENDBRANCH  14  15
ENDBRANCH  12  14
ENDBRANCH  11  12
ENDBRANCH   3   8
TORSDOF 5
ENDMDL
MODEL      189
REMARK 921   NORMALIZED FREE ENERGY PREDICTED BY IDOCK:   -4.03 KCAL/MOL
REMARK 922        TOTAL FREE ENERGY PREDICTED BY IDOCK:   -5.66 KCAL/MOL
REMARK 923 INTER-LIGAND FREE ENERGY PREDICTED BY IDOCK:   -5.78 KCAL/MOL
REMARK 924 INTRA-LIGAND FREE ENERGY PREDICTED BY IDOCK:    0.13 KCAL/MOL
REMARK 927      BINDING AFFINITY PREDICTED BY RF-SCORE:    0.00 PKD
ROOT
HETATM    1  N   UNL     1      -5.569  10.328  68.958  1.00  0.00    -0.038 NA 
HETATM    2  H1  UNL     1      -5.563  10.662  69.922  1.00  0.00     0.000 HD 
HETATM    3  CA  UNL     1      -6.352  11.239  68.075  1.00  0.00    -0.053 C  
HETATM    4  H2  UNL     1      -4.622  10.185  68.605  1.00  0.00     0.000 HD 
ENDROOT
BRANCH   3   5
HETATM    5  C   UNL     1      -6.361  10.737  66.626  1.00  0.00    -0.103 C  
HETATM    6  H   UNL     1      -5.307  11.047  64.994  1.00  0.00     0.000 HD 
HETATM    7  O   UNL     1      -5.301  11.358  65.891  1.00  0.00    -0.263 OA 
ENDBRANCH   3   5
BRANCH   3   8
HETATM    8  C   UNL     1      -7.780  11.404  68.602  1.00  0.00    -0.137 C  
HETATM    9  O   UNL     1      -8.442  10.489  69.090  1.00  0.00    -0.146 OA 
HETATM   10  H   UNL     1      -7.700  13.413  68.007  1.00  0.00     0.000 HD 
HETATM   11  N   UNL     1      -8.285  12.685  68.419  1.00  0.00    -0.153 N  
BRANCH  11  12
HETATM   12  N   UNL     1      -9.609  12.974  68.805  1.00  0.00    -0.412 NA 
HETATM   13  H   UNL     1      -9.720  13.957  69.052  1.00  0.00     0.000 HD 
BRANCH  12  14
HETATM   14  C   UNL     1     -10.572  12.566  67.766  1.00  0.00    -0.219 C  
BRANCH  14  15
HETATM   15  C   UNL     1     -10.793  13.653  66.736  1.00  0.00    -0.291 A  
HETATM   16  C   UNL     1     -10.328  14.968  66.885  1.00  0.00    -0.266 A  
HETATM   17  O   UNL     1      -9.611  15.394  67.979  1.00  0.00    -0.204 OA 
HETATM   18  C   UNL     1     -10.571  15.923  65.901  1.00  0.00    -0.337 A  
HETATM   19  H   UNL     1      -9.296  16.284  68.080  1.00  0.00     0.000 HD 
HETATM   20  C   UNL     1     -11.300  15.598  64.768  1.00  0.00    -0.343 A  
HETATM   21  O   UNL     1     -10.082  17.195  66.037  1.00  0.00    -0.395 OA 
HETATM   22  H   UNL     1     -10.248  17.847  65.366  1.00  0.00     0.000 HD 
HETATM   23  C   UNL     1     -11.802  14.317  64.605  1.00  0.00    -0.459 A  
HETATM   24  O   UNL     1     -11.530  16.541  63.808  1.00  0.00    -1.615 OA 
HETATM   25  H   UNL     1     -12.030  16.318  63.031  1.00  0.00     0.000 HD 
HETATM   26  C   UNL     1     -11.552  13.349  65.587  1.00  0.00    -0.350 A  
ENDBRANCH  14  15
ENDBRANCH  12  14
ENDBRANCH  11  12
ENDBRANCH   3   8
TORSDOF 5
ENDMDL
MODEL      190
REMARK 921   NORMALIZED FREE ENERGY PREDICTED BY IDOCK:   -4.03 KCAL/MOL
REMARK 922        TOTAL FREE ENERGY PREDICTED BY IDOCK:   -5.65 KCAL/MOL
REMARK 923 INTER-LIGAND FREE ENERGY PREDICTED BY IDOCK:   -5.28 KCAL/MOL
REMARK 924 INTRA-LIGAND FREE ENERGY PREDICTED BY IDOCK:   -0.38 KCAL/MOL
REMARK 927      BINDING AFFINITY PREDICTED BY RF-SCORE:    0.00 PKD
ROOT
HETATM    1  N   UNL     1      -6.434  10.564  64.114  1.00  0.00    -0.353 NA 
HETATM    2  H1  UNL     1      -6.365  11.338  63.452  1.00  0.00     0.000 HD 
HETATM    3  CA  UNL     1      -7.254   9.450  63.558  1.00  0.00    -0.100 C  
HETATM    4  H2  UNL     1      -5.513  10.240  64.409  1.00  0.00     0.000 HD 
ENDROOT
BRANCH   3   5
HETATM    5  C   UNL     1      -7.358   8.286  64.552  1.00  0.00    -0.091 C  
HETATM    6  H   UNL     1      -8.313   7.916  66.232  1.00  0.00     0.000 HD 
HETATM    7  O   UNL     1      -8.249   8.636  65.616  1.00  0.00    -0.109 OA 
ENDBRANCH   3   5
BRANCH   3   8
HETATM    8  C   UNL     1      -8.645   9.952  63.160  1.00  0.00    -0.199 C  
HETATM    9  O   UNL     1      -9.407   9.343  62.411  1.00  0.00    -0.196 OA 
HETATM   10  H   UNL     1      -8.278  11.675  64.298  1.00  0.00     0.000 HD 
HETATM   11  N   UNL     1      -8.942  11.205  63.683  1.00  0.00    -0.084 N  
BRANCH  11  12
HETATM   12  N   UNL     1     -10.167  11.822  63.359  1.00  0.00    -0.463 NA 
HETATM   13  H   UNL     1     -10.556  11.449  62.493  1.00  0.00     0.000 HD 
BRANCH  12  14
HETATM   14  C   UNL     1     -11.129  11.722  64.471  1.00  0.00    -0.315 C  
BRANCH  14  15
HETATM   15  C   UNL     1     -11.123  12.961  65.341  1.00  0.00    -0.309 A  
HETATM   16  C   UNL     1     -11.648  12.997  66.641  1.00  0.00    -0.359 A  
HETATM   17  O   UNL     1     -12.209  11.904  67.258  1.00  0.00    -0.495 OA 
HETATM   18  C   UNL     1     -11.616  14.173  67.387  1.00  0.00    -0.372 A  
HETATM   19  H   UNL     1     -12.564  11.929  68.139  1.00  0.00     0.000 HD 
HETATM   20  C   UNL     1     -11.087  15.335  66.848  1.00  0.00    -0.288 A  
HETATM   21  O   UNL     1     -12.097  14.191  68.670  1.00  0.00    -0.448 OA 
HETATM   22  H   UNL     1     -12.076  14.993  69.179  1.00  0.00     0.000 HD 
HETATM   23  C   UNL     1     -10.590  15.342  65.556  1.00  0.00    -0.400 A  
HETATM   24  O   UNL     1     -11.058  16.482  67.590  1.00  0.00    -0.255 OA 
HETATM   25  H   UNL     1     -10.695  17.279  67.221  1.00  0.00     0.000 HD 
HETATM   26  C   UNL     1     -10.610  14.160  64.804  1.00  0.00    -0.439 A  
ENDBRANCH  14  15
ENDBRANCH  12  14
ENDBRANCH  11  12
ENDBRANCH   3   8
TORSDOF 5
ENDMDL
MODEL      191
REMARK 921   NORMALIZED FREE ENERGY PREDICTED BY IDOCK:   -4.03 KCAL/MOL
REMARK 922        TOTAL FREE ENERGY PREDICTED BY IDOCK:   -5.65 KCAL/MOL
REMARK 923 INTER-LIGAND FREE ENERGY PREDICTED BY IDOCK:   -4.87 KCAL/MOL
REMARK 924 INTRA-LIGAND FREE ENERGY PREDICTED BY IDOCK:   -0.78 KCAL/MOL
REMARK 927      BINDING AFFINITY PREDICTED BY RF-SCORE:    0.00 PKD
ROOT
HETATM    1  N   UNL     1      -6.837   7.273  64.856  1.00  0.00    -0.049 NA 
HETATM    2  H1  UNL     1      -6.435   7.838  64.106  1.00  0.00     0.000 HD 
HETATM    3  CA  UNL     1      -8.263   7.632  65.098  1.00  0.00    -0.128 C  
HETATM    4  H2  UNL     1      -6.727   6.276  64.672  1.00  0.00     0.000 HD 
ENDROOT
BRANCH   3   5
HETATM    5  C   UNL     1      -8.867   6.783  66.224  1.00  0.00    -0.147 C  
HETATM    6  H   UNL     1      -9.282   4.883  66.523  1.00  0.00     0.000 HD 
HETATM    7  O   UNL     1      -8.908   5.409  65.827  1.00  0.00    -0.143 OA 
ENDBRANCH   3   5
BRANCH   3   8
HETATM    8  C   UNL     1      -8.396   9.125  65.412  1.00  0.00    -0.141 C  
HETATM    9  O   UNL     1      -8.086   9.631  66.490  1.00  0.00    -0.117 OA 
HETATM   10  H   UNL     1      -9.210   9.390  63.498  1.00  0.00     0.000 HD 
HETATM   11  N   UNL     1      -8.965   9.852  64.373  1.00  0.00    -0.221 N  
BRANCH  11  12
HETATM   12  N   UNL     1      -9.202  11.232  64.537  1.00  0.00    -0.378 NA 
HETATM   13  H   UNL     1      -8.660  11.785  63.874  1.00  0.00     0.000 HD 
BRANCH  12  14
HETATM   14  C   UNL     1     -10.641  11.543  64.452  1.00  0.00    -0.334 C  
BRANCH  14  15
HETATM   15  C   UNL     1     -11.134  12.289  65.674  1.00  0.00    -0.357 A  
HETATM   16  C   UNL     1     -11.250  11.706  66.944  1.00  0.00    -0.313 A  
HETATM   17  O   UNL     1     -10.913  10.399  67.207  1.00  0.00    -0.288 OA 
HETATM   18  C   UNL     1     -11.717  12.448  68.026  1.00  0.00    -0.356 A  
HETATM   19  H   UNL     1     -10.992  10.004  68.067  1.00  0.00     0.000 HD 
HETATM   20  C   UNL     1     -12.100  13.770  67.861  1.00  0.00    -0.287 A  
HETATM   21  O   UNL     1     -11.793  11.882  69.271  1.00  0.00    -0.296 OA 
HETATM   22  H   UNL     1     -12.112  12.388  70.009  1.00  0.00     0.000 HD 
HETATM   23  C   UNL     1     -12.029  14.367  66.614  1.00  0.00    -0.414 A  
HETATM   24  O   UNL     1     -12.553  14.489  68.930  1.00  0.00    -0.560 OA 
HETATM   25  H   UNL     1     -12.816  15.396  68.817  1.00  0.00     0.000 HD 
HETATM   26  C   UNL     1     -11.550  13.629  65.524  1.00  0.00    -0.337 A  
ENDBRANCH  14  15
ENDBRANCH  12  14
ENDBRANCH  11  12
ENDBRANCH   3   8
TORSDOF 5
ENDMDL
MODEL      192
REMARK 921   NORMALIZED FREE ENERGY PREDICTED BY IDOCK:   -4.02 KCAL/MOL
REMARK 922        TOTAL FREE ENERGY PREDICTED BY IDOCK:   -5.64 KCAL/MOL
REMARK 923 INTER-LIGAND FREE ENERGY PREDICTED BY IDOCK:   -5.43 KCAL/MOL
REMARK 924 INTRA-LIGAND FREE ENERGY PREDICTED BY IDOCK:   -0.21 KCAL/MOL
REMARK 927      BINDING AFFINITY PREDICTED BY RF-SCORE:    0.00 PKD
ROOT
HETATM    1  N   UNL     1     -11.079  11.234  63.009  1.00  0.00    -0.841 NA 
HETATM    2  H1  UNL     1     -10.464  10.461  62.749  1.00  0.00     0.000 HD 
HETATM    3  CA  UNL     1     -10.402  12.167  63.955  1.00  0.00    -0.415 C  
HETATM    4  H2  UNL     1     -11.433  11.724  62.188  1.00  0.00     0.000 HD 
ENDROOT
BRANCH   3   5
HETATM    5  C   UNL     1     -11.325  13.328  64.346  1.00  0.00    -0.383 C  
HETATM    6  H   UNL     1     -13.106  13.983  63.826  1.00  0.00     0.000 HD 
HETATM    7  O   UNL     1     -12.535  13.264  63.584  1.00  0.00    -0.699 OA 
ENDBRANCH   3   5
BRANCH   3   8
HETATM    8  C   UNL     1      -9.917  11.415  65.197  1.00  0.00    -0.264 C  
HETATM    9  O   UNL     1      -9.355  11.953  66.150  1.00  0.00    -0.224 OA 
HETATM   10  H   UNL     1     -10.587   9.639  64.307  1.00  0.00     0.000 HD 
HETATM   11  N   UNL     1     -10.119  10.043  65.118  1.00  0.00    -0.288 N  
BRANCH  11  12
HETATM   12  N   UNL     1      -9.673   9.211  66.165  1.00  0.00    -0.270 NA 
HETATM   13  H   UNL     1      -8.763   9.507  66.516  1.00  0.00     0.000 HD 
BRANCH  12  14
HETATM   14  C   UNL     1     -10.670   9.131  67.248  1.00  0.00    -0.154 C  
BRANCH  14  15
HETATM   15  C   UNL     1     -10.418   7.955  68.167  1.00  0.00    -0.227 A  
HETATM   16  C   UNL     1      -9.853   8.077  69.445  1.00  0.00    -0.181 A  
HETATM   17  O   UNL     1      -9.486   9.283  69.995  1.00  0.00    -0.181 OA 
HETATM   18  C   UNL     1      -9.641   6.952  70.238  1.00  0.00    -0.168 A  
HETATM   19  H   UNL     1      -9.104   9.365  70.860  1.00  0.00     0.000 HD 
HETATM   20  C   UNL     1      -9.961   5.688  69.768  1.00  0.00    -0.200 A  
HETATM   21  O   UNL     1      -9.124   7.083  71.500  1.00  0.00    -0.140 OA 
HETATM   22  H   UNL     1      -8.979   6.315  72.041  1.00  0.00     0.000 HD 
HETATM   23  C   UNL     1     -10.490   5.529  68.498  1.00  0.00    -0.234 A  
HETATM   24  O   UNL     1      -9.753   4.591  70.556  1.00  0.00    -0.185 OA 
HETATM   25  H   UNL     1      -9.973   3.725  70.234  1.00  0.00     0.000 HD 
HETATM   26  C   UNL     1     -10.715   6.658  67.700  1.00  0.00    -0.373 A  
ENDBRANCH  14  15
ENDBRANCH  12  14
ENDBRANCH  11  12
ENDBRANCH   3   8
TORSDOF 5
ENDMDL
MODEL      193
REMARK 921   NORMALIZED FREE ENERGY PREDICTED BY IDOCK:   -4.01 KCAL/MOL
REMARK 922        TOTAL FREE ENERGY PREDICTED BY IDOCK:   -5.63 KCAL/MOL
REMARK 923 INTER-LIGAND FREE ENERGY PREDICTED BY IDOCK:   -5.60 KCAL/MOL
REMARK 924 INTRA-LIGAND FREE ENERGY PREDICTED BY IDOCK:   -0.03 KCAL/MOL
REMARK 927      BINDING AFFINITY PREDICTED BY RF-SCORE:    0.00 PKD
ROOT
HETATM    1  N   UNL     1     -11.230   6.971  67.849  1.00  0.00    -0.541 NA 
HETATM    2  H1  UNL     1     -12.121   6.923  68.344  1.00  0.00     0.000 HD 
HETATM    3  CA  UNL     1     -10.533   5.653  67.864  1.00  0.00    -0.211 C  
HETATM    4  H2  UNL     1     -11.348   7.322  66.898  1.00  0.00     0.000 HD 
ENDROOT
BRANCH   3   5
HETATM    5  C   UNL     1      -9.193   5.725  67.120  1.00  0.00    -0.115 C  
HETATM    6  H   UNL     1      -8.420   6.786  65.655  1.00  0.00     0.000 HD 
HETATM    7  O   UNL     1      -9.250   6.742  66.115  1.00  0.00    -0.154 OA 
ENDBRANCH   3   5
BRANCH   3   8
HETATM    8  C   UNL     1     -10.331   5.168  69.302  1.00  0.00    -0.178 C  
HETATM    9  O   UNL     1      -9.728   4.138  69.601  1.00  0.00    -0.204 OA 
HETATM   10  H   UNL     1     -11.446   6.821  69.949  1.00  0.00     0.000 HD 
HETATM   11  N   UNL     1     -10.954   5.978  70.244  1.00  0.00    -0.328 N  
BRANCH  11  12
HETATM   12  N   UNL     1     -10.903   5.627  71.607  1.00  0.00    -0.252 NA 
HETATM   13  H   UNL     1     -10.319   4.805  71.760  1.00  0.00     0.000 HD 
BRANCH  12  14
HETATM   14  C   UNL     1     -10.465   6.763  72.438  1.00  0.00    -0.204 C  
BRANCH  14  15
HETATM   15  C   UNL     1     -10.786   8.095  71.794  1.00  0.00    -0.313 A  
HETATM   16  C   UNL     1     -11.965   8.812  72.041  1.00  0.00    -0.376 A  
HETATM   17  O   UNL     1     -12.942   8.380  72.907  1.00  0.00    -0.655 OA 
HETATM   18  C   UNL     1     -12.202  10.030  71.409  1.00  0.00    -0.416 A  
HETATM   19  H   UNL     1     -13.741   8.865  73.075  1.00  0.00     0.000 HD 
HETATM   20  C   UNL     1     -11.287  10.544  70.505  1.00  0.00    -0.314 A  
HETATM   21  O   UNL     1     -13.340  10.742  71.685  1.00  0.00    -0.370 OA 
HETATM   22  H   UNL     1     -13.501  11.574  71.254  1.00  0.00     0.000 HD 
HETATM   23  C   UNL     1     -10.127   9.846  70.212  1.00  0.00    -0.295 A  
HETATM   24  O   UNL     1     -11.527  11.742  69.893  1.00  0.00    -0.417 OA 
HETATM   25  H   UNL     1     -10.899  12.095  69.273  1.00  0.00     0.000 HD 
HETATM   26  C   UNL     1      -9.879   8.625  70.852  1.00  0.00    -0.256 A  
ENDBRANCH  14  15
ENDBRANCH  12  14
ENDBRANCH  11  12
ENDBRANCH   3   8
TORSDOF 5
ENDMDL
MODEL      194
REMARK 921   NORMALIZED FREE ENERGY PREDICTED BY IDOCK:   -4.01 KCAL/MOL
REMARK 922        TOTAL FREE ENERGY PREDICTED BY IDOCK:   -5.62 KCAL/MOL
REMARK 923 INTER-LIGAND FREE ENERGY PREDICTED BY IDOCK:   -4.83 KCAL/MOL
REMARK 924 INTRA-LIGAND FREE ENERGY PREDICTED BY IDOCK:   -0.80 KCAL/MOL
REMARK 927      BINDING AFFINITY PREDICTED BY RF-SCORE:    0.00 PKD
ROOT
HETATM    1  N   UNL     1      -7.799  10.347  69.666  1.00  0.00    -0.262 NA 
HETATM    2  H1  UNL     1      -7.278  11.078  70.152  1.00  0.00     0.000 HD 
HETATM    3  CA  UNL     1      -7.714  10.515  68.188  1.00  0.00    -0.096 C  
HETATM    4  H2  UNL     1      -7.497   9.416  69.956  1.00  0.00     0.000 HD 
ENDROOT
BRANCH   3   5
HETATM    5  C   UNL     1      -8.498   9.416  67.457  1.00  0.00    -0.122 C  
HETATM    6  H   UNL     1     -10.182   8.436  67.725  1.00  0.00     0.000 HD 
HETATM    7  O   UNL     1      -9.698   9.116  68.177  1.00  0.00    -0.149 OA 
ENDBRANCH   3   5
BRANCH   3   8
HETATM    8  C   UNL     1      -8.211  11.903  67.775  1.00  0.00    -0.148 C  
HETATM    9  O   UNL     1      -8.079  12.914  68.463  1.00  0.00    -0.142 OA 
HETATM   10  H   UNL     1      -8.979  11.037  66.025  1.00  0.00     0.000 HD 
HETATM   11  N   UNL     1      -8.890  11.901  66.562  1.00  0.00    -0.195 N  
BRANCH  11  12
HETATM   12  N   UNL     1      -9.455  13.097  66.077  1.00  0.00    -0.464 NA 
HETATM   13  H   UNL     1      -9.165  13.285  65.118  1.00  0.00     0.000 HD 
BRANCH  12  14
HETATM   14  C   UNL     1     -10.923  13.090  66.207  1.00  0.00    -0.284 C  
BRANCH  14  15
HETATM   15  C   UNL     1     -11.379  13.643  67.540  1.00  0.00    -0.335 A  
HETATM   16  C   UNL     1     -11.762  12.839  68.623  1.00  0.00    -0.324 A  
HETATM   17  O   UNL     1     -11.748  11.465  68.584  1.00  0.00    -0.295 OA 
HETATM   18  C   UNL     1     -12.178  13.413  69.822  1.00  0.00    -0.245 A  
HETATM   19  H   UNL     1     -12.007  10.920  69.317  1.00  0.00     0.000 HD 
HETATM   20  C   UNL     1     -12.244  14.791  69.958  1.00  0.00    -0.333 A  
HETATM   21  O   UNL     1     -12.515  12.621  70.888  1.00  0.00    -0.369 OA 
HETATM   22  H   UNL     1     -12.799  13.013  71.706  1.00  0.00     0.000 HD 
HETATM   23  C   UNL     1     -11.904  15.614  68.897  1.00  0.00    -0.368 A  
HETATM   24  O   UNL     1     -12.650  15.344  71.139  1.00  0.00    -0.354 OA 
HETATM   25  H   UNL     1     -12.695  16.289  71.232  1.00  0.00     0.000 HD 
HETATM   26  C   UNL     1     -11.475  15.042  67.692  1.00  0.00    -0.344 A  
ENDBRANCH  14  15
ENDBRANCH  12  14
ENDBRANCH  11  12
ENDBRANCH   3   8
TORSDOF 5
ENDMDL
MODEL      195
REMARK 921   NORMALIZED FREE ENERGY PREDICTED BY IDOCK:   -4.00 KCAL/MOL
REMARK 922        TOTAL FREE ENERGY PREDICTED BY IDOCK:   -5.62 KCAL/MOL
REMARK 923 INTER-LIGAND FREE ENERGY PREDICTED BY IDOCK:   -5.17 KCAL/MOL
REMARK 924 INTRA-LIGAND FREE ENERGY PREDICTED BY IDOCK:   -0.45 KCAL/MOL
REMARK 927      BINDING AFFINITY PREDICTED BY RF-SCORE:    0.00 PKD
ROOT
HETATM    1  N   UNL     1      -8.766   6.922  65.203  1.00  0.00    -0.357 NA 
HETATM    2  H1  UNL     1      -8.047   6.202  65.273  1.00  0.00     0.000 HD 
HETATM    3  CA  UNL     1      -8.484   8.059  66.124  1.00  0.00    -0.135 C  
HETATM    4  H2  UNL     1      -8.886   7.240  64.241  1.00  0.00     0.000 HD 
ENDROOT
BRANCH   3   5
HETATM    5  C   UNL     1      -9.566   9.142  66.019  1.00  0.00    -0.272 C  
HETATM    6  H   UNL     1     -11.366   9.446  66.751  1.00  0.00     0.000 HD 
HETATM    7  O   UNL     1     -10.697   8.776  66.816  1.00  0.00    -0.206 OA 
ENDBRANCH   3   5
BRANCH   3   8
HETATM    8  C   UNL     1      -8.350   7.562  67.566  1.00  0.00    -0.117 C  
HETATM    9  O   UNL     1      -8.671   6.434  67.938  1.00  0.00    -0.116 OA 
HETATM   10  H   UNL     1      -7.634   9.463  68.087  1.00  0.00     0.000 HD 
HETATM   11  N   UNL     1      -7.885   8.539  68.439  1.00  0.00    -0.104 N  
BRANCH  11  12
HETATM   12  N   UNL     1      -7.763   8.246  69.812  1.00  0.00    -0.096 NA 
HETATM   13  H   UNL     1      -6.799   8.027  70.063  1.00  0.00     0.000 HD 
BRANCH  12  14
HETATM   14  C   UNL     1      -8.304   9.335  70.644  1.00  0.00    -0.207 C  
BRANCH  14  15
HETATM   15  C   UNL     1      -9.708   9.038  71.126  1.00  0.00    -0.369 A  
HETATM   16  C   UNL     1     -10.835   9.773  70.730  1.00  0.00    -0.333 A  
HETATM   17  O   UNL     1     -10.775  10.829  69.851  1.00  0.00    -0.393 OA 
HETATM   18  C   UNL     1     -12.100   9.451  71.216  1.00  0.00    -0.345 A  
HETATM   19  H   UNL     1     -11.539  11.326  69.582  1.00  0.00     0.000 HD 
HETATM   20  C   UNL     1     -12.264   8.414  72.121  1.00  0.00    -0.374 A  
HETATM   21  O   UNL     1     -13.201  10.150  70.795  1.00  0.00    -0.526 OA 
HETATM   22  H   UNL     1     -14.063   9.930  71.127  1.00  0.00     0.000 HD 
HETATM   23  C   UNL     1     -11.168   7.690  72.559  1.00  0.00    -0.399 A  
HETATM   24  O   UNL     1     -13.509   8.105  72.589  1.00  0.00    -0.552 OA 
HETATM   25  H   UNL     1     -13.622   7.394  73.210  1.00  0.00     0.000 HD 
HETATM   26  C   UNL     1      -9.894   8.002  72.065  1.00  0.00    -0.273 A  
ENDBRANCH  14  15
ENDBRANCH  12  14
ENDBRANCH  11  12
ENDBRANCH   3   8
TORSDOF 5
ENDMDL
MODEL      196
REMARK 921   NORMALIZED FREE ENERGY PREDICTED BY IDOCK:   -4.00 KCAL/MOL
REMARK 922        TOTAL FREE ENERGY PREDICTED BY IDOCK:   -5.62 KCAL/MOL
REMARK 923 INTER-LIGAND FREE ENERGY PREDICTED BY IDOCK:   -5.23 KCAL/MOL
REMARK 924 INTRA-LIGAND FREE ENERGY PREDICTED BY IDOCK:   -0.39 KCAL/MOL
REMARK 927      BINDING AFFINITY PREDICTED BY RF-SCORE:    0.00 PKD
ROOT
HETATM    1  N   UNL     1      -9.388  16.791  68.071  1.00  0.00    -0.225 NA 
HETATM    2  H1  UNL     1     -10.175  16.863  67.426  1.00  0.00     0.000 HD 
HETATM    3  CA  UNL     1      -8.394  15.785  67.600  1.00  0.00    -0.157 C  
HETATM    4  H2  UNL     1      -8.953  17.700  68.234  1.00  0.00     0.000 HD 
ENDROOT
BRANCH   3   5
HETATM    5  C   UNL     1      -7.210  15.676  68.570  1.00  0.00    -0.120 C  
HETATM    6  H   UNL     1      -5.280  16.054  68.525  1.00  0.00     0.000 HD 
HETATM    7  O   UNL     1      -6.013  16.122  67.925  1.00  0.00    -0.111 OA 
ENDBRANCH   3   5
BRANCH   3   8
HETATM    8  C   UNL     1      -9.062  14.421  67.404  1.00  0.00    -0.198 C  
HETATM    9  O   UNL     1      -9.581  14.055  66.350  1.00  0.00    -0.279 OA 
HETATM   10  H   UNL     1      -8.641  13.996  69.413  1.00  0.00     0.000 HD 
HETATM   11  N   UNL     1      -9.081  13.651  68.561  1.00  0.00    -0.157 N  
BRANCH  11  12
HETATM   12  N   UNL     1      -9.712  12.391  68.548  1.00  0.00    -0.355 NA 
HETATM   13  H   UNL     1      -9.311  11.765  69.246  1.00  0.00     0.000 HD 
BRANCH  12  14
HETATM   14  C   UNL     1     -11.172  12.520  68.713  1.00  0.00    -0.273 C  
BRANCH  14  15
HETATM   15  C   UNL     1     -11.704  11.609  69.798  1.00  0.00    -0.425 A  
HETATM   16  C   UNL     1     -11.352  10.257  69.917  1.00  0.00    -0.290 A  
HETATM   17  O   UNL     1     -10.475   9.629  69.064  1.00  0.00    -0.200 OA 
HETATM   18  C   UNL     1     -11.884   9.471  70.936  1.00  0.00    -0.309 A  
HETATM   19  H   UNL     1     -10.236   8.713  69.145  1.00  0.00     0.000 HD 
HETATM   20  C   UNL     1     -12.791  10.005  71.838  1.00  0.00    -0.426 A  
HETATM   21  O   UNL     1     -11.506   8.161  71.068  1.00  0.00    -0.274 OA 
HETATM   22  H   UNL     1     -11.869   7.625  71.764  1.00  0.00     0.000 HD 
HETATM   23  C   UNL     1     -13.186  11.329  71.729  1.00  0.00    -0.480 A  
HETATM   24  O   UNL     1     -13.304   9.227  72.836  1.00  0.00    -0.645 OA 
HETATM   25  H   UNL     1     -13.926   9.593  73.454  1.00  0.00     0.000 HD 
HETATM   26  C   UNL     1     -12.646  12.127  70.712  1.00  0.00    -0.305 A  
ENDBRANCH  14  15
ENDBRANCH  12  14
ENDBRANCH  11  12
ENDBRANCH   3   8
TORSDOF 5
ENDMDL
MODEL      197
REMARK 921   NORMALIZED FREE ENERGY PREDICTED BY IDOCK:   -4.00 KCAL/MOL
REMARK 922        TOTAL FREE ENERGY PREDICTED BY IDOCK:   -5.61 KCAL/MOL
REMARK 923 INTER-LIGAND FREE ENERGY PREDICTED BY IDOCK:   -5.36 KCAL/MOL
REMARK 924 INTRA-LIGAND FREE ENERGY PREDICTED BY IDOCK:   -0.25 KCAL/MOL
REMARK 927      BINDING AFFINITY PREDICTED BY RF-SCORE:    0.00 PKD
ROOT
HETATM    1  N   UNL     1     -10.914   7.315  67.633  1.00  0.00    -0.521 NA 
HETATM    2  H1  UNL     1     -11.337   7.254  68.560  1.00  0.00     0.000 HD 
HETATM    3  CA  UNL     1     -10.071   8.538  67.503  1.00  0.00    -0.221 C  
HETATM    4  H2  UNL     1     -10.389   6.471  67.405  1.00  0.00     0.000 HD 
ENDROOT
BRANCH   3   5
HETATM    5  C   UNL     1      -9.435   8.629  66.110  1.00  0.00    -0.240 C  
HETATM    6  H   UNL     1      -7.625   8.849  65.371  1.00  0.00     0.000 HD 
HETATM    7  O   UNL     1      -8.019   8.792  66.233  1.00  0.00    -0.103 OA 
ENDBRANCH   3   5
BRANCH   3   8
HETATM    8  C   UNL     1     -10.892   9.793  67.809  1.00  0.00    -0.246 C  
HETATM    9  O   UNL     1     -11.521   9.966  68.853  1.00  0.00    -0.080 OA 
HETATM   10  H   UNL     1     -10.377  10.516  65.910  1.00  0.00     0.000 HD 
HETATM   11  N   UNL     1     -10.912  10.702  66.758  1.00  0.00    -0.173 N  
BRANCH  11  12
HETATM   12  N   UNL     1     -11.673  11.883  66.872  1.00  0.00    -0.589 NA 
HETATM   13  H   UNL     1     -11.309  12.493  67.604  1.00  0.00     0.000 HD 
BRANCH  12  14
HETATM   14  C   UNL     1     -11.769  12.586  65.580  1.00  0.00    -0.423 C  
BRANCH  14  15
HETATM   15  C   UNL     1     -11.208  13.990  65.654  1.00  0.00    -0.310 A  
HETATM   16  C   UNL     1     -10.311  14.415  66.645  1.00  0.00    -0.275 A  
HETATM   17  O   UNL     1      -9.842  13.591  67.641  1.00  0.00    -0.219 OA 
HETATM   18  C   UNL     1      -9.837  15.725  66.660  1.00  0.00    -0.252 A  
HETATM   19  H   UNL     1      -9.235  13.878  68.312  1.00  0.00     0.000 HD 
HETATM   20  C   UNL     1     -10.263  16.639  65.709  1.00  0.00    -0.307 A  
HETATM   21  O   UNL     1      -8.933  16.122  67.609  1.00  0.00    -0.189 OA 
HETATM   22  H   UNL     1      -8.609  17.015  67.619  1.00  0.00     0.000 HD 
HETATM   23  C   UNL     1     -11.173  16.261  64.736  1.00  0.00    -0.267 A  
HETATM   24  O   UNL     1      -9.789  17.920  65.731  1.00  0.00    -0.540 OA 
HETATM   25  H   UNL     1     -10.081  18.547  65.079  1.00  0.00     0.000 HD 
HETATM   26  C   UNL     1     -11.646  14.942  64.711  1.00  0.00    -0.410 A  
ENDBRANCH  14  15
ENDBRANCH  12  14
ENDBRANCH  11  12
ENDBRANCH   3   8
TORSDOF 5
ENDMDL
MODEL      198
REMARK 921   NORMALIZED FREE ENERGY PREDICTED BY IDOCK:   -3.99 KCAL/MOL
REMARK 922        TOTAL FREE ENERGY PREDICTED BY IDOCK:   -5.61 KCAL/MOL
REMARK 923 INTER-LIGAND FREE ENERGY PREDICTED BY IDOCK:   -5.17 KCAL/MOL
REMARK 924 INTRA-LIGAND FREE ENERGY PREDICTED BY IDOCK:   -0.43 KCAL/MOL
REMARK 927      BINDING AFFINITY PREDICTED BY RF-SCORE:    0.00 PKD
ROOT
HETATM    1  N   UNL     1     -10.281  12.622  63.396  1.00  0.00    -0.586 NA 
HETATM    2  H1  UNL     1      -9.368  13.078  63.390  1.00  0.00     0.000 HD 
HETATM    3  CA  UNL     1     -11.181  13.227  64.419  1.00  0.00    -0.381 C  
HETATM    4  H2  UNL     1     -10.708  12.627  62.470  1.00  0.00     0.000 HD 
ENDROOT
BRANCH   3   5
HETATM    5  C   UNL     1     -12.553  12.541  64.428  1.00  0.00    -0.410 C  
HETATM    6  H   UNL     1     -13.581  11.374  63.223  1.00  0.00     0.000 HD 
HETATM    7  O   UNL     1     -12.732  11.798  63.218  1.00  0.00    -0.567 OA 
ENDBRANCH   3   5
BRANCH   3   8
HETATM    8  C   UNL     1     -10.535  13.168  65.806  1.00  0.00    -0.283 C  
HETATM    9  O   UNL     1      -9.479  12.586  66.049  1.00  0.00    -0.231 OA 
HETATM   10  H   UNL     1     -12.168  14.258  66.542  1.00  0.00     0.000 HD 
HETATM   11  N   UNL     1     -11.296  13.790  66.789  1.00  0.00    -0.319 N  
BRANCH  11  12
HETATM   12  N   UNL     1     -10.856  13.769  68.127  1.00  0.00    -0.240 NA 
HETATM   13  H   UNL     1      -9.966  13.281  68.221  1.00  0.00     0.000 HD 
BRANCH  12  14
HETATM   14  C   UNL     1     -10.789  15.130  68.691  1.00  0.00    -0.245 C  
BRANCH  14  15
HETATM   15  C   UNL     1      -9.417  15.748  68.522  1.00  0.00    -0.201 A  
HETATM   16  C   UNL     1      -9.195  17.129  68.430  1.00  0.00    -0.266 A  
HETATM   17  O   UNL     1     -10.204  18.061  68.500  1.00  0.00    -0.367 OA 
HETATM   18  C   UNL     1      -7.906  17.632  68.268  1.00  0.00    -0.256 A  
HETATM   19  H   UNL     1     -10.054  18.997  68.438  1.00  0.00     0.000 HD 
HETATM   20  C   UNL     1      -6.822  16.775  68.170  1.00  0.00    -0.149 A  
HETATM   21  O   UNL     1      -7.694  18.985  68.217  1.00  0.00    -0.287 OA 
HETATM   22  H   UNL     1      -6.815  19.328  68.107  1.00  0.00     0.000 HD 
HETATM   23  C   UNL     1      -7.010  15.404  68.223  1.00  0.00    -0.119 A  
HETATM   24  O   UNL     1      -5.562  17.279  68.015  1.00  0.00    -0.115 OA 
HETATM   25  H   UNL     1      -4.819  16.691  67.947  1.00  0.00     0.000 HD 
HETATM   26  C   UNL     1      -8.303  14.892  68.396  1.00  0.00    -0.153 A  
ENDBRANCH  14  15
ENDBRANCH  12  14
ENDBRANCH  11  12
ENDBRANCH   3   8
TORSDOF 5
ENDMDL
MODEL      199
REMARK 921   NORMALIZED FREE ENERGY PREDICTED BY IDOCK:   -3.98 KCAL/MOL
REMARK 922        TOTAL FREE ENERGY PREDICTED BY IDOCK:   -5.59 KCAL/MOL
REMARK 923 INTER-LIGAND FREE ENERGY PREDICTED BY IDOCK:   -5.12 KCAL/MOL
REMARK 924 INTRA-LIGAND FREE ENERGY PREDICTED BY IDOCK:   -0.47 KCAL/MOL
REMARK 927      BINDING AFFINITY PREDICTED BY RF-SCORE:    0.00 PKD
ROOT
HETATM    1  N   UNL     1      -5.539  10.557  69.459  1.00  0.00    -0.038 NA 
HETATM    2  H1  UNL     1      -5.609  10.899  70.418  1.00  0.00     0.000 HD 
HETATM    3  CA  UNL     1      -6.615  11.128  68.600  1.00  0.00    -0.059 C  
HETATM    4  H2  UNL     1      -4.613  10.731  69.066  1.00  0.00     0.000 HD 
ENDROOT
BRANCH   3   5
HETATM    5  C   UNL     1      -6.508  10.614  67.159  1.00  0.00    -0.075 C  
HETATM    6  H   UNL     1      -6.942   8.957  66.192  1.00  0.00     0.000 HD 
HETATM    7  O   UNL     1      -7.008   9.275  67.084  1.00  0.00    -0.083 OA 
ENDBRANCH   3   5
BRANCH   3   8
HETATM    8  C   UNL     1      -7.994  10.817  69.188  1.00  0.00    -0.134 C  
HETATM    9  O   UNL     1      -8.206   9.929  70.012  1.00  0.00    -0.175 OA 
HETATM   10  H   UNL     1      -8.785  12.325  67.964  1.00  0.00     0.000 HD 
HETATM   11  N   UNL     1      -9.006  11.602  68.648  1.00  0.00    -0.130 N  
BRANCH  11  12
HETATM   12  N   UNL     1     -10.340  11.392  69.052  1.00  0.00    -0.337 NA 
HETATM   13  H   UNL     1     -10.717  12.207  69.536  1.00  0.00     0.000 HD 
BRANCH  12  14
HETATM   14  C   UNL     1     -11.190  10.998  67.914  1.00  0.00    -0.310 C  
BRANCH  14  15
HETATM   15  C   UNL     1     -11.264  12.081  66.858  1.00  0.00    -0.375 A  
HETATM   16  C   UNL     1     -10.624  11.994  65.613  1.00  0.00    -0.265 A  
HETATM   17  O   UNL     1      -9.877  10.908  65.224  1.00  0.00    -0.230 OA 
HETATM   18  C   UNL     1     -10.727  13.031  64.688  1.00  0.00    -0.367 A  
HETATM   19  H   UNL     1      -9.444  10.849  64.381  1.00  0.00     0.000 HD 
HETATM   20  C   UNL     1     -11.444  14.177  64.992  1.00  0.00    -0.352 A  
HETATM   21  O   UNL     1     -10.130  12.922  63.460  1.00  0.00    -0.661 OA 
HETATM   22  H   UNL     1     -10.201  13.629  62.829  1.00  0.00     0.000 HD 
HETATM   23  C   UNL     1     -12.060  14.310  66.225  1.00  0.00    -0.433 A  
HETATM   24  O   UNL     1     -11.541  15.186  64.076  1.00  0.00    -0.700 OA 
HETATM   25  H   UNL     1     -12.032  15.973  64.284  1.00  0.00     0.000 HD 
HETATM   26  C   UNL     1     -11.969  13.266  67.155  1.00  0.00    -0.400 A  
ENDBRANCH  14  15
ENDBRANCH  12  14
ENDBRANCH  11  12
ENDBRANCH   3   8
TORSDOF 5
ENDMDL
MODEL      200
REMARK 921   NORMALIZED FREE ENERGY PREDICTED BY IDOCK:   -3.97 KCAL/MOL
REMARK 922        TOTAL FREE ENERGY PREDICTED BY IDOCK:   -5.58 KCAL/MOL
REMARK 923 INTER-LIGAND FREE ENERGY PREDICTED BY IDOCK:   -5.13 KCAL/MOL
REMARK 924 INTRA-LIGAND FREE ENERGY PREDICTED BY IDOCK:   -0.45 KCAL/MOL
REMARK 927      BINDING AFFINITY PREDICTED BY RF-SCORE:    0.00 PKD
ROOT
HETATM    1  N   UNL     1     -10.449  17.388  65.642  1.00  0.00    -0.601 NA 
HETATM    2  H1  UNL     1     -10.545  16.540  65.082  1.00  0.00     0.000 HD 
HETATM    3  CA  UNL     1      -9.034  17.603  66.058  1.00  0.00    -0.005 C  
HETATM    4  H2  UNL     1     -10.824  18.203  65.155  1.00  0.00     0.000 HD 
ENDROOT
BRANCH   3   5
HETATM    5  C   UNL     1      -8.889  18.878  66.899  1.00  0.00    -0.297 C  
HETATM    6  H   UNL     1      -9.100  20.813  66.618  1.00  0.00     0.000 HD 
HETATM    7  O   UNL     1      -9.190  20.024  66.098  1.00  0.00    -0.375 OA 
ENDBRANCH   3   5
BRANCH   3   8
HETATM    8  C   UNL     1      -8.508  16.385  66.823  1.00  0.00    -0.244 C  
HETATM    9  O   UNL     1      -7.692  16.449  67.741  1.00  0.00    -0.143 OA 
HETATM   10  H   UNL     1      -9.672  15.174  65.567  1.00  0.00     0.000 HD 
HETATM   11  N   UNL     1      -8.998  15.180  66.333  1.00  0.00    -0.292 N  
BRANCH  11  12
HETATM   12  N   UNL     1      -8.560  13.967  66.901  1.00  0.00    -0.391 NA 
HETATM   13  H   UNL     1      -8.004  14.127  67.741  1.00  0.00     0.000 HD 
BRANCH  12  14
HETATM   14  C   UNL     1      -9.691  13.059  67.166  1.00  0.00    -0.230 C  
BRANCH  14  15
HETATM   15  C   UNL     1      -9.512  11.717  66.489  1.00  0.00    -0.219 A  
HETATM   16  C   UNL     1      -9.647  11.522  65.107  1.00  0.00    -0.210 A  
HETATM   17  O   UNL     1      -9.942  12.538  64.228  1.00  0.00    -0.517 OA 
HETATM   18  C   UNL     1      -9.476  10.258  64.547  1.00  0.00    -0.298 A  
HETATM   19  H   UNL     1     -10.033  12.406  63.292  1.00  0.00     0.000 HD 
HETATM   20  C   UNL     1      -9.195   9.164  65.351  1.00  0.00    -0.202 A  
HETATM   21  O   UNL     1      -9.573  10.083  63.192  1.00  0.00    -0.424 OA 
HETATM   22  H   UNL     1      -9.456   9.221  62.810  1.00  0.00     0.000 HD 
HETATM   23  C   UNL     1      -9.087   9.315  66.723  1.00  0.00    -0.170 A  
HETATM   24  O   UNL     1      -9.025   7.930  64.791  1.00  0.00    -0.354 OA 
HETATM   25  H   UNL     1      -8.832   7.180  65.342  1.00  0.00     0.000 HD 
HETATM   26  C   UNL     1      -9.248  10.587  67.290  1.00  0.00    -0.156 A  
ENDBRANCH  14  15
ENDBRANCH  12  14
ENDBRANCH  11  12
ENDBRANCH   3   8
TORSDOF 5
ENDMDL
MODEL      201
REMARK 921   NORMALIZED FREE ENERGY PREDICTED BY IDOCK:   -3.97 KCAL/MOL
REMARK 922        TOTAL FREE ENERGY PREDICTED BY IDOCK:   -5.57 KCAL/MOL
REMARK 923 INTER-LIGAND FREE ENERGY PREDICTED BY IDOCK:   -5.28 KCAL/MOL
REMARK 924 INTRA-LIGAND FREE ENERGY PREDICTED BY IDOCK:   -0.29 KCAL/MOL
REMARK 927      BINDING AFFINITY PREDICTED BY RF-SCORE:    0.00 PKD
ROOT
HETATM    1  N   UNL     1     -10.853  17.885  68.452  1.00  0.00    -0.264 NA 
HETATM    2  H1  UNL     1     -11.787  17.485  68.552  1.00  0.00     0.000 HD 
HETATM    3  CA  UNL     1     -10.098  17.223  67.351  1.00  0.00    -0.307 C  
HETATM    4  H2  UNL     1     -10.891  18.897  68.326  1.00  0.00     0.000 HD 
ENDROOT
BRANCH   3   5
HETATM    5  C   UNL     1      -8.694  17.823  67.200  1.00  0.00    -0.245 C  
HETATM    6  H   UNL     1      -7.736  19.413  67.853  1.00  0.00     0.000 HD 
HETATM    7  O   UNL     1      -8.605  19.041  67.946  1.00  0.00    -0.287 OA 
ENDBRANCH   3   5
BRANCH   3   8
HETATM    8  C   UNL     1     -10.020  15.712  67.585  1.00  0.00    -0.237 C  
HETATM    9  O   UNL     1      -9.185  15.170  68.307  1.00  0.00    -0.181 OA 
HETATM   10  H   UNL     1     -11.627  15.488  66.256  1.00  0.00     0.000 HD 
HETATM   11  N   UNL     1     -10.954  14.996  66.845  1.00  0.00    -0.320 N  
BRANCH  11  12
HETATM   12  N   UNL     1     -10.968  13.589  66.915  1.00  0.00    -0.286 NA 
HETATM   13  H   UNL     1     -10.040  13.215  67.112  1.00  0.00     0.000 HD 
BRANCH  12  14
HETATM   14  C   UNL     1     -11.963  13.109  67.891  1.00  0.00    -0.303 C  
BRANCH  14  15
HETATM   15  C   UNL     1     -11.571  11.778  68.495  1.00  0.00    -0.380 A  
HETATM   16  C   UNL     1     -11.758  11.455  69.847  1.00  0.00    -0.346 A  
HETATM   17  O   UNL     1     -12.331  12.315  70.755  1.00  0.00    -0.377 OA 
HETATM   18  C   UNL     1     -11.368  10.213  70.341  1.00  0.00    -0.326 A  
HETATM   19  H   UNL     1     -12.458  12.096  71.670  1.00  0.00     0.000 HD 
HETATM   20  C   UNL     1     -10.764   9.282  69.510  1.00  0.00    -0.222 A  
HETATM   21  O   UNL     1     -11.588   9.891  71.654  1.00  0.00    -0.360 OA 
HETATM   22  H   UNL     1     -11.322   9.043  71.991  1.00  0.00     0.000 HD 
HETATM   23  C   UNL     1     -10.534   9.581  68.178  1.00  0.00    -0.268 A  
HETATM   24  O   UNL     1     -10.388   8.065  70.004  1.00  0.00    -0.208 OA 
HETATM   25  H   UNL     1      -9.974   7.427  69.435  1.00  0.00     0.000 HD 
HETATM   26  C   UNL     1     -10.934  10.825  67.673  1.00  0.00    -0.365 A  
ENDBRANCH  14  15
ENDBRANCH  12  14
ENDBRANCH  11  12
ENDBRANCH   3   8
TORSDOF 5
ENDMDL
MODEL      202
REMARK 921   NORMALIZED FREE ENERGY PREDICTED BY IDOCK:   -3.96 KCAL/MOL
REMARK 922        TOTAL FREE ENERGY PREDICTED BY IDOCK:   -5.57 KCAL/MOL
REMARK 923 INTER-LIGAND FREE ENERGY PREDICTED BY IDOCK:   -5.34 KCAL/MOL
REMARK 924 INTRA-LIGAND FREE ENERGY PREDICTED BY IDOCK:   -0.22 KCAL/MOL
REMARK 927      BINDING AFFINITY PREDICTED BY RF-SCORE:    0.00 PKD
ROOT
HETATM    1  N   UNL     1     -12.668   8.084  72.339  1.00  0.00    -0.551 NA 
HETATM    2  H1  UNL     1     -13.543   8.603  72.257  1.00  0.00     0.000 HD 
HETATM    3  CA  UNL     1     -11.489   8.985  72.190  1.00  0.00    -0.258 C  
HETATM    4  H2  UNL     1     -12.627   7.555  73.210  1.00  0.00     0.000 HD 
ENDROOT
BRANCH   3   5
HETATM    5  C   UNL     1     -10.174   8.206  72.314  1.00  0.00    -0.278 C  
HETATM    6  H   UNL     1      -9.570   6.536  73.161  1.00  0.00     0.000 HD 
HETATM    7  O   UNL     1     -10.385   7.018  73.084  1.00  0.00    -0.224 OA 
ENDBRANCH   3   5
BRANCH   3   8
HETATM    8  C   UNL     1     -11.552   9.737  70.857  1.00  0.00    -0.361 C  
HETATM    9  O   UNL     1     -11.240   9.243  69.774  1.00  0.00    -0.196 OA 
HETATM   10  H   UNL     1     -12.187  11.432  71.916  1.00  0.00     0.000 HD 
HETATM   11  N   UNL     1     -11.940  11.064  70.997  1.00  0.00    -0.289 N  
BRANCH  11  12
HETATM   12  N   UNL     1     -11.991  11.898  69.863  1.00  0.00    -0.329 NA 
HETATM   13  H   UNL     1     -12.742  11.625  69.231  1.00  0.00     0.000 HD 
BRANCH  12  14
HETATM   14  C   UNL     1     -12.095  13.318  70.245  1.00  0.00    -0.335 C  
BRANCH  14  15
HETATM   15  C   UNL     1     -11.463  14.232  69.216  1.00  0.00    -0.330 A  
HETATM   16  C   UNL     1     -10.664  15.336  69.547  1.00  0.00    -0.265 A  
HETATM   17  O   UNL     1     -10.366  15.689  70.842  1.00  0.00    -0.113 OA 
HETATM   18  C   UNL     1     -10.117  16.141  68.551  1.00  0.00    -0.241 A  
HETATM   19  H   UNL     1      -9.825  16.437  71.066  1.00  0.00     0.000 HD 
HETATM   20  C   UNL     1     -10.373  15.880  67.214  1.00  0.00    -0.293 A  
HETATM   21  O   UNL     1      -9.308  17.196  68.881  1.00  0.00    -0.259 OA 
HETATM   22  H   UNL     1      -8.935  17.745  68.201  1.00  0.00     0.000 HD 
HETATM   23  C   UNL     1     -11.184  14.816  66.853  1.00  0.00    -0.347 A  
HETATM   24  O   UNL     1      -9.829  16.673  66.245  1.00  0.00    -0.276 OA 
HETATM   25  H   UNL     1     -10.004  16.494  65.328  1.00  0.00     0.000 HD 
HETATM   26  C   UNL     1     -11.729  13.997  67.851  1.00  0.00    -0.397 A  
ENDBRANCH  14  15
ENDBRANCH  12  14
ENDBRANCH  11  12
ENDBRANCH   3   8
TORSDOF 5
ENDMDL
MODEL      203
REMARK 921   NORMALIZED FREE ENERGY PREDICTED BY IDOCK:   -3.96 KCAL/MOL
REMARK 922        TOTAL FREE ENERGY PREDICTED BY IDOCK:   -5.56 KCAL/MOL
REMARK 923 INTER-LIGAND FREE ENERGY PREDICTED BY IDOCK:   -5.26 KCAL/MOL
REMARK 924 INTRA-LIGAND FREE ENERGY PREDICTED BY IDOCK:   -0.30 KCAL/MOL
REMARK 927      BINDING AFFINITY PREDICTED BY RF-SCORE:    0.00 PKD
ROOT
HETATM    1  N   UNL     1     -10.522   7.865  72.707  1.00  0.00    -0.320 NA 
HETATM    2  H1  UNL     1     -11.356   8.093  73.250  1.00  0.00     0.000 HD 
HETATM    3  CA  UNL     1     -10.121   9.002  71.831  1.00  0.00    -0.253 C  
HETATM    4  H2  UNL     1      -9.754   7.566  73.308  1.00  0.00     0.000 HD 
ENDROOT
BRANCH   3   5
HETATM    5  C   UNL     1      -8.868   8.661  71.014  1.00  0.00    -0.191 C  
HETATM    6  H   UNL     1      -7.686   7.106  70.785  1.00  0.00     0.000 HD 
HETATM    7  O   UNL     1      -8.461   7.317  71.290  1.00  0.00    -0.114 OA 
ENDBRANCH   3   5
BRANCH   3   8
HETATM    8  C   UNL     1     -11.276   9.405  70.910  1.00  0.00    -0.325 C  
HETATM    9  O   UNL     1     -12.453   9.111  71.114  1.00  0.00    -0.305 OA 
HETATM   10  H   UNL     1      -9.869  10.310  69.646  1.00  0.00     0.000 HD 
HETATM   11  N   UNL     1     -10.857  10.090  69.775  1.00  0.00    -0.254 N  
BRANCH  11  12
HETATM   12  N   UNL     1     -11.803  10.478  68.806  1.00  0.00    -0.674 NA 
HETATM   13  H   UNL     1     -12.242  11.366  69.047  1.00  0.00     0.000 HD 
BRANCH  12  14
HETATM   14  C   UNL     1     -11.205  10.518  67.459  1.00  0.00    -0.224 C  
BRANCH  14  15
HETATM   15  C   UNL     1     -10.602  11.870  67.144  1.00  0.00    -0.264 A  
HETATM   16  C   UNL     1     -11.311  12.911  66.528  1.00  0.00    -0.318 A  
HETATM   17  O   UNL     1     -12.632  12.809  66.161  1.00  0.00    -0.428 OA 
HETATM   18  C   UNL     1     -10.693  14.130  66.260  1.00  0.00    -0.293 A  
HETATM   19  H   UNL     1     -13.113  13.514  65.744  1.00  0.00     0.000 HD 
HETATM   20  C   UNL     1      -9.358  14.328  66.575  1.00  0.00    -0.271 A  
HETATM   21  O   UNL     1     -11.403  15.155  65.692  1.00  0.00    -0.332 OA 
HETATM   22  H   UNL     1     -10.982  15.987  65.510  1.00  0.00     0.000 HD 
HETATM   23  C   UNL     1      -8.619  13.310  67.155  1.00  0.00    -0.197 A  
HETATM   24  O   UNL     1      -8.763  15.529  66.312  1.00  0.00    -0.320 OA 
HETATM   25  H   UNL     1      -7.847  15.664  66.528  1.00  0.00     0.000 HD 
HETATM   26  C   UNL     1      -9.238  12.084  67.436  1.00  0.00    -0.180 A  
ENDBRANCH  14  15
ENDBRANCH  12  14
ENDBRANCH  11  12
ENDBRANCH   3   8
TORSDOF 5
ENDMDL
MODEL      204
REMARK 921   NORMALIZED FREE ENERGY PREDICTED BY IDOCK:   -3.95 KCAL/MOL
REMARK 922        TOTAL FREE ENERGY PREDICTED BY IDOCK:   -5.55 KCAL/MOL
REMARK 923 INTER-LIGAND FREE ENERGY PREDICTED BY IDOCK:   -5.22 KCAL/MOL
REMARK 924 INTRA-LIGAND FREE ENERGY PREDICTED BY IDOCK:   -0.33 KCAL/MOL
REMARK 927      BINDING AFFINITY PREDICTED BY RF-SCORE:    0.00 PKD
ROOT
HETATM    1  N   UNL     1      -6.139  18.891  64.598  1.00  0.00    -0.437 NA 
HETATM    2  H1  UNL     1      -5.842  18.041  64.118  1.00  0.00     0.000 HD 
HETATM    3  CA  UNL     1      -5.839  18.820  66.057  1.00  0.00    -0.162 C  
HETATM    4  H2  UNL     1      -5.732  19.724  64.172  1.00  0.00     0.000 HD 
ENDROOT
BRANCH   3   5
HETATM    5  C   UNL     1      -6.285  20.098  66.779  1.00  0.00    -0.181 C  
HETATM    6  H   UNL     1      -6.364  20.742  68.636  1.00  0.00     0.000 HD 
HETATM    7  O   UNL     1      -6.088  19.951  68.189  1.00  0.00    -0.224 OA 
ENDBRANCH   3   5
BRANCH   3   8
HETATM    8  C   UNL     1      -6.496  17.585  66.681  1.00  0.00    -0.217 C  
HETATM    9  O   UNL     1      -5.870  16.663  67.201  1.00  0.00    -0.146 OA 
HETATM   10  H   UNL     1      -8.356  18.362  66.104  1.00  0.00     0.000 HD 
HETATM   11  N   UNL     1      -7.879  17.576  66.546  1.00  0.00    -0.253 N  
BRANCH  11  12
HETATM   12  N   UNL     1      -8.618  16.476  67.024  1.00  0.00    -0.182 NA 
HETATM   13  H   UNL     1      -9.448  16.776  67.534  1.00  0.00     0.000 HD 
BRANCH  12  14
HETATM   14  C   UNL     1      -8.961  15.545  65.933  1.00  0.00    -0.098 C  
BRANCH  14  15
HETATM   15  C   UNL     1      -9.782  14.372  66.424  1.00  0.00    -0.320 A  
HETATM   16  C   UNL     1     -10.688  13.668  65.617  1.00  0.00    -0.283 A  
HETATM   17  O   UNL     1     -10.908  13.968  64.293  1.00  0.00    -0.594 OA 
HETATM   18  C   UNL     1     -11.419  12.601  66.134  1.00  0.00    -0.365 A  
HETATM   19  H   UNL     1     -11.522  13.492  63.747  1.00  0.00     0.000 HD 
HETATM   20  C   UNL     1     -11.282  12.231  67.462  1.00  0.00    -0.297 A  
HETATM   21  O   UNL     1     -12.274  11.896  65.329  1.00  0.00    -0.357 OA 
HETATM   22  H   UNL     1     -12.772  11.167  65.681  1.00  0.00     0.000 HD 
HETATM   23  C   UNL     1     -10.420  12.925  68.295  1.00  0.00    -0.250 A  
HETATM   24  O   UNL     1     -12.000  11.180  67.957  1.00  0.00    -0.625 OA 
HETATM   25  H   UNL     1     -11.907  10.926  68.868  1.00  0.00     0.000 HD 
HETATM   26  C   UNL     1      -9.675  13.993  67.778  1.00  0.00    -0.228 A  
ENDBRANCH  14  15
ENDBRANCH  12  14
ENDBRANCH  11  12
ENDBRANCH   3   8
TORSDOF 5
ENDMDL
MODEL      205
REMARK 921   NORMALIZED FREE ENERGY PREDICTED BY IDOCK:   -3.95 KCAL/MOL
REMARK 922        TOTAL FREE ENERGY PREDICTED BY IDOCK:   -5.55 KCAL/MOL
REMARK 923 INTER-LIGAND FREE ENERGY PREDICTED BY IDOCK:   -5.15 KCAL/MOL
REMARK 924 INTRA-LIGAND FREE ENERGY PREDICTED BY IDOCK:   -0.40 KCAL/MOL
REMARK 927      BINDING AFFINITY PREDICTED BY RF-SCORE:    0.00 PKD
ROOT
HETATM    1  N   UNL     1     -10.524   7.857  72.706  1.00  0.00    -0.320 NA 
HETATM    2  H1  UNL     1     -11.340   8.058  73.284  1.00  0.00     0.000 HD 
HETATM    3  CA  UNL     1     -10.166   9.026  71.853  1.00  0.00    -0.272 C  
HETATM    4  H2  UNL     1      -9.732   7.547  73.269  1.00  0.00     0.000 HD 
ENDROOT
BRANCH   3   5
HETATM    5  C   UNL     1      -8.939   8.724  70.982  1.00  0.00    -0.217 C  
HETATM    6  H   UNL     1      -7.750   7.190  70.662  1.00  0.00     0.000 HD 
HETATM    7  O   UNL     1      -8.509   7.376  71.201  1.00  0.00    -0.116 OA 
ENDBRANCH   3   5
BRANCH   3   8
HETATM    8  C   UNL     1     -11.357   9.444  70.986  1.00  0.00    -0.337 C  
HETATM    9  O   UNL     1     -12.518   9.097  71.199  1.00  0.00    -0.305 OA 
HETATM   10  H   UNL     1     -10.013  10.475  69.749  1.00  0.00     0.000 HD 
HETATM   11  N   UNL     1     -10.989  10.213  69.888  1.00  0.00    -0.273 N  
BRANCH  11  12
HETATM   12  N   UNL     1     -11.972  10.627  68.967  1.00  0.00    -0.643 NA 
HETATM   13  H   UNL     1     -12.448  11.472  69.283  1.00  0.00     0.000 HD 
BRANCH  12  14
HETATM   14  C   UNL     1     -11.405  10.800  67.617  1.00  0.00    -0.252 C  
BRANCH  14  15
HETATM   15  C   UNL     1     -10.838  12.188  67.412  1.00  0.00    -0.286 A  
HETATM   16  C   UNL     1      -9.464  12.464  67.355  1.00  0.00    -0.186 A  
HETATM   17  O   UNL     1      -8.495  11.494  67.466  1.00  0.00    -0.135 OA 
HETATM   18  C   UNL     1      -9.008  13.767  67.170  1.00  0.00    -0.235 A  
HETATM   19  H   UNL     1      -7.565  11.680  67.427  1.00  0.00     0.000 HD 
HETATM   20  C   UNL     1      -9.904  14.818  67.064  1.00  0.00    -0.239 A  
HETATM   21  O   UNL     1      -7.665  14.022  67.078  1.00  0.00    -0.356 OA 
HETATM   22  H   UNL     1      -7.354  14.911  66.952  1.00  0.00     0.000 HD 
HETATM   23  C   UNL     1     -11.267  14.586  67.149  1.00  0.00    -0.341 A  
HETATM   24  O   UNL     1      -9.446  16.092  66.879  1.00  0.00    -0.215 OA 
HETATM   25  H   UNL     1     -10.061  16.813  66.807  1.00  0.00     0.000 HD 
HETATM   26  C   UNL     1     -11.731  13.276  67.325  1.00  0.00    -0.424 A  
ENDBRANCH  14  15
ENDBRANCH  12  14
ENDBRANCH  11  12
ENDBRANCH   3   8
TORSDOF 5
ENDMDL
MODEL      206
REMARK 921   NORMALIZED FREE ENERGY PREDICTED BY IDOCK:   -3.94 KCAL/MOL
REMARK 922        TOTAL FREE ENERGY PREDICTED BY IDOCK:   -5.54 KCAL/MOL
REMARK 923 INTER-LIGAND FREE ENERGY PREDICTED BY IDOCK:   -5.08 KCAL/MOL
REMARK 924 INTRA-LIGAND FREE ENERGY PREDICTED BY IDOCK:   -0.46 KCAL/MOL
REMARK 927      BINDING AFFINITY PREDICTED BY RF-SCORE:    0.00 PKD
ROOT
HETATM    1  N   UNL     1      -5.993  11.949  69.728  1.00  0.00    -0.117 NA 
HETATM    2  H1  UNL     1      -6.387  11.498  70.554  1.00  0.00     0.000 HD 
HETATM    3  CA  UNL     1      -7.056  12.594  68.906  1.00  0.00    -0.069 C  
HETATM    4  H2  UNL     1      -5.258  12.611  69.978  1.00  0.00     0.000 HD 
ENDROOT
BRANCH   3   5
HETATM    5  C   UNL     1      -6.464  13.273  67.664  1.00  0.00    -0.162 C  
HETATM    6  H   UNL     1      -5.106  12.846  66.307  1.00  0.00     0.000 HD 
HETATM    7  O   UNL     1      -5.472  12.426  67.075  1.00  0.00    -0.301 OA 
ENDBRANCH   3   5
BRANCH   3   8
HETATM    8  C   UNL     1      -8.124  11.572  68.509  1.00  0.00    -0.146 C  
HETATM    9  O   UNL     1      -8.263  10.477  69.052  1.00  0.00    -0.127 OA 
HETATM   10  H   UNL     1      -8.738  12.893  67.001  1.00  0.00     0.000 HD 
HETATM   11  N   UNL     1      -8.890  11.977  67.422  1.00  0.00    -0.171 N  
BRANCH  11  12
HETATM   12  N   UNL     1      -9.879  11.115  66.907  1.00  0.00    -0.191 NA 
HETATM   13  H   UNL     1      -9.925  10.243  67.432  1.00  0.00     0.000 HD 
BRANCH  12  14
HETATM   14  C   UNL     1     -11.193  11.781  66.847  1.00  0.00    -0.327 C  
BRANCH  14  15
HETATM   15  C   UNL     1     -11.609  12.341  68.190  1.00  0.00    -0.396 A  
HETATM   16  C   UNL     1     -11.835  13.705  68.425  1.00  0.00    -0.372 A  
HETATM   17  O   UNL     1     -11.714  14.667  67.450  1.00  0.00    -0.379 OA 
HETATM   18  C   UNL     1     -12.210  14.155  69.688  1.00  0.00    -0.326 A  
HETATM   19  H   UNL     1     -11.868  15.591  67.609  1.00  0.00     0.000 HD 
HETATM   20  C   UNL     1     -12.341  13.266  70.743  1.00  0.00    -0.344 A  
HETATM   21  O   UNL     1     -12.465  15.485  69.900  1.00  0.00    -0.532 OA 
HETATM   22  H   UNL     1     -12.721  15.792  70.762  1.00  0.00     0.000 HD 
HETATM   23  C   UNL     1     -12.094  11.917  70.554  1.00  0.00    -0.422 A  
HETATM   24  O   UNL     1     -12.713  13.718  71.977  1.00  0.00    -0.295 OA 
HETATM   25  H   UNL     1     -12.803  13.108  72.701  1.00  0.00     0.000 HD 
HETATM   26  C   UNL     1     -11.726  11.456  69.282  1.00  0.00    -0.404 A  
ENDBRANCH  14  15
ENDBRANCH  12  14
ENDBRANCH  11  12
ENDBRANCH   3   8
TORSDOF 5
ENDMDL
MODEL      207
REMARK 921   NORMALIZED FREE ENERGY PREDICTED BY IDOCK:   -3.94 KCAL/MOL
REMARK 922        TOTAL FREE ENERGY PREDICTED BY IDOCK:   -5.53 KCAL/MOL
REMARK 923 INTER-LIGAND FREE ENERGY PREDICTED BY IDOCK:   -5.11 KCAL/MOL
REMARK 924 INTRA-LIGAND FREE ENERGY PREDICTED BY IDOCK:   -0.43 KCAL/MOL
REMARK 927      BINDING AFFINITY PREDICTED BY RF-SCORE:    0.00 PKD
ROOT
HETATM    1  N   UNL     1     -11.830  13.149  63.502  1.00  0.00    -0.688 NA 
HETATM    2  H1  UNL     1     -11.215  12.335  63.510  1.00  0.00     0.000 HD 
HETATM    3  CA  UNL     1     -11.320  14.220  64.404  1.00  0.00    -0.273 C  
HETATM    4  H2  UNL     1     -11.980  13.496  62.555  1.00  0.00     0.000 HD 
ENDROOT
BRANCH   3   5
HETATM    5  C   UNL     1     -12.244  15.444  64.393  1.00  0.00    -0.151 C  
HETATM    6  H   UNL     1     -12.124  17.327  63.836  1.00  0.00     0.000 HD 
HETATM    7  O   UNL     1     -11.552  16.570  63.843  1.00  0.00    -1.175 OA 
ENDBRANCH   3   5
BRANCH   3   8
HETATM    8  C   UNL     1     -11.144  13.686  65.828  1.00  0.00    -0.287 C  
HETATM    9  O   UNL     1     -12.039  13.668  66.672  1.00  0.00    -0.404 OA 
HETATM   10  H   UNL     1      -9.132  13.311  65.370  1.00  0.00     0.000 HD 
HETATM   11  N   UNL     1      -9.844  13.276  66.100  1.00  0.00    -0.287 N  
BRANCH  11  12
HETATM   12  N   UNL     1      -9.515  12.811  67.389  1.00  0.00    -0.185 NA 
HETATM   13  H   UNL     1     -10.079  13.267  68.106  1.00  0.00     0.000 HD 
BRANCH  12  14
HETATM   14  C   UNL     1      -9.618  11.342  67.473  1.00  0.00    -0.167 C  
BRANCH  14  15
HETATM   15  C   UNL     1      -8.722  10.651  66.467  1.00  0.00    -0.151 A  
HETATM   16  C   UNL     1      -9.197  10.027  65.306  1.00  0.00    -0.218 A  
HETATM   17  O   UNL     1     -10.527   9.993  64.958  1.00  0.00    -0.153 OA 
HETATM   18  C   UNL     1      -8.318   9.402  64.424  1.00  0.00    -0.167 A  
HETATM   19  H   UNL     1     -10.849   9.570  64.171  1.00  0.00     0.000 HD 
HETATM   20  C   UNL     1      -6.959   9.365  64.693  1.00  0.00    -0.096 A  
HETATM   21  O   UNL     1      -8.786   8.826  63.273  1.00  0.00    -0.431 OA 
HETATM   22  H   UNL     1      -8.186   8.400  62.671  1.00  0.00     0.000 HD 
HETATM   23  C   UNL     1      -6.460   9.944  65.848  1.00  0.00    -0.087 A  
HETATM   24  O   UNL     1      -6.105   8.753  63.820  1.00  0.00    -0.072 OA 
HETATM   25  H   UNL     1      -5.173   8.728  64.004  1.00  0.00     0.000 HD 
HETATM   26  C   UNL     1      -7.338  10.582  66.733  1.00  0.00    -0.114 A  
ENDBRANCH  14  15
ENDBRANCH  12  14
ENDBRANCH  11  12
ENDBRANCH   3   8
TORSDOF 5
ENDMDL
MODEL      208
REMARK 921   NORMALIZED FREE ENERGY PREDICTED BY IDOCK:   -3.92 KCAL/MOL
REMARK 922        TOTAL FREE ENERGY PREDICTED BY IDOCK:   -5.52 KCAL/MOL
REMARK 923 INTER-LIGAND FREE ENERGY PREDICTED BY IDOCK:   -5.21 KCAL/MOL
REMARK 924 INTRA-LIGAND FREE ENERGY PREDICTED BY IDOCK:   -0.31 KCAL/MOL
REMARK 927      BINDING AFFINITY PREDICTED BY RF-SCORE:    0.00 PKD
ROOT
HETATM    1  N   UNL     1      -8.985  12.013  65.253  1.00  0.00    -0.316 NA 
HETATM    2  H1  UNL     1      -8.485  11.366  65.863  1.00  0.00     0.000 HD 
HETATM    3  CA  UNL     1     -10.022  12.774  66.006  1.00  0.00    -0.271 C  
HETATM    4  H2  UNL     1      -8.343  12.638  64.763  1.00  0.00     0.000 HD 
ENDROOT
BRANCH   3   5
HETATM    5  C   UNL     1     -10.774  13.747  65.088  1.00  0.00    -0.358 C  
HETATM    6  H   UNL     1     -11.153  13.901  63.164  1.00  0.00     0.000 HD 
HETATM    7  O   UNL     1     -10.688  13.299  63.732  1.00  0.00    -0.222 OA 
ENDBRANCH   3   5
BRANCH   3   8
HETATM    8  C   UNL     1     -10.996  11.815  66.696  1.00  0.00    -0.294 C  
HETATM    9  O   UNL     1     -12.221  11.906  66.620  1.00  0.00    -0.493 OA 
HETATM   10  H   UNL     1      -9.340  10.822  67.513  1.00  0.00     0.000 HD 
HETATM   11  N   UNL     1     -10.359  10.859  67.477  1.00  0.00    -0.193 N  
BRANCH  11  12
HETATM   12  N   UNL     1     -11.127   9.939  68.219  1.00  0.00    -0.478 NA 
HETATM   13  H   UNL     1     -10.806   8.982  68.076  1.00  0.00     0.000 HD 
BRANCH  12  14
HETATM   14  C   UNL     1     -11.154  10.292  69.650  1.00  0.00    -0.274 C  
BRANCH  14  15
HETATM   15  C   UNL     1     -10.556   9.203  70.515  1.00  0.00    -0.287 A  
HETATM   16  C   UNL     1     -11.233   8.610  71.591  1.00  0.00    -0.309 A  
HETATM   17  O   UNL     1     -12.514   8.951  71.956  1.00  0.00    -0.342 OA 
HETATM   18  C   UNL     1     -10.623   7.616  72.352  1.00  0.00    -0.260 A  
HETATM   19  H   UNL     1     -12.972   8.549  72.684  1.00  0.00     0.000 HD 
HETATM   20  C   UNL     1      -9.326   7.213  72.076  1.00  0.00    -0.137 A  
HETATM   21  O   UNL     1     -11.304   7.015  73.378  1.00  0.00    -0.529 OA 
HETATM   22  H   UNL     1     -10.887   6.336  73.897  1.00  0.00     0.000 HD 
HETATM   23  C   UNL     1      -8.617   7.801  71.041  1.00  0.00    -0.128 A  
HETATM   24  O   UNL     1      -8.738   6.234  72.826  1.00  0.00    -0.127 OA 
HETATM   25  H   UNL     1      -7.849   5.958  72.636  1.00  0.00     0.000 HD 
HETATM   26  C   UNL     1      -9.230   8.795  70.265  1.00  0.00    -0.191 A  
ENDBRANCH  14  15
ENDBRANCH  12  14
ENDBRANCH  11  12
ENDBRANCH   3   8
TORSDOF 5
ENDMDL
MODEL      209
REMARK 921   NORMALIZED FREE ENERGY PREDICTED BY IDOCK:   -3.91 KCAL/MOL
REMARK 922        TOTAL FREE ENERGY PREDICTED BY IDOCK:   -5.51 KCAL/MOL
REMARK 923 INTER-LIGAND FREE ENERGY PREDICTED BY IDOCK:   -5.13 KCAL/MOL
REMARK 924 INTRA-LIGAND FREE ENERGY PREDICTED BY IDOCK:   -0.38 KCAL/MOL
REMARK 927      BINDING AFFINITY PREDICTED BY RF-SCORE:    0.00 PKD
ROOT
HETATM    1  N   UNL     1     -10.756   4.967  74.047  1.00  0.00    -0.296 NA 
HETATM    2  H1  UNL     1     -10.982   5.861  74.484  1.00  0.00     0.000 HD 
HETATM    3  CA  UNL     1     -10.000   5.162  72.777  1.00  0.00    -0.161 C  
HETATM    4  H2  UNL     1     -10.256   4.351  74.690  1.00  0.00     0.000 HD 
ENDROOT
BRANCH   3   5
HETATM    5  C   UNL     1      -9.660   3.818  72.120  1.00  0.00    -0.148 C  
HETATM    6  H   UNL     1      -9.329   1.973  72.716  1.00  0.00     0.000 HD 
HETATM    7  O   UNL     1      -9.540   2.805  73.122  1.00  0.00    -0.091 OA 
ENDBRANCH   3   5
BRANCH   3   8
HETATM    8  C   UNL     1     -10.789   6.054  71.814  1.00  0.00    -0.260 C  
HETATM    9  O   UNL     1     -10.484   6.233  70.636  1.00  0.00    -0.205 OA 
HETATM   10  H   UNL     1     -12.075   6.523  73.403  1.00  0.00     0.000 HD 
HETATM   11  N   UNL     1     -11.860   6.699  72.421  1.00  0.00    -0.236 N  
BRANCH  11  12
HETATM   12  N   UNL     1     -12.647   7.598  71.673  1.00  0.00    -0.329 NA 
HETATM   13  H   UNL     1     -13.553   7.194  71.437  1.00  0.00     0.000 HD 
BRANCH  12  14
HETATM   14  C   UNL     1     -12.796   8.889  72.369  1.00  0.00    -0.380 C  
BRANCH  14  15
HETATM   15  C   UNL     1     -12.390  10.056  71.494  1.00  0.00    -0.513 A  
HETATM   16  C   UNL     1     -12.928  11.345  71.623  1.00  0.00    -0.418 A  
HETATM   17  O   UNL     1     -13.868  11.678  72.570  1.00  0.00    -0.343 OA 
HETATM   18  C   UNL     1     -12.515  12.374  70.780  1.00  0.00    -0.267 A  
HETATM   19  H   UNL     1     -14.232  12.551  72.658  1.00  0.00     0.000 HD 
HETATM   20  C   UNL     1     -11.585  12.137  69.781  1.00  0.00    -0.262 A  
HETATM   21  O   UNL     1     -13.018  13.639  70.937  1.00  0.00    -0.272 OA 
HETATM   22  H   UNL     1     -12.736  14.341  70.362  1.00  0.00     0.000 HD 
HETATM   23  C   UNL     1     -11.058  10.868  69.605  1.00  0.00    -0.328 A  
HETATM   24  O   UNL     1     -11.185  13.154  68.963  1.00  0.00    -0.248 OA 
HETATM   25  H   UNL     1     -10.546  12.991  68.278  1.00  0.00     0.000 HD 
HETATM   26  C   UNL     1     -11.462   9.831  70.457  1.00  0.00    -0.370 A  
ENDBRANCH  14  15
ENDBRANCH  12  14
ENDBRANCH  11  12
ENDBRANCH   3   8
TORSDOF 5
ENDMDL
MODEL      210
REMARK 921   NORMALIZED FREE ENERGY PREDICTED BY IDOCK:   -3.90 KCAL/MOL
REMARK 922        TOTAL FREE ENERGY PREDICTED BY IDOCK:   -5.49 KCAL/MOL
REMARK 923 INTER-LIGAND FREE ENERGY PREDICTED BY IDOCK:   -5.07 KCAL/MOL
REMARK 924 INTRA-LIGAND FREE ENERGY PREDICTED BY IDOCK:   -0.42 KCAL/MOL
REMARK 927      BINDING AFFINITY PREDICTED BY RF-SCORE:    0.00 PKD
ROOT
HETATM    1  N   UNL     1     -12.331  13.252  62.867  1.00  0.00    -0.823 NA 
HETATM    2  H1  UNL     1     -11.977  12.308  62.711  1.00  0.00     0.000 HD 
HETATM    3  CA  UNL     1     -11.656  13.898  64.028  1.00  0.00    -0.226 C  
HETATM    4  H2  UNL     1     -12.257  13.824  62.024  1.00  0.00     0.000 HD 
ENDROOT
BRANCH   3   5
HETATM    5  C   UNL     1     -12.188  15.317  64.262  1.00  0.00    -0.189 C  
HETATM    6  H   UNL     1     -11.528  17.155  64.020  1.00  0.00     0.000 HD 
HETATM    7  O   UNL     1     -11.199  16.276  63.875  1.00  0.00    -0.676 OA 
ENDBRANCH   3   5
BRANCH   3   8
HETATM    8  C   UNL     1     -11.817  13.042  65.288  1.00  0.00    -0.376 C  
HETATM    9  O   UNL     1     -12.416  11.968  65.317  1.00  0.00    -0.427 OA 
HETATM   10  H   UNL     1     -10.782  14.525  66.350  1.00  0.00     0.000 HD 
HETATM   11  N   UNL     1     -11.268  13.631  66.421  1.00  0.00    -0.304 N  
BRANCH  11  12
HETATM   12  N   UNL     1     -11.388  12.986  67.668  1.00  0.00    -0.283 NA 
HETATM   13  H   UNL     1     -11.855  12.085  67.580  1.00  0.00     0.000 HD 
BRANCH  12  14
HETATM   14  C   UNL     1     -10.077  12.853  68.331  1.00  0.00    -0.227 C  
BRANCH  14  15
HETATM   15  C   UNL     1      -9.502  11.461  68.177  1.00  0.00    -0.181 A  
HETATM   16  C   UNL     1      -9.626  10.459  69.151  1.00  0.00    -0.213 A  
HETATM   17  O   UNL     1     -10.296  10.641  70.338  1.00  0.00    -0.354 OA 
HETATM   18  C   UNL     1      -9.066   9.200  68.950  1.00  0.00    -0.139 A  
HETATM   19  H   UNL     1     -10.380   9.963  70.997  1.00  0.00     0.000 HD 
HETATM   20  C   UNL     1      -8.354   8.922  67.793  1.00  0.00    -0.110 A  
HETATM   21  O   UNL     1      -9.223   8.216  69.890  1.00  0.00    -0.151 OA 
HETATM   22  H   UNL     1      -8.841   7.357  69.752  1.00  0.00     0.000 HD 
HETATM   23  C   UNL     1      -8.185   9.898  66.826  1.00  0.00    -0.124 A  
HETATM   24  O   UNL     1      -7.812   7.683  67.604  1.00  0.00    -0.118 OA 
HETATM   25  H   UNL     1      -7.325   7.492  66.811  1.00  0.00     0.000 HD 
HETATM   26  C   UNL     1      -8.755  11.164  67.019  1.00  0.00    -0.148 A  
ENDBRANCH  14  15
ENDBRANCH  12  14
ENDBRANCH  11  12
ENDBRANCH   3   8
TORSDOF 5
ENDMDL
MODEL      211
REMARK 921   NORMALIZED FREE ENERGY PREDICTED BY IDOCK:   -3.88 KCAL/MOL
REMARK 922        TOTAL FREE ENERGY PREDICTED BY IDOCK:   -5.47 KCAL/MOL
REMARK 923 INTER-LIGAND FREE ENERGY PREDICTED BY IDOCK:   -5.02 KCAL/MOL
REMARK 924 INTRA-LIGAND FREE ENERGY PREDICTED BY IDOCK:   -0.45 KCAL/MOL
REMARK 927      BINDING AFFINITY PREDICTED BY RF-SCORE:    0.00 PKD
ROOT
HETATM    1  N   UNL     1     -11.374   6.077  66.525  1.00  0.00    -0.694 NA 
HETATM    2  H1  UNL     1     -11.990   6.499  65.830  1.00  0.00     0.000 HD 
HETATM    3  CA  UNL     1     -10.957   7.072  67.553  1.00  0.00    -0.229 C  
HETATM    4  H2  UNL     1     -11.800   5.253  66.951  1.00  0.00     0.000 HD 
ENDROOT
BRANCH   3   5
HETATM    5  C   UNL     1     -10.031   6.437  68.598  1.00  0.00    -0.146 C  
HETATM    6  H   UNL     1      -8.807   4.900  68.685  1.00  0.00     0.000 HD 
HETATM    7  O   UNL     1      -9.380   5.293  68.038  1.00  0.00    -0.111 OA 
ENDBRANCH   3   5
BRANCH   3   8
HETATM    8  C   UNL     1     -10.284   8.278  66.892  1.00  0.00    -0.318 C  
HETATM    9  O   UNL     1      -9.272   8.205  66.196  1.00  0.00    -0.183 OA 
HETATM   10  H   UNL     1     -11.733   9.499  67.792  1.00  0.00     0.000 HD 
HETATM   11  N   UNL     1     -10.896   9.485  67.208  1.00  0.00    -0.202 N  
BRANCH  11  12
HETATM   12  N   UNL     1     -10.356  10.690  66.717  1.00  0.00    -0.236 NA 
HETATM   13  H   UNL     1      -9.799  10.535  65.877  1.00  0.00     0.000 HD 
BRANCH  12  14
HETATM   14  C   UNL     1     -11.408  11.698  66.490  1.00  0.00    -0.263 C  
BRANCH  14  15
HETATM   15  C   UNL     1     -10.987  13.075  66.958  1.00  0.00    -0.289 A  
HETATM   16  C   UNL     1      -9.684  13.575  66.821  1.00  0.00    -0.271 A  
HETATM   17  O   UNL     1      -8.662  12.866  66.234  1.00  0.00    -0.420 OA 
HETATM   18  C   UNL     1      -9.361  14.850  67.279  1.00  0.00    -0.204 A  
HETATM   19  H   UNL     1      -7.780  13.205  66.141  1.00  0.00     0.000 HD 
HETATM   20  C   UNL     1     -10.316  15.638  67.902  1.00  0.00    -0.259 A  
HETATM   21  O   UNL     1      -8.095  15.345  67.108  1.00  0.00    -0.182 OA 
HETATM   22  H   UNL     1      -7.875  16.215  67.421  1.00  0.00     0.000 HD 
HETATM   23  C   UNL     1     -11.604  15.162  68.083  1.00  0.00    -0.358 A  
HETATM   24  O   UNL     1      -9.989  16.888  68.345  1.00  0.00    -0.249 OA 
HETATM   25  H   UNL     1     -10.644  17.428  68.772  1.00  0.00     0.000 HD 
HETATM   26  C   UNL     1     -11.937  13.884  67.615  1.00  0.00    -0.403 A  
ENDBRANCH  14  15
ENDBRANCH  12  14
ENDBRANCH  11  12
ENDBRANCH   3   8
TORSDOF 5
ENDMDL
MODEL      212
REMARK 921   NORMALIZED FREE ENERGY PREDICTED BY IDOCK:   -3.87 KCAL/MOL
REMARK 922        TOTAL FREE ENERGY PREDICTED BY IDOCK:   -5.44 KCAL/MOL
REMARK 923 INTER-LIGAND FREE ENERGY PREDICTED BY IDOCK:   -5.15 KCAL/MOL
REMARK 924 INTRA-LIGAND FREE ENERGY PREDICTED BY IDOCK:   -0.29 KCAL/MOL
REMARK 927      BINDING AFFINITY PREDICTED BY RF-SCORE:    0.00 PKD
ROOT
HETATM    1  N   UNL     1      -8.715   6.810  68.251  1.00  0.00    -0.123 NA 
HETATM    2  H1  UNL     1      -8.398   7.739  68.530  1.00  0.00     0.000 HD 
HETATM    3  CA  UNL     1      -8.094   6.392  66.962  1.00  0.00    -0.112 C  
HETATM    4  H2  UNL     1      -8.553   6.122  68.986  1.00  0.00     0.000 HD 
ENDROOT
BRANCH   3   5
HETATM    5  C   UNL     1      -8.570   4.996  66.541  1.00  0.00    -0.110 C  
HETATM    6  H   UNL     1      -9.646   3.550  67.329  1.00  0.00     0.000 HD 
HETATM    7  O   UNL     1      -9.351   4.414  67.590  1.00  0.00    -0.134 OA 
ENDBRANCH   3   5
BRANCH   3   8
HETATM    8  C   UNL     1      -8.386   7.420  65.865  1.00  0.00    -0.140 C  
HETATM    9  O   UNL     1      -7.824   7.437  64.771  1.00  0.00    -0.114 OA 
HETATM   10  H   UNL     1      -9.753   8.329  67.171  1.00  0.00     0.000 HD 
HETATM   11  N   UNL     1      -9.314   8.380  66.251  1.00  0.00    -0.210 N  
BRANCH  11  12
HETATM   12  N   UNL     1      -9.644   9.425  65.366  1.00  0.00    -0.404 NA 
HETATM   13  H   UNL     1     -10.627   9.391  65.096  1.00  0.00     0.000 HD 
BRANCH  12  14
HETATM   14  C   UNL     1      -9.284  10.740  65.928  1.00  0.00    -0.190 C  
BRANCH  14  15
HETATM   15  C   UNL     1     -10.438  11.718  65.872  1.00  0.00    -0.296 A  
HETATM   16  C   UNL     1     -10.796  12.556  66.938  1.00  0.00    -0.248 A  
HETATM   17  O   UNL     1     -10.121  12.581  68.136  1.00  0.00    -0.213 OA 
HETATM   18  C   UNL     1     -11.874  13.430  66.823  1.00  0.00    -0.403 A  
HETATM   19  H   UNL     1     -10.363  13.150  68.857  1.00  0.00     0.000 HD 
HETATM   20  C   UNL     1     -12.630  13.468  65.662  1.00  0.00    -0.459 A  
HETATM   21  O   UNL     1     -12.194  14.272  67.855  1.00  0.00    -0.573 OA 
HETATM   22  H   UNL     1     -12.930  14.868  67.777  1.00  0.00     0.000 HD 
HETATM   23  C   UNL     1     -12.324  12.630  64.602  1.00  0.00    -0.546 A  
HETATM   24  O   UNL     1     -13.683  14.331  65.558  1.00  0.00    -0.543 OA 
HETATM   25  H   UNL     1     -14.201  14.357  64.762  1.00  0.00     0.000 HD 
HETATM   26  C   UNL     1     -11.234  11.756  64.708  1.00  0.00    -0.333 A  
ENDBRANCH  14  15
ENDBRANCH  12  14
ENDBRANCH  11  12
ENDBRANCH   3   8
TORSDOF 5
ENDMDL
MODEL      213
REMARK 921   NORMALIZED FREE ENERGY PREDICTED BY IDOCK:   -3.86 KCAL/MOL
REMARK 922        TOTAL FREE ENERGY PREDICTED BY IDOCK:   -5.43 KCAL/MOL
REMARK 923 INTER-LIGAND FREE ENERGY PREDICTED BY IDOCK:   -5.13 KCAL/MOL
REMARK 924 INTRA-LIGAND FREE ENERGY PREDICTED BY IDOCK:   -0.30 KCAL/MOL
REMARK 927      BINDING AFFINITY PREDICTED BY RF-SCORE:    0.00 PKD
ROOT
HETATM    1  N   UNL     1      -9.343   4.689  70.796  1.00  0.00    -0.140 NA 
HETATM    2  H1  UNL     1      -9.217   4.435  69.816  1.00  0.00     0.000 HD 
HETATM    3  CA  UNL     1     -10.767   5.017  71.090  1.00  0.00    -0.002 C  
HETATM    4  H2  UNL     1      -8.989   3.963  71.420  1.00  0.00     0.000 HD 
ENDROOT
BRANCH   3   5
HETATM    5  C   UNL     1     -10.958   5.399  72.563  1.00  0.00    -0.256 C  
HETATM    6  H   UNL     1     -10.290   4.773  74.305  1.00  0.00     0.000 HD 
HETATM    7  O   UNL     1     -10.172   4.537  73.393  1.00  0.00    -0.151 OA 
ENDBRANCH   3   5
BRANCH   3   8
HETATM    8  C   UNL     1     -11.262   6.136  70.170  1.00  0.00    -0.382 C  
HETATM    9  O   UNL     1     -11.996   7.053  70.536  1.00  0.00    -0.325 OA 
HETATM   10  H   UNL     1     -10.243   5.204  68.592  1.00  0.00     0.000 HD 
HETATM   11  N   UNL     1     -10.849   5.982  68.852  1.00  0.00    -0.317 N  
BRANCH  11  12
HETATM   12  N   UNL     1     -11.272   6.906  67.876  1.00  0.00    -0.558 NA 
HETATM   13  H   UNL     1     -11.694   7.732  68.301  1.00  0.00     0.000 HD 
BRANCH  12  14
HETATM   14  C   UNL     1     -10.171   7.270  66.967  1.00  0.00    -0.278 C  
BRANCH  14  15
HETATM   15  C   UNL     1     -10.153   8.752  66.659  1.00  0.00    -0.358 A  
HETATM   16  C   UNL     1      -9.559   9.298  65.512  1.00  0.00    -0.220 A  
HETATM   17  O   UNL     1      -8.946   8.536  64.545  1.00  0.00    -0.417 OA 
HETATM   18  C   UNL     1      -9.572  10.673  65.292  1.00  0.00    -0.241 A  
HETATM   19  H   UNL     1      -8.545   8.906  63.768  1.00  0.00     0.000 HD 
HETATM   20  C   UNL     1     -10.150  11.530  66.216  1.00  0.00    -0.226 A  
HETATM   21  O   UNL     1      -9.023  11.196  64.150  1.00  0.00    -0.359 OA 
HETATM   22  H   UNL     1      -9.032  12.134  64.000  1.00  0.00     0.000 HD 
HETATM   23  C   UNL     1     -10.716  11.026  67.375  1.00  0.00    -0.303 A  
HETATM   24  O   UNL     1     -10.160  12.876  65.988  1.00  0.00    -0.275 OA 
HETATM   25  H   UNL     1     -10.557  13.463  66.622  1.00  0.00     0.000 HD 
HETATM   26  C   UNL     1     -10.715   9.642  67.597  1.00  0.00    -0.324 A  
ENDBRANCH  14  15
ENDBRANCH  12  14
ENDBRANCH  11  12
ENDBRANCH   3   8
TORSDOF 5
ENDMDL
MODEL      214
REMARK 921   NORMALIZED FREE ENERGY PREDICTED BY IDOCK:   -3.84 KCAL/MOL
REMARK 922        TOTAL FREE ENERGY PREDICTED BY IDOCK:   -5.41 KCAL/MOL
REMARK 923 INTER-LIGAND FREE ENERGY PREDICTED BY IDOCK:   -4.75 KCAL/MOL
REMARK 924 INTRA-LIGAND FREE ENERGY PREDICTED BY IDOCK:   -0.66 KCAL/MOL
REMARK 927      BINDING AFFINITY PREDICTED BY RF-SCORE:    0.00 PKD
ROOT
HETATM    1  N   UNL     1      -9.065   7.107  65.434  1.00  0.00    -0.359 NA 
HETATM    2  H1  UNL     1      -8.499   6.259  65.470  1.00  0.00     0.000 HD 
HETATM    3  CA  UNL     1      -8.506   8.168  66.320  1.00  0.00    -0.131 C  
HETATM    4  H2  UNL     1      -9.178   7.441  64.476  1.00  0.00     0.000 HD 
ENDROOT
BRANCH   3   5
HETATM    5  C   UNL     1      -9.356   9.444  66.265  1.00  0.00    -0.198 C  
HETATM    6  H   UNL     1     -11.126  10.017  66.904  1.00  0.00     0.000 HD 
HETATM    7  O   UNL     1     -10.600   9.227  66.939  1.00  0.00    -0.236 OA 
ENDBRANCH   3   5
BRANCH   3   8
HETATM    8  C   UNL     1      -8.386   7.657  67.759  1.00  0.00    -0.118 C  
HETATM    9  O   UNL     1      -8.974   6.666  68.188  1.00  0.00    -0.123 OA 
HETATM   10  H   UNL     1      -7.121   9.281  68.161  1.00  0.00     0.000 HD 
HETATM   11  N   UNL     1      -7.587   8.466  68.559  1.00  0.00    -0.094 N  
BRANCH  11  12
HETATM   12  N   UNL     1      -7.426   8.153  69.924  1.00  0.00    -0.068 NA 
HETATM   13  H   UNL     1      -6.467   7.877  70.133  1.00  0.00     0.000 HD 
BRANCH  12  14
HETATM   14  C   UNL     1      -7.869   9.265  70.785  1.00  0.00    -0.145 C  
BRANCH  14  15
HETATM   15  C   UNL     1      -9.287   9.072  71.278  1.00  0.00    -0.324 A  
HETATM   16  C   UNL     1      -9.645   8.145  72.267  1.00  0.00    -0.251 A  
HETATM   17  O   UNL     1      -8.736   7.328  72.898  1.00  0.00    -0.118 OA 
HETATM   18  C   UNL     1     -10.972   8.013  72.671  1.00  0.00    -0.382 A  
HETATM   19  H   UNL     1      -8.979   6.700  73.568  1.00  0.00     0.000 HD 
HETATM   20  C   UNL     1     -11.966   8.779  72.083  1.00  0.00    -0.366 A  
HETATM   21  O   UNL     1     -11.307   7.132  73.664  1.00  0.00    -0.507 OA 
HETATM   22  H   UNL     1     -12.212   7.042  73.940  1.00  0.00     0.000 HD 
HETATM   23  C   UNL     1     -11.652   9.681  71.080  1.00  0.00    -0.456 A  
HETATM   24  O   UNL     1     -13.263   8.644  72.489  1.00  0.00    -0.547 OA 
HETATM   25  H   UNL     1     -13.946   9.169  72.086  1.00  0.00     0.000 HD 
HETATM   26  C   UNL     1     -10.318   9.825  70.677  1.00  0.00    -0.330 A  
ENDBRANCH  14  15
ENDBRANCH  12  14
ENDBRANCH  11  12
ENDBRANCH   3   8
TORSDOF 5
ENDMDL
MODEL      215
REMARK 921   NORMALIZED FREE ENERGY PREDICTED BY IDOCK:   -3.84 KCAL/MOL
REMARK 922        TOTAL FREE ENERGY PREDICTED BY IDOCK:   -5.40 KCAL/MOL
REMARK 923 INTER-LIGAND FREE ENERGY PREDICTED BY IDOCK:   -5.24 KCAL/MOL
REMARK 924 INTRA-LIGAND FREE ENERGY PREDICTED BY IDOCK:   -0.16 KCAL/MOL
REMARK 927      BINDING AFFINITY PREDICTED BY RF-SCORE:    0.00 PKD
ROOT
HETATM    1  N   UNL     1      -9.152   6.007  67.978  1.00  0.00    -0.118 NA 
HETATM    2  H1  UNL     1      -9.805   6.714  67.638  1.00  0.00     0.000 HD 
HETATM    3  CA  UNL     1      -9.864   4.924  68.716  1.00  0.00    -0.161 C  
HETATM    4  H2  UNL     1      -8.580   5.631  67.221  1.00  0.00     0.000 HD 
ENDROOT
BRANCH   3   5
HETATM    5  C   UNL     1      -8.882   3.862  69.226  1.00  0.00    -0.093 C  
HETATM    6  H   UNL     1      -8.893   1.914  69.504  1.00  0.00     0.000 HD 
HETATM    7  O   UNL     1      -9.501   2.572  69.187  1.00  0.00    -0.143 OA 
ENDBRANCH   3   5
BRANCH   3   8
HETATM    8  C   UNL     1     -10.682   5.509  69.871  1.00  0.00    -0.288 C  
HETATM    9  O   UNL     1     -10.657   5.072  71.021  1.00  0.00    -0.183 OA 
HETATM   10  H   UNL     1     -11.501   6.880  68.513  1.00  0.00     0.000 HD 
HETATM   11  N   UNL     1     -11.511   6.552  69.478  1.00  0.00    -0.360 N  
BRANCH  11  12
HETATM   12  N   UNL     1     -12.366   7.155  70.422  1.00  0.00    -0.600 NA 
HETATM   13  H   UNL     1     -12.941   6.463  70.902  1.00  0.00     0.000 HD 
BRANCH  12  14
HETATM   14  C   UNL     1     -11.611   7.986  71.377  1.00  0.00    -0.267 C  
BRANCH  14  15
HETATM   15  C   UNL     1     -11.965   9.453  71.258  1.00  0.00    -0.430 A  
HETATM   16  C   UNL     1     -11.344  10.330  70.357  1.00  0.00    -0.332 A  
HETATM   17  O   UNL     1     -10.358   9.937  69.481  1.00  0.00    -0.199 OA 
HETATM   18  C   UNL     1     -11.713  11.672  70.302  1.00  0.00    -0.266 A  
HETATM   19  H   UNL     1      -9.938  10.530  68.871  1.00  0.00     0.000 HD 
HETATM   20  C   UNL     1     -12.684  12.171  71.155  1.00  0.00    -0.253 A  
HETATM   21  O   UNL     1     -11.127  12.513  69.393  1.00  0.00    -0.415 OA 
HETATM   22  H   UNL     1     -11.379  13.428  69.356  1.00  0.00     0.000 HD 
HETATM   23  C   UNL     1     -13.295  11.340  72.080  1.00  0.00    -0.386 A  
HETATM   24  O   UNL     1     -13.041  13.488  71.091  1.00  0.00    -0.293 OA 
HETATM   25  H   UNL     1     -13.707  13.830  71.676  1.00  0.00     0.000 HD 
HETATM   26  C   UNL     1     -12.935   9.987  72.132  1.00  0.00    -0.460 A  
ENDBRANCH  14  15
ENDBRANCH  12  14
ENDBRANCH  11  12
ENDBRANCH   3   8
TORSDOF 5
ENDMDL
MODEL      216
REMARK 921   NORMALIZED FREE ENERGY PREDICTED BY IDOCK:   -3.83 KCAL/MOL
REMARK 922        TOTAL FREE ENERGY PREDICTED BY IDOCK:   -5.40 KCAL/MOL
REMARK 923 INTER-LIGAND FREE ENERGY PREDICTED BY IDOCK:   -5.11 KCAL/MOL
REMARK 924 INTRA-LIGAND FREE ENERGY PREDICTED BY IDOCK:   -0.29 KCAL/MOL
REMARK 927      BINDING AFFINITY PREDICTED BY RF-SCORE:    0.00 PKD
ROOT
HETATM    1  N   UNL     1     -14.317  14.135  71.261  1.00  0.00    -0.155 NA 
HETATM    2  H1  UNL     1     -14.708  15.071  71.367  1.00  0.00     0.000 HD 
HETATM    3  CA  UNL     1     -12.913  14.077  71.760  1.00  0.00    -0.353 C  
HETATM    4  H2  UNL     1     -14.903  13.431  71.710  1.00  0.00     0.000 HD 
ENDROOT
BRANCH   3   5
HETATM    5  C   UNL     1     -12.324  12.670  71.601  1.00  0.00     0.287 C  
HETATM    6  H   UNL     1     -12.971  10.898  71.042  1.00  0.00     0.000 HD 
HETATM    7  O   UNL     1     -13.336  11.769  71.140  1.00  0.00    -0.018 OA 
ENDBRANCH   3   5
BRANCH   3   8
HETATM    8  C   UNL     1     -12.044  15.114  71.043  1.00  0.00    -0.333 C  
HETATM    9  O   UNL     1     -12.017  16.309  71.335  1.00  0.00    -0.429 OA 
HETATM   10  H   UNL     1     -11.384  13.585  69.768  1.00  0.00     0.000 HD 
HETATM   11  N   UNL     1     -11.328  14.582  69.977  1.00  0.00    -0.250 N  
BRANCH  11  12
HETATM   12  N   UNL     1     -10.525  15.428  69.185  1.00  0.00    -0.226 NA 
HETATM   13  H   UNL     1      -9.866  14.895  68.620  1.00  0.00     0.000 HD 
BRANCH  12  14
HETATM   14  C   UNL     1     -11.348  16.326  68.355  1.00  0.00    -0.312 C  
BRANCH  14  15
HETATM   15  C   UNL     1     -10.520  17.412  67.701  1.00  0.00    -0.368 A  
HETATM   16  C   UNL     1      -9.352  17.160  66.967  1.00  0.00    -0.243 A  
HETATM   17  O   UNL     1      -8.851  15.897  66.758  1.00  0.00    -0.216 OA 
HETATM   18  C   UNL     1      -8.632  18.207  66.396  1.00  0.00    -0.229 A  
HETATM   19  H   UNL     1      -8.060  15.726  66.261  1.00  0.00     0.000 HD 
HETATM   20  C   UNL     1      -9.044  19.519  66.564  1.00  0.00    -0.365 A  
HETATM   21  O   UNL     1      -7.513  17.950  65.649  1.00  0.00    -0.544 OA 
HETATM   22  H   UNL     1      -7.022  18.664  65.259  1.00  0.00     0.000 HD 
HETATM   23  C   UNL     1     -10.175  19.806  67.310  1.00  0.00    -0.570 A  
HETATM   24  O   UNL     1      -8.333  20.538  65.997  1.00  0.00    -0.525 OA 
HETATM   25  H   UNL     1      -8.616  21.438  66.112  1.00  0.00     0.000 HD 
HETATM   26  C   UNL     1     -10.909  18.756  67.879  1.00  0.00    -0.264 A  
ENDBRANCH  14  15
ENDBRANCH  12  14
ENDBRANCH  11  12
ENDBRANCH   3   8
TORSDOF 5
ENDMDL
MODEL      217
REMARK 921   NORMALIZED FREE ENERGY PREDICTED BY IDOCK:   -3.83 KCAL/MOL
REMARK 922        TOTAL FREE ENERGY PREDICTED BY IDOCK:   -5.39 KCAL/MOL
REMARK 923 INTER-LIGAND FREE ENERGY PREDICTED BY IDOCK:   -5.10 KCAL/MOL
REMARK 924 INTRA-LIGAND FREE ENERGY PREDICTED BY IDOCK:   -0.30 KCAL/MOL
REMARK 927      BINDING AFFINITY PREDICTED BY RF-SCORE:    0.00 PKD
ROOT
HETATM    1  N   UNL     1      -7.217  10.021  69.002  1.00  0.00    -0.072 NA 
HETATM    2  H1  UNL     1      -6.849  10.895  69.379  1.00  0.00     0.000 HD 
HETATM    3  CA  UNL     1      -7.905  10.241  67.698  1.00  0.00    -0.098 C  
HETATM    4  H2  UNL     1      -6.489   9.309  68.927  1.00  0.00     0.000 HD 
ENDROOT
BRANCH   3   5
HETATM    5  C   UNL     1      -8.458   8.927  67.132  1.00  0.00    -0.106 C  
HETATM    6  H   UNL     1      -9.491   8.367  65.555  1.00  0.00     0.000 HD 
HETATM    7  O   UNL     1      -9.149   9.180  65.905  1.00  0.00    -0.175 OA 
ENDBRANCH   3   5
BRANCH   3   8
HETATM    8  C   UNL     1      -9.019  11.281  67.847  1.00  0.00    -0.146 C  
HETATM    9  O   UNL     1     -10.196  11.000  68.071  1.00  0.00    -0.171 OA 
HETATM   10  H   UNL     1      -7.596  12.769  67.452  1.00  0.00     0.000 HD 
HETATM   11  N   UNL     1      -8.581  12.583  67.639  1.00  0.00    -0.166 N  
BRANCH  11  12
HETATM   12  N   UNL     1      -9.506  13.645  67.688  1.00  0.00    -0.214 NA 
HETATM   13  H   UNL     1      -9.266  14.316  68.418  1.00  0.00     0.000 HD 
BRANCH  12  14
HETATM   14  C   UNL     1      -9.641  14.301  66.375  1.00  0.00    -0.298 C  
BRANCH  14  15
HETATM   15  C   UNL     1     -10.537  13.519  65.438  1.00  0.00    -0.313 A  
HETATM   16  C   UNL     1     -10.096  12.430  64.672  1.00  0.00    -0.240 A  
HETATM   17  O   UNL     1      -8.805  11.957  64.708  1.00  0.00    -0.188 OA 
HETATM   18  C   UNL     1     -10.972  11.757  63.824  1.00  0.00    -0.429 A  
HETATM   19  H   UNL     1      -8.506  11.220  64.190  1.00  0.00     0.000 HD 
HETATM   20  C   UNL     1     -12.290  12.167  63.703  1.00  0.00    -0.568 A  
HETATM   21  O   UNL     1     -10.542  10.671  63.108  1.00  0.00    -0.599 OA 
HETATM   22  H   UNL     1     -11.140  10.212  62.529  1.00  0.00     0.000 HD 
HETATM   23  C   UNL     1     -12.750  13.258  64.420  1.00  0.00    -0.188 A  
HETATM   24  O   UNL     1     -13.142  11.497  62.871  1.00  0.00    -0.763 OA 
HETATM   25  H   UNL     1     -14.046  11.778  62.788  1.00  0.00     0.000 HD 
HETATM   26  C   UNL     1     -11.876  13.933  65.283  1.00  0.00    -0.365 A  
ENDBRANCH  14  15
ENDBRANCH  12  14
ENDBRANCH  11  12
ENDBRANCH   3   8
TORSDOF 5
ENDMDL
MODEL      218
REMARK 921   NORMALIZED FREE ENERGY PREDICTED BY IDOCK:   -3.81 KCAL/MOL
REMARK 922        TOTAL FREE ENERGY PREDICTED BY IDOCK:   -5.37 KCAL/MOL
REMARK 923 INTER-LIGAND FREE ENERGY PREDICTED BY IDOCK:   -4.84 KCAL/MOL
REMARK 924 INTRA-LIGAND FREE ENERGY PREDICTED BY IDOCK:   -0.53 KCAL/MOL
REMARK 927      BINDING AFFINITY PREDICTED BY RF-SCORE:    0.00 PKD
ROOT
HETATM    1  N   UNL     1      -9.669  13.378  65.954  1.00  0.00    -0.451 NA 
HETATM    2  H1  UNL     1      -9.116  12.612  66.340  1.00  0.00     0.000 HD 
HETATM    3  CA  UNL     1     -10.426  14.090  67.023  1.00  0.00    -0.275 C  
HETATM    4  H2  UNL     1      -9.091  14.021  65.412  1.00  0.00     0.000 HD 
ENDROOT
BRANCH   3   5
HETATM    5  C   UNL     1     -11.257  15.241  66.443  1.00  0.00    -0.224 C  
HETATM    6  H   UNL     1     -12.562  15.479  64.991  1.00  0.00     0.000 HD 
HETATM    7  O   UNL     1     -12.048  14.766  65.350  1.00  0.00    -0.284 OA 
ENDBRANCH   3   5
BRANCH   3   8
HETATM    8  C   UNL     1     -11.316  13.112  67.794  1.00  0.00    -0.290 C  
HETATM    9  O   UNL     1     -12.185  13.457  68.594  1.00  0.00    -0.298 OA 
HETATM   10  H   UNL     1     -10.273  11.540  66.879  1.00  0.00     0.000 HD 
HETATM   11  N   UNL     1     -11.004  11.780  67.549  1.00  0.00    -0.240 N  
BRANCH  11  12
HETATM   12  N   UNL     1     -11.703  10.763  68.230  1.00  0.00    -0.696 NA 
HETATM   13  H   UNL     1     -12.139  10.109  67.580  1.00  0.00     0.000 HD 
BRANCH  12  14
HETATM   14  C   UNL     1     -10.833  10.067  69.195  1.00  0.00    -0.222 C  
BRANCH  14  15
HETATM   15  C   UNL     1     -10.688   8.596  68.872  1.00  0.00    -0.109 A  
HETATM   16  C   UNL     1     -10.251   8.115  67.629  1.00  0.00    -0.234 A  
HETATM   17  O   UNL     1      -9.899   8.937  66.585  1.00  0.00    -0.215 OA 
HETATM   18  C   UNL     1     -10.146   6.746  67.394  1.00  0.00    -0.175 A  
HETATM   19  H   UNL     1      -9.603   8.611  65.743  1.00  0.00     0.000 HD 
HETATM   20  C   UNL     1     -10.495   5.833  68.378  1.00  0.00    -0.222 A  
HETATM   21  O   UNL     1      -9.683   6.285  66.190  1.00  0.00    -0.347 OA 
HETATM   22  H   UNL     1      -9.611   5.351  66.030  1.00  0.00     0.000 HD 
HETATM   23  C   UNL     1     -10.961   6.274  69.605  1.00  0.00    -0.440 A  
HETATM   24  O   UNL     1     -10.384   4.493  68.138  1.00  0.00     0.047 OA 
HETATM   25  H   UNL     1     -10.623   3.868  68.813  1.00  0.00     0.000 HD 
HETATM   26  C   UNL     1     -11.059   7.650  69.850  1.00  0.00    -0.160 A  
ENDBRANCH  14  15
ENDBRANCH  12  14
ENDBRANCH  11  12
ENDBRANCH   3   8
TORSDOF 5
ENDMDL
MODEL      219
REMARK 921   NORMALIZED FREE ENERGY PREDICTED BY IDOCK:   -3.80 KCAL/MOL
REMARK 922        TOTAL FREE ENERGY PREDICTED BY IDOCK:   -5.36 KCAL/MOL
REMARK 923 INTER-LIGAND FREE ENERGY PREDICTED BY IDOCK:   -4.75 KCAL/MOL
REMARK 924 INTRA-LIGAND FREE ENERGY PREDICTED BY IDOCK:   -0.61 KCAL/MOL
REMARK 927      BINDING AFFINITY PREDICTED BY RF-SCORE:    0.00 PKD
ROOT
HETATM    1  N   UNL     1     -10.312   5.843  72.108  1.00  0.00    -0.195 NA 
HETATM    2  H1  UNL     1      -9.893   6.422  72.836  1.00  0.00     0.000 HD 
HETATM    3  CA  UNL     1     -10.242   6.512  70.778  1.00  0.00    -0.187 C  
HETATM    4  H2  UNL     1      -9.893   4.913  72.082  1.00  0.00     0.000 HD 
ENDROOT
BRANCH   3   5
HETATM    5  C   UNL     1     -10.871   5.641  69.683  1.00  0.00    -0.295 C  
HETATM    6  H   UNL     1     -11.580   5.910  67.868  1.00  0.00     0.000 HD 
HETATM    7  O   UNL     1     -11.191   6.449  68.545  1.00  0.00    -0.328 OA 
ENDBRANCH   3   5
BRANCH   3   8
HETATM    8  C   UNL     1     -10.914   7.887  70.832  1.00  0.00    -0.243 C  
HETATM    9  O   UNL     1     -12.049   8.081  71.264  1.00  0.00    -0.295 OA 
HETATM   10  H   UNL     1      -9.197   8.690  69.934  1.00  0.00     0.000 HD 
HETATM   11  N   UNL     1     -10.133   8.898  70.283  1.00  0.00    -0.181 N  
BRANCH  11  12
HETATM   12  N   UNL     1     -10.642  10.210  70.212  1.00  0.00    -0.367 NA 
HETATM   13  H   UNL     1      -9.918  10.902  70.402  1.00  0.00     0.000 HD 
BRANCH  12  14
HETATM   14  C   UNL     1     -11.303  10.460  68.918  1.00  0.00    -0.219 C  
BRANCH  14  15
HETATM   15  C   UNL     1     -10.307  10.585  67.785  1.00  0.00    -0.248 A  
HETATM   16  C   UNL     1      -9.238  11.492  67.790  1.00  0.00    -0.165 A  
HETATM   17  O   UNL     1      -8.981  12.349  68.835  1.00  0.00    -0.378 OA 
HETATM   18  C   UNL     1      -8.360  11.561  66.711  1.00  0.00    -0.165 A  
HETATM   19  H   UNL     1      -8.256  12.963  68.838  1.00  0.00     0.000 HD 
HETATM   20  C   UNL     1      -8.543  10.752  65.601  1.00  0.00    -0.180 A  
HETATM   21  O   UNL     1      -7.296  12.423  66.739  1.00  0.00    -0.381 OA 
HETATM   22  H   UNL     1      -6.697  12.470  66.003  1.00  0.00     0.000 HD 
HETATM   23  C   UNL     1      -9.608   9.868  65.549  1.00  0.00    -0.341 A  
HETATM   24  O   UNL     1      -7.675  10.825  64.549  1.00  0.00    -0.354 OA 
HETATM   25  H   UNL     1      -7.800  10.270  63.788  1.00  0.00     0.000 HD 
HETATM   26  C   UNL     1     -10.489   9.787  66.637  1.00  0.00    -0.233 A  
ENDBRANCH  14  15
ENDBRANCH  12  14
ENDBRANCH  11  12
ENDBRANCH   3   8
TORSDOF 5
ENDMDL
MODEL      220
REMARK 921   NORMALIZED FREE ENERGY PREDICTED BY IDOCK:   -3.78 KCAL/MOL
REMARK 922        TOTAL FREE ENERGY PREDICTED BY IDOCK:   -5.33 KCAL/MOL
REMARK 923 INTER-LIGAND FREE ENERGY PREDICTED BY IDOCK:   -5.38 KCAL/MOL
REMARK 924 INTRA-LIGAND FREE ENERGY PREDICTED BY IDOCK:    0.05 KCAL/MOL
REMARK 927      BINDING AFFINITY PREDICTED BY RF-SCORE:    0.00 PKD
ROOT
HETATM    1  N   UNL     1      -8.117  13.143  67.802  1.00  0.00    -0.150 NA 
HETATM    2  H1  UNL     1      -8.740  12.442  68.203  1.00  0.00     0.000 HD 
HETATM    3  CA  UNL     1      -8.308  14.471  68.453  1.00  0.00    -0.153 C  
HETATM    4  H2  UNL     1      -7.143  12.844  67.839  1.00  0.00     0.000 HD 
ENDROOT
BRANCH   3   5
HETATM    5  C   UNL     1      -7.371  15.525  67.850  1.00  0.00    -0.140 C  
HETATM    6  H   UNL     1      -6.601  17.247  68.408  1.00  0.00     0.000 HD 
HETATM    7  O   UNL     1      -7.180  16.594  68.782  1.00  0.00    -0.181 OA 
ENDBRANCH   3   5
BRANCH   3   8
HETATM    8  C   UNL     1      -9.769  14.917  68.347  1.00  0.00    -0.209 C  
HETATM    9  O   UNL     1     -10.257  15.833  69.007  1.00  0.00    -0.202 OA 
HETATM   10  H   UNL     1     -10.068  13.387  66.945  1.00  0.00     0.000 HD 
HETATM   11  N   UNL     1     -10.514  14.139  67.470  1.00  0.00    -0.248 N  
BRANCH  11  12
HETATM   12  N   UNL     1     -11.891  14.395  67.309  1.00  0.00    -0.400 NA 
HETATM   13  H   UNL     1     -12.115  15.371  67.503  1.00  0.00     0.000 HD 
BRANCH  12  14
HETATM   14  C   UNL     1     -12.360  13.989  65.972  1.00  0.00    -0.473 C  
BRANCH  14  15
HETATM   15  C   UNL     1     -11.539  12.851  65.402  1.00  0.00    -0.386 A  
HETATM   16  C   UNL     1     -11.269  11.665  66.100  1.00  0.00    -0.254 A  
HETATM   17  O   UNL     1     -11.738  11.414  67.368  1.00  0.00    -0.574 OA 
HETATM   18  C   UNL     1     -10.500  10.659  65.520  1.00  0.00    -0.176 A  
HETATM   19  H   UNL     1     -11.556  10.610  67.840  1.00  0.00     0.000 HD 
HETATM   20  C   UNL     1      -9.966  10.823  64.252  1.00  0.00    -0.341 A  
HETATM   21  O   UNL     1     -10.273   9.488  66.194  1.00  0.00    -0.273 OA 
HETATM   22  H   UNL     1      -9.748   8.802  65.798  1.00  0.00     0.000 HD 
HETATM   23  C   UNL     1     -10.186  11.996  63.548  1.00  0.00    -0.477 A  
HETATM   24  O   UNL     1      -9.216   9.829  63.691  1.00  0.00    -0.304 OA 
HETATM   25  H   UNL     1      -8.850   9.941  62.821  1.00  0.00     0.000 HD 
HETATM   26  C   UNL     1     -10.967  13.007  64.123  1.00  0.00    -0.438 A  
ENDBRANCH  14  15
ENDBRANCH  12  14
ENDBRANCH  11  12
ENDBRANCH   3   8
TORSDOF 5
ENDMDL
MODEL      221
REMARK 921   NORMALIZED FREE ENERGY PREDICTED BY IDOCK:   -3.77 KCAL/MOL
REMARK 922        TOTAL FREE ENERGY PREDICTED BY IDOCK:   -5.32 KCAL/MOL
REMARK 923 INTER-LIGAND FREE ENERGY PREDICTED BY IDOCK:   -4.75 KCAL/MOL
REMARK 924 INTRA-LIGAND FREE ENERGY PREDICTED BY IDOCK:   -0.57 KCAL/MOL
REMARK 927      BINDING AFFINITY PREDICTED BY RF-SCORE:    0.00 PKD
ROOT
HETATM    1  N   UNL     1      -8.640  11.244  64.666  1.00  0.00    -0.351 NA 
HETATM    2  H1  UNL     1      -9.636  11.249  64.444  1.00  0.00     0.000 HD 
HETATM    3  CA  UNL     1      -8.339  10.293  65.774  1.00  0.00    -0.152 C  
HETATM    4  H2  UNL     1      -8.073  11.049  63.840  1.00  0.00     0.000 HD 
ENDROOT
BRANCH   3   5
HETATM    5  C   UNL     1      -6.842  10.285  66.108  1.00  0.00    -0.115 C  
HETATM    6  H   UNL     1      -5.159  10.670  65.165  1.00  0.00     0.000 HD 
HETATM    7  O   UNL     1      -6.086  10.676  64.958  1.00  0.00    -0.112 OA 
ENDBRANCH   3   5
BRANCH   3   8
HETATM    8  C   UNL     1      -9.171  10.632  67.014  1.00  0.00    -0.151 C  
HETATM    9  O   UNL     1     -10.261  10.124  67.271  1.00  0.00    -0.197 OA 
HETATM   10  H   UNL     1      -7.693  12.021  67.547  1.00  0.00     0.000 HD 
HETATM   11  N   UNL     1      -8.598  11.626  67.800  1.00  0.00    -0.139 N  
BRANCH  11  12
HETATM   12  N   UNL     1      -9.276  12.083  68.947  1.00  0.00    -0.392 NA 
HETATM   13  H   UNL     1      -8.911  11.650  69.795  1.00  0.00     0.000 HD 
BRANCH  12  14
HETATM   14  C   UNL     1      -9.248  13.555  69.037  1.00  0.00     0.357 C  
BRANCH  14  15
HETATM   15  C   UNL     1      -9.713  14.211  67.755  1.00  0.00    -0.223 A  
HETATM   16  C   UNL     1     -10.834  13.785  67.029  1.00  0.00    -0.284 A  
HETATM   17  O   UNL     1     -11.631  12.734  67.420  1.00  0.00    -0.315 OA 
HETATM   18  C   UNL     1     -11.205  14.430  65.851  1.00  0.00    -0.324 A  
HETATM   19  H   UNL     1     -12.390  12.446  66.928  1.00  0.00     0.000 HD 
HETATM   20  C   UNL     1     -10.457  15.490  65.363  1.00  0.00    -0.405 A  
HETATM   21  O   UNL     1     -12.324  14.031  65.168  1.00  0.00    -0.415 OA 
HETATM   22  H   UNL     1     -12.577  14.472  64.364  1.00  0.00     0.000 HD 
HETATM   23  C   UNL     1      -9.325  15.915  66.038  1.00  0.00    -0.385 A  
HETATM   24  O   UNL     1     -10.832  16.118  64.209  1.00  0.00    -0.944 OA 
HETATM   25  H   UNL     1     -10.319  16.844  63.874  1.00  0.00     0.000 HD 
HETATM   26  C   UNL     1      -8.953  15.276  67.228  1.00  0.00    -0.209 A  
ENDBRANCH  14  15
ENDBRANCH  12  14
ENDBRANCH  11  12
ENDBRANCH   3   8
TORSDOF 5
ENDMDL
MODEL      222
REMARK 921   NORMALIZED FREE ENERGY PREDICTED BY IDOCK:   -3.74 KCAL/MOL
REMARK 922        TOTAL FREE ENERGY PREDICTED BY IDOCK:   -5.28 KCAL/MOL
REMARK 923 INTER-LIGAND FREE ENERGY PREDICTED BY IDOCK:   -4.75 KCAL/MOL
REMARK 924 INTRA-LIGAND FREE ENERGY PREDICTED BY IDOCK:   -0.53 KCAL/MOL
REMARK 927      BINDING AFFINITY PREDICTED BY RF-SCORE:    0.00 PKD
ROOT
HETATM    1  N   UNL     1      -9.200  12.344  66.833  1.00  0.00    -0.203 NA 
HETATM    2  H1  UNL     1      -8.520  11.690  67.222  1.00  0.00     0.000 HD 
HETATM    3  CA  UNL     1     -10.362  12.521  67.750  1.00  0.00    -0.222 C  
HETATM    4  H2  UNL     1      -8.768  13.238  66.597  1.00  0.00     0.000 HD 
ENDROOT
BRANCH   3   5
HETATM    5  C   UNL     1     -11.386  13.505  67.166  1.00  0.00    -0.321 C  
HETATM    6  H   UNL     1     -12.300  13.770  65.445  1.00  0.00     0.000 HD 
HETATM    7  O   UNL     1     -11.667  13.161  65.806  1.00  0.00    -0.340 OA 
ENDBRANCH   3   5
BRANCH   3   8
HETATM    8  C   UNL     1     -11.018  11.172  68.055  1.00  0.00    -0.252 C  
HETATM    9  O   UNL     1     -12.234  10.997  68.118  1.00  0.00    -0.578 OA 
HETATM   10  H   UNL     1      -9.097  10.356  68.256  1.00  0.00     0.000 HD 
HETATM   11  N   UNL     1     -10.097  10.165  68.318  1.00  0.00    -0.151 N  
BRANCH  11  12
HETATM   12  N   UNL     1     -10.552   8.879  68.669  1.00  0.00    -0.347 NA 
HETATM   13  H   UNL     1     -11.136   8.476  67.937  1.00  0.00     0.000 HD 
BRANCH  12  14
HETATM   14  C   UNL     1      -9.430   7.988  69.017  1.00  0.00    -0.151 C  
BRANCH  14  15
HETATM   15  C   UNL     1      -9.507   6.664  68.287  1.00  0.00    -0.123 A  
HETATM   16  C   UNL     1      -9.616   6.553  66.893  1.00  0.00    -0.158 A  
HETATM   17  O   UNL     1      -9.648   7.640  66.051  1.00  0.00    -0.418 OA 
HETATM   18  C   UNL     1      -9.689   5.303  66.284  1.00  0.00    -0.169 A  
HETATM   19  H   UNL     1      -9.721   7.564  65.107  1.00  0.00     0.000 HD 
HETATM   20  C   UNL     1      -9.682   4.146  67.047  1.00  0.00    -0.197 A  
HETATM   21  O   UNL     1      -9.757   5.202  64.919  1.00  0.00    -0.361 OA 
HETATM   22  H   UNL     1      -9.807   4.349  64.504  1.00  0.00     0.000 HD 
HETATM   23  C   UNL     1      -9.609   4.221  68.428  1.00  0.00    -0.197 A  
HETATM   24  O   UNL     1      -9.750   2.925  66.439  1.00  0.00    -0.398 OA 
HETATM   25  H   UNL     1      -9.745   2.131  66.962  1.00  0.00     0.000 HD 
HETATM   26  C   UNL     1      -9.524   5.475  69.046  1.00  0.00    -0.167 A  
ENDBRANCH  14  15
ENDBRANCH  12  14
ENDBRANCH  11  12
ENDBRANCH   3   8
TORSDOF 5
ENDMDL
MODEL      223
REMARK 921   NORMALIZED FREE ENERGY PREDICTED BY IDOCK:   -3.72 KCAL/MOL
REMARK 922        TOTAL FREE ENERGY PREDICTED BY IDOCK:   -5.26 KCAL/MOL
REMARK 923 INTER-LIGAND FREE ENERGY PREDICTED BY IDOCK:   -4.77 KCAL/MOL
REMARK 924 INTRA-LIGAND FREE ENERGY PREDICTED BY IDOCK:   -0.49 KCAL/MOL
REMARK 927      BINDING AFFINITY PREDICTED BY RF-SCORE:    0.00 PKD
ROOT
HETATM    1  N   UNL     1      -9.925   7.442  73.239  1.00  0.00    -0.259 NA 
HETATM    2  H1  UNL     1     -10.274   8.291  73.684  1.00  0.00     0.000 HD 
HETATM    3  CA  UNL     1      -9.291   7.744  71.924  1.00  0.00    -0.153 C  
HETATM    4  H2  UNL     1      -9.290   6.931  73.853  1.00  0.00     0.000 HD 
ENDROOT
BRANCH   3   5
HETATM    5  C   UNL     1      -8.766   6.468  71.254  1.00  0.00    -0.130 C  
HETATM    6  H   UNL     1      -7.279   5.210  71.530  1.00  0.00     0.000 HD 
HETATM    7  O   UNL     1      -7.604   5.999  71.945  1.00  0.00    -0.094 OA 
ENDBRANCH   3   5
BRANCH   3   8
HETATM    8  C   UNL     1     -10.275   8.474  71.006  1.00  0.00    -0.203 C  
HETATM    9  O   UNL     1     -11.078   9.321  71.395  1.00  0.00    -0.313 OA 
HETATM   10  H   UNL     1      -9.538   7.330  69.411  1.00  0.00     0.000 HD 
HETATM   11  N   UNL     1     -10.218   8.038  69.688  1.00  0.00    -0.203 N  
BRANCH  11  12
HETATM   12  N   UNL     1     -11.105   8.579  68.736  1.00  0.00    -0.400 NA 
HETATM   13  H   UNL     1     -11.709   9.289  69.149  1.00  0.00     0.000 HD 
BRANCH  12  14
HETATM   14  C   UNL     1     -10.381   9.102  67.563  1.00  0.00    -0.261 C  
BRANCH  14  15
HETATM   15  C   UNL     1     -10.642  10.577  67.344  1.00  0.00    -0.313 A  
HETATM   16  C   UNL     1     -11.538  11.328  68.119  1.00  0.00    -0.289 A  
HETATM   17  O   UNL     1     -12.257  10.800  69.165  1.00  0.00    -0.633 OA 
HETATM   18  C   UNL     1     -11.737  12.682  67.860  1.00  0.00    -0.358 A  
HETATM   19  H   UNL     1     -12.863  11.309  69.689  1.00  0.00     0.000 HD 
HETATM   20  C   UNL     1     -11.073  13.305  66.815  1.00  0.00    -0.292 A  
HETATM   21  O   UNL     1     -12.585  13.418  68.644  1.00  0.00    -0.010 OA 
HETATM   22  H   UNL     1     -12.721  14.342  68.468  1.00  0.00     0.000 HD 
HETATM   23  C   UNL     1     -10.206  12.585  66.010  1.00  0.00    -0.269 A  
HETATM   24  O   UNL     1     -11.273  14.634  66.572  1.00  0.00    -0.334 OA 
HETATM   25  H   UNL     1     -10.817  15.062  65.856  1.00  0.00     0.000 HD 
HETATM   26  C   UNL     1      -9.994  11.225  66.272  1.00  0.00    -0.260 A  
ENDBRANCH  14  15
ENDBRANCH  12  14
ENDBRANCH  11  12
ENDBRANCH   3   8
TORSDOF 5
ENDMDL
MODEL      224
REMARK 921   NORMALIZED FREE ENERGY PREDICTED BY IDOCK:   -3.70 KCAL/MOL
REMARK 922        TOTAL FREE ENERGY PREDICTED BY IDOCK:   -5.23 KCAL/MOL
REMARK 923 INTER-LIGAND FREE ENERGY PREDICTED BY IDOCK:   -5.09 KCAL/MOL
REMARK 924 INTRA-LIGAND FREE ENERGY PREDICTED BY IDOCK:   -0.14 KCAL/MOL
REMARK 927      BINDING AFFINITY PREDICTED BY RF-SCORE:    0.00 PKD
ROOT
HETATM    1  N   UNL     1     -12.682   8.047  72.288  1.00  0.00    -0.512 NA 
HETATM    2  H1  UNL     1     -13.473   8.691  72.238  1.00  0.00     0.000 HD 
HETATM    3  CA  UNL     1     -11.422   8.703  71.836  1.00  0.00    -0.348 C  
HETATM    4  H2  UNL     1     -12.583   7.648  73.222  1.00  0.00     0.000 HD 
ENDROOT
BRANCH   3   5
HETATM    5  C   UNL     1     -10.234   7.736  71.911  1.00  0.00    -0.202 C  
HETATM    6  H   UNL     1      -9.759   6.123  72.932  1.00  0.00     0.000 HD 
HETATM    7  O   UNL     1     -10.495   6.722  72.886  1.00  0.00    -0.205 OA 
ENDBRANCH   3   5
BRANCH   3   8
HETATM    8  C   UNL     1     -11.584   9.257  70.418  1.00  0.00    -0.173 C  
HETATM    9  O   UNL     1     -11.652   8.556  69.409  1.00  0.00     0.392 OA 
HETATM   10  H   UNL     1     -11.519  11.188  71.233  1.00  0.00     0.000 HD 
HETATM   11  N   UNL     1     -11.582  10.646  70.371  1.00  0.00    -0.330 N  
BRANCH  11  12
HETATM   12  N   UNL     1     -11.667  11.302  69.127  1.00  0.00    -0.312 NA 
HETATM   13  H   UNL     1     -11.993  12.262  69.231  1.00  0.00     0.000 HD 
BRANCH  12  14
HETATM   14  C   UNL     1     -10.386  11.242  68.399  1.00  0.00    -0.192 C  
BRANCH  14  15
HETATM   15  C   UNL     1     -10.584  11.247  66.898  1.00  0.00    -0.300 A  
HETATM   16  C   UNL     1      -9.842  10.447  66.017  1.00  0.00    -0.232 A  
HETATM   17  O   UNL     1      -8.871   9.568  66.433  1.00  0.00    -0.138 OA 
HETATM   18  C   UNL     1     -10.070  10.505  64.644  1.00  0.00    -0.338 A  
HETATM   19  H   UNL     1      -8.369   9.026  65.835  1.00  0.00     0.000 HD 
HETATM   20  C   UNL     1     -11.016  11.373  64.122  1.00  0.00    -0.341 A  
HETATM   21  O   UNL     1      -9.368   9.694  63.792  1.00  0.00    -0.404 OA 
HETATM   22  H   UNL     1      -9.523   9.733  62.856  1.00  0.00     0.000 HD 
HETATM   23  C   UNL     1     -11.743  12.200  64.962  1.00  0.00    -0.371 A  
HETATM   24  O   UNL     1     -11.234  11.419  62.775  1.00  0.00    -0.655 OA 
HETATM   25  H   UNL     1     -11.883  12.014  62.417  1.00  0.00     0.000 HD 
HETATM   26  C   UNL     1     -11.525  12.139  66.345  1.00  0.00    -0.430 A  
ENDBRANCH  14  15
ENDBRANCH  12  14
ENDBRANCH  11  12
ENDBRANCH   3   8
TORSDOF 5
ENDMDL
MODEL      225
REMARK 921   NORMALIZED FREE ENERGY PREDICTED BY IDOCK:   -3.70 KCAL/MOL
REMARK 922        TOTAL FREE ENERGY PREDICTED BY IDOCK:   -5.22 KCAL/MOL
REMARK 923 INTER-LIGAND FREE ENERGY PREDICTED BY IDOCK:   -4.92 KCAL/MOL
REMARK 924 INTRA-LIGAND FREE ENERGY PREDICTED BY IDOCK:   -0.31 KCAL/MOL
REMARK 927      BINDING AFFINITY PREDICTED BY RF-SCORE:    0.00 PKD
ROOT
HETATM    1  N   UNL     1      -7.679   7.113  67.256  1.00  0.00    -0.107 NA 
HETATM    2  H1  UNL     1      -8.097   7.883  66.732  1.00  0.00     0.000 HD 
HETATM    3  CA  UNL     1      -8.679   6.042  67.532  1.00  0.00    -0.107 C  
HETATM    4  H2  UNL     1      -6.854   6.743  66.783  1.00  0.00     0.000 HD 
ENDROOT
BRANCH   3   5
HETATM    5  C   UNL     1      -8.050   4.885  68.319  1.00  0.00    -0.085 C  
HETATM    6  H   UNL     1      -6.942   4.681  69.931  1.00  0.00     0.000 HD 
HETATM    7  O   UNL     1      -7.331   5.398  69.445  1.00  0.00    -0.063 OA 
ENDBRANCH   3   5
BRANCH   3   8
HETATM    8  C   UNL     1      -9.887   6.614  68.279  1.00  0.00    -0.137 C  
HETATM    9  O   UNL     1     -10.675   5.934  68.934  1.00  0.00    -0.263 OA 
HETATM   10  H   UNL     1      -9.369   8.506  67.538  1.00  0.00     0.000 HD 
HETATM   11  N   UNL     1     -10.046   7.982  68.092  1.00  0.00    -0.190 N  
BRANCH  11  12
HETATM   12  N   UNL     1     -11.148   8.641  68.674  1.00  0.00    -0.396 NA 
HETATM   13  H   UNL     1     -11.276   8.367  69.647  1.00  0.00     0.000 HD 
BRANCH  12  14
HETATM   14  C   UNL     1     -11.033  10.104  68.535  1.00  0.00    -0.232 C  
BRANCH  14  15
HETATM   15  C   UNL     1     -11.700  10.838  69.678  1.00  0.00    -0.395 A  
HETATM   16  C   UNL     1     -11.559  12.215  69.903  1.00  0.00    -0.221 A  
HETATM   17  O   UNL     1     -10.809  13.037  69.095  1.00  0.00    -0.394 OA 
HETATM   18  C   UNL     1     -12.196  12.828  70.979  1.00  0.00    -0.105 A  
HETATM   19  H   UNL     1     -10.714  13.970  69.246  1.00  0.00     0.000 HD 
HETATM   20  C   UNL     1     -12.960  12.083  71.863  1.00  0.00    -0.323 A  
HETATM   21  O   UNL     1     -12.083  14.180  71.170  1.00  0.00    -0.343 OA 
HETATM   22  H   UNL     1     -12.517  14.598  71.904  1.00  0.00     0.000 HD 
HETATM   23  C   UNL     1     -13.094  10.716  71.689  1.00  0.00    -0.555 A  
HETATM   24  O   UNL     1     -13.583  12.695  72.913  1.00  0.00    -0.629 OA 
HETATM   25  H   UNL     1     -14.108  12.184  73.519  1.00  0.00     0.000 HD 
HETATM   26  C   UNL     1     -12.464  10.095  70.602  1.00  0.00    -0.372 A  
ENDBRANCH  14  15
ENDBRANCH  12  14
ENDBRANCH  11  12
ENDBRANCH   3   8
TORSDOF 5
ENDMDL
MODEL      226
REMARK 921   NORMALIZED FREE ENERGY PREDICTED BY IDOCK:   -3.68 KCAL/MOL
REMARK 922        TOTAL FREE ENERGY PREDICTED BY IDOCK:   -5.21 KCAL/MOL
REMARK 923 INTER-LIGAND FREE ENERGY PREDICTED BY IDOCK:   -4.48 KCAL/MOL
REMARK 924 INTRA-LIGAND FREE ENERGY PREDICTED BY IDOCK:   -0.73 KCAL/MOL
REMARK 927      BINDING AFFINITY PREDICTED BY RF-SCORE:    0.00 PKD
ROOT
HETATM    1  N   UNL     1      -8.960   4.649  70.664  1.00  0.00    -0.113 NA 
HETATM    2  H1  UNL     1      -8.856   4.426  69.673  1.00  0.00     0.000 HD 
HETATM    3  CA  UNL     1     -10.348   5.096  70.974  1.00  0.00    -0.208 C  
HETATM    4  H2  UNL     1      -8.677   3.867  71.255  1.00  0.00     0.000 HD 
ENDROOT
BRANCH   3   5
HETATM    5  C   UNL     1     -10.505   5.431  72.462  1.00  0.00    -0.214 C  
HETATM    6  H   UNL     1     -10.679   4.430  74.147  1.00  0.00     0.000 HD 
HETATM    7  O   UNL     1     -10.581   4.223  73.226  1.00  0.00    -0.173 OA 
ENDBRANCH   3   5
BRANCH   3   8
HETATM    8  C   UNL     1     -10.733   6.295  70.103  1.00  0.00    -0.286 C  
HETATM    9  O   UNL     1     -11.077   7.388  70.552  1.00  0.00    -0.252 OA 
HETATM   10  H   UNL     1     -10.429   5.088  68.416  1.00  0.00     0.000 HD 
HETATM   11  N   UNL     1     -10.718   6.010  68.743  1.00  0.00    -0.284 N  
BRANCH  11  12
HETATM   12  N   UNL     1     -11.104   7.001  67.819  1.00  0.00    -0.541 NA 
HETATM   13  H   UNL     1     -11.433   7.843  68.289  1.00  0.00     0.000 HD 
BRANCH  12  14
HETATM   14  C   UNL     1     -10.017   7.302  66.869  1.00  0.00    -0.232 C  
BRANCH  14  15
HETATM   15  C   UNL     1      -9.717   8.784  66.799  1.00  0.00    -0.286 A  
HETATM   16  C   UNL     1      -9.385   9.561  67.919  1.00  0.00    -0.132 A  
HETATM   17  O   UNL     1      -9.286   9.047  69.190  1.00  0.00    -0.146 OA 
HETATM   18  C   UNL     1      -9.127  10.923  67.786  1.00  0.00    -0.149 A  
HETATM   19  H   UNL     1      -9.061   9.574  69.948  1.00  0.00     0.000 HD 
HETATM   20  C   UNL     1      -9.218  11.541  66.548  1.00  0.00    -0.194 A  
HETATM   21  O   UNL     1      -8.768  11.668  68.878  1.00  0.00    -0.351 OA 
HETATM   22  H   UNL     1      -8.591  12.597  68.788  1.00  0.00     0.000 HD 
HETATM   23  C   UNL     1      -9.575  10.809  65.428  1.00  0.00    -0.272 A  
HETATM   24  O   UNL     1      -8.960  12.876  66.429  1.00  0.00    -0.411 OA 
HETATM   25  H   UNL     1      -9.022  13.300  65.580  1.00  0.00     0.000 HD 
HETATM   26  C   UNL     1      -9.826   9.436  65.554  1.00  0.00    -0.231 A  
ENDBRANCH  14  15
ENDBRANCH  12  14
ENDBRANCH  11  12
ENDBRANCH   3   8
TORSDOF 5
ENDMDL
MODEL      227
REMARK 921   NORMALIZED FREE ENERGY PREDICTED BY IDOCK:   -3.66 KCAL/MOL
REMARK 922        TOTAL FREE ENERGY PREDICTED BY IDOCK:   -5.18 KCAL/MOL
REMARK 923 INTER-LIGAND FREE ENERGY PREDICTED BY IDOCK:   -4.69 KCAL/MOL
REMARK 924 INTRA-LIGAND FREE ENERGY PREDICTED BY IDOCK:   -0.48 KCAL/MOL
REMARK 927      BINDING AFFINITY PREDICTED BY RF-SCORE:    0.00 PKD
ROOT
HETATM    1  N   UNL     1      -5.436   7.548  65.710  1.00  0.00    -0.028 NA 
HETATM    2  H1  UNL     1      -5.900   7.231  64.858  1.00  0.00     0.000 HD 
HETATM    3  CA  UNL     1      -6.313   8.467  66.491  1.00  0.00    -0.058 C  
HETATM    4  H2  UNL     1      -5.116   6.763  66.278  1.00  0.00     0.000 HD 
ENDROOT
BRANCH   3   5
HETATM    5  C   UNL     1      -5.616   8.945  67.772  1.00  0.00    -0.035 C  
HETATM    6  H   UNL     1      -5.867  10.384  69.090  1.00  0.00     0.000 HD 
HETATM    7  O   UNL     1      -6.298  10.089  68.297  1.00  0.00    -0.053 OA 
ENDBRANCH   3   5
BRANCH   3   8
HETATM    8  C   UNL     1      -6.745   9.658  65.631  1.00  0.00    -0.086 C  
HETATM    9  O   UNL     1      -5.965  10.373  65.004  1.00  0.00    -0.123 OA 
HETATM   10  H   UNL     1      -8.724   9.278  66.213  1.00  0.00     0.000 HD 
HETATM   11  N   UNL     1      -8.114   9.895  65.677  1.00  0.00    -0.123 N  
BRANCH  11  12
HETATM   12  N   UNL     1      -8.654  10.993  64.978  1.00  0.00    -0.372 NA 
HETATM   13  H   UNL     1      -8.327  11.020  64.013  1.00  0.00     0.000 HD 
BRANCH  12  14
HETATM   14  C   UNL     1     -10.127  11.004  65.051  1.00  0.00    -0.296 C  
BRANCH  14  15
HETATM   15  C   UNL     1     -10.647  12.162  65.876  1.00  0.00    -0.293 A  
HETATM   16  C   UNL     1     -10.421  13.507  65.551  1.00  0.00    -0.299 A  
HETATM   17  O   UNL     1      -9.714  13.907  64.441  1.00  0.00    -0.600 OA 
HETATM   18  C   UNL     1     -10.923  14.526  66.358  1.00  0.00    -0.324 A  
HETATM   19  H   UNL     1      -9.562  14.818  64.221  1.00  0.00     0.000 HD 
HETATM   20  C   UNL     1     -11.634  14.228  67.509  1.00  0.00    -0.363 A  
HETATM   21  O   UNL     1     -10.730  15.838  66.014  1.00  0.00    -0.323 OA 
HETATM   22  H   UNL     1     -11.072  16.533  66.564  1.00  0.00     0.000 HD 
HETATM   23  C   UNL     1     -11.847  12.909  67.876  1.00  0.00    -0.388 A  
HETATM   24  O   UNL     1     -12.125  15.234  68.291  1.00  0.00    -0.534 OA 
HETATM   25  H   UNL     1     -12.612  15.030  69.081  1.00  0.00     0.000 HD 
HETATM   26  C   UNL     1     -11.353  11.880  67.064  1.00  0.00    -0.392 A  
ENDBRANCH  14  15
ENDBRANCH  12  14
ENDBRANCH  11  12
ENDBRANCH   3   8
TORSDOF 5
ENDMDL
MODEL      228
REMARK 921   NORMALIZED FREE ENERGY PREDICTED BY IDOCK:   -3.64 KCAL/MOL
REMARK 922        TOTAL FREE ENERGY PREDICTED BY IDOCK:   -5.15 KCAL/MOL
REMARK 923 INTER-LIGAND FREE ENERGY PREDICTED BY IDOCK:   -4.82 KCAL/MOL
REMARK 924 INTRA-LIGAND FREE ENERGY PREDICTED BY IDOCK:   -0.33 KCAL/MOL
REMARK 927      BINDING AFFINITY PREDICTED BY RF-SCORE:    0.00 PKD
ROOT
HETATM    1  N   UNL     1      -9.727   5.956  65.605  1.00  0.00    -0.360 NA 
HETATM    2  H1  UNL     1     -10.299   6.631  65.096  1.00  0.00     0.000 HD 
HETATM    3  CA  UNL     1      -9.649   6.298  67.054  1.00  0.00    -0.140 C  
HETATM    4  H2  UNL     1     -10.058   5.002  65.462  1.00  0.00     0.000 HD 
ENDROOT
BRANCH   3   5
HETATM    5  C   UNL     1      -8.789   5.283  67.819  1.00  0.00    -0.105 C  
HETATM    6  H   UNL     1      -7.267   4.102  67.419  1.00  0.00     0.000 HD 
HETATM    7  O   UNL     1      -7.799   4.730  66.945  1.00  0.00    -0.097 OA 
ENDBRANCH   3   5
BRANCH   3   8
HETATM    8  C   UNL     1      -9.110   7.718  67.243  1.00  0.00    -0.131 C  
HETATM    9  O   UNL     1      -8.848   8.484  66.317  1.00  0.00    -0.138 OA 
HETATM   10  H   UNL     1      -9.114   7.375  69.312  1.00  0.00     0.000 HD 
HETATM   11  N   UNL     1      -8.884   8.043  68.576  1.00  0.00    -0.134 N  
BRANCH  11  12
HETATM   12  N   UNL     1      -8.337   9.299  68.904  1.00  0.00    -0.118 NA 
HETATM   13  H   UNL     1      -8.087   9.828  68.069  1.00  0.00     0.000 HD 
BRANCH  12  14
HETATM   14  C   UNL     1      -9.240  10.066  69.780  1.00  0.00    -0.199 C  
BRANCH  14  15
HETATM   15  C   UNL     1      -9.720   9.248  70.960  1.00  0.00    -0.341 A  
HETATM   16  C   UNL     1     -11.074   9.043  71.262  1.00  0.00    -0.312 A  
HETATM   17  O   UNL     1     -12.101   9.557  70.506  1.00  0.00    -0.428 OA 
HETATM   18  C   UNL     1     -11.447   8.283  72.368  1.00  0.00    -0.394 A  
HETATM   19  H   UNL     1     -13.018   9.418  70.711  1.00  0.00     0.000 HD 
HETATM   20  C   UNL     1     -10.487   7.736  73.204  1.00  0.00    -0.349 A  
HETATM   21  O   UNL     1     -12.772   8.057  72.636  1.00  0.00    -0.572 OA 
HETATM   22  H   UNL     1     -13.027   7.539  73.390  1.00  0.00     0.000 HD 
HETATM   23  C   UNL     1      -9.141   7.946  72.953  1.00  0.00    -0.281 A  
HETATM   24  O   UNL     1     -10.864   6.990  74.284  1.00  0.00    -0.466 OA 
HETATM   25  H   UNL     1     -10.206   6.614  74.858  1.00  0.00     0.000 HD 
HETATM   26  C   UNL     1      -8.759   8.701  71.836  1.00  0.00    -0.256 A  
ENDBRANCH  14  15
ENDBRANCH  12  14
ENDBRANCH  11  12
ENDBRANCH   3   8
TORSDOF 5
ENDMDL
MODEL      229
REMARK 921   NORMALIZED FREE ENERGY PREDICTED BY IDOCK:   -3.63 KCAL/MOL
REMARK 922        TOTAL FREE ENERGY PREDICTED BY IDOCK:   -5.14 KCAL/MOL
REMARK 923 INTER-LIGAND FREE ENERGY PREDICTED BY IDOCK:   -4.48 KCAL/MOL
REMARK 924 INTRA-LIGAND FREE ENERGY PREDICTED BY IDOCK:   -0.66 KCAL/MOL
REMARK 927      BINDING AFFINITY PREDICTED BY RF-SCORE:    0.00 PKD
ROOT
HETATM    1  N   UNL     1      -9.308  12.587  65.594  1.00  0.00    -0.449 NA 
HETATM    2  H1  UNL     1      -9.216  12.976  66.533  1.00  0.00     0.000 HD 
HETATM    3  CA  UNL     1     -10.344  11.516  65.553  1.00  0.00    -0.273 C  
HETATM    4  H2  UNL     1      -9.494  13.315  64.904  1.00  0.00     0.000 HD 
ENDROOT
BRANCH   3   5
HETATM    5  C   UNL     1     -10.482  10.930  64.141  1.00  0.00    -0.327 C  
HETATM    6  H   UNL     1      -9.423   9.767  62.960  1.00  0.00     0.000 HD 
HETATM    7  O   UNL     1      -9.337  10.129  63.834  1.00  0.00    -0.257 OA 
ENDBRANCH   3   5
BRANCH   3   8
HETATM    8  C   UNL     1     -10.021  10.416  66.568  1.00  0.00    -0.217 C  
HETATM    9  O   UNL     1     -10.809   9.530  66.896  1.00  0.00    -0.161 OA 
HETATM   10  H   UNL     1      -8.140  11.304  66.836  1.00  0.00     0.000 HD 
HETATM   11  N   UNL     1      -8.760  10.552  67.136  1.00  0.00    -0.130 N  
BRANCH  11  12
HETATM   12  N   UNL     1      -8.342   9.644  68.130  1.00  0.00    -0.117 NA 
HETATM   13  H   UNL     1      -7.352   9.416  68.036  1.00  0.00     0.000 HD 
BRANCH  12  14
HETATM   14  C   UNL     1      -8.656  10.144  69.480  1.00  0.00    -0.164 C  
BRANCH  14  15
HETATM   15  C   UNL     1      -9.643   9.251  70.202  1.00  0.00    -0.254 A  
HETATM   16  C   UNL     1      -9.360   7.932  70.585  1.00  0.00    -0.158 A  
HETATM   17  O   UNL     1      -8.148   7.325  70.354  1.00  0.00    -0.112 OA 
HETATM   18  C   UNL     1     -10.317   7.162  71.241  1.00  0.00    -0.198 A  
HETATM   19  H   UNL     1      -7.956   6.431  70.613  1.00  0.00     0.000 HD 
HETATM   20  C   UNL     1     -11.576   7.677  71.504  1.00  0.00    -0.274 A  
HETATM   21  O   UNL     1     -10.019   5.887  71.644  1.00  0.00    -0.170 OA 
HETATM   22  H   UNL     1     -10.672   5.362  72.092  1.00  0.00     0.000 HD 
HETATM   23  C   UNL     1     -11.900   8.965  71.111  1.00  0.00    -0.353 A  
HETATM   24  O   UNL     1     -12.506   6.914  72.151  1.00  0.00    -0.483 OA 
HETATM   25  H   UNL     1     -13.370   7.267  72.333  1.00  0.00     0.000 HD 
HETATM   26  C   UNL     1     -10.938   9.748  70.459  1.00  0.00    -0.384 A  
ENDBRANCH  14  15
ENDBRANCH  12  14
ENDBRANCH  11  12
ENDBRANCH   3   8
TORSDOF 5
ENDMDL
MODEL      230
REMARK 921   NORMALIZED FREE ENERGY PREDICTED BY IDOCK:   -3.63 KCAL/MOL
REMARK 922        TOTAL FREE ENERGY PREDICTED BY IDOCK:   -5.14 KCAL/MOL
REMARK 923 INTER-LIGAND FREE ENERGY PREDICTED BY IDOCK:   -4.67 KCAL/MOL
REMARK 924 INTRA-LIGAND FREE ENERGY PREDICTED BY IDOCK:   -0.47 KCAL/MOL
REMARK 927      BINDING AFFINITY PREDICTED BY RF-SCORE:    0.00 PKD
ROOT
HETATM    1  N   UNL     1      -8.267  11.148  65.258  1.00  0.00    -0.367 NA 
HETATM    2  H1  UNL     1      -8.998  11.859  65.217  1.00  0.00     0.000 HD 
HETATM    3  CA  UNL     1      -8.839   9.802  65.548  1.00  0.00    -0.163 C  
HETATM    4  H2  UNL     1      -7.704  11.140  64.408  1.00  0.00     0.000 HD 
ENDROOT
BRANCH   3   5
HETATM    5  C   UNL     1      -7.741   8.733  65.610  1.00  0.00    -0.091 C  
HETATM    6  H   UNL     1      -7.654   6.772  65.748  1.00  0.00     0.000 HD 
HETATM    7  O   UNL     1      -8.334   7.434  65.710  1.00  0.00    -0.128 OA 
ENDBRANCH   3   5
BRANCH   3   8
HETATM    8  C   UNL     1      -9.645   9.829  66.850  1.00  0.00    -0.180 C  
HETATM    9  O   UNL     1     -10.857   9.629  66.913  1.00  0.00    -0.167 OA 
HETATM   10  H   UNL     1      -7.877  10.329  67.860  1.00  0.00     0.000 HD 
HETATM   11  N   UNL     1      -8.879  10.168  67.959  1.00  0.00    -0.125 N  
BRANCH  11  12
HETATM   12  N   UNL     1      -9.495  10.288  69.221  1.00  0.00    -0.209 NA 
HETATM   13  H   UNL     1     -10.491  10.076  69.172  1.00  0.00     0.000 HD 
BRANCH  12  14
HETATM   14  C   UNL     1      -8.814   9.457  70.231  1.00  0.00    -0.236 C  
BRANCH  14  15
HETATM   15  C   UNL     1      -9.763   8.490  70.905  1.00  0.00    -0.231 A  
HETATM   16  C   UNL     1      -9.725   8.194  72.275  1.00  0.00    -0.254 A  
HETATM   17  O   UNL     1      -8.827   8.767  73.145  1.00  0.00    -0.310 OA 
HETATM   18  C   UNL     1     -10.624   7.288  72.832  1.00  0.00    -0.301 A  
HETATM   19  H   UNL     1      -8.801   8.567  74.073  1.00  0.00     0.000 HD 
HETATM   20  C   UNL     1     -11.558   6.643  72.036  1.00  0.00    -0.301 A  
HETATM   21  O   UNL     1     -10.604   7.033  74.178  1.00  0.00    -0.450 OA 
HETATM   22  H   UNL     1     -11.218   6.415  74.558  1.00  0.00     0.000 HD 
HETATM   23  C   UNL     1     -11.602   6.887  70.674  1.00  0.00    -0.402 A  
HETATM   24  O   UNL     1     -12.438   5.759  72.593  1.00  0.00    -0.511 OA 
HETATM   25  H   UNL     1     -13.078   5.317  72.048  1.00  0.00     0.000 HD 
HETATM   26  C   UNL     1     -10.706   7.805  70.110  1.00  0.00    -0.242 A  
ENDBRANCH  14  15
ENDBRANCH  12  14
ENDBRANCH  11  12
ENDBRANCH   3   8
TORSDOF 5
ENDMDL
MODEL      231
REMARK 921   NORMALIZED FREE ENERGY PREDICTED BY IDOCK:   -3.62 KCAL/MOL
REMARK 922        TOTAL FREE ENERGY PREDICTED BY IDOCK:   -5.13 KCAL/MOL
REMARK 923 INTER-LIGAND FREE ENERGY PREDICTED BY IDOCK:   -4.66 KCAL/MOL
REMARK 924 INTRA-LIGAND FREE ENERGY PREDICTED BY IDOCK:   -0.47 KCAL/MOL
REMARK 927      BINDING AFFINITY PREDICTED BY RF-SCORE:    0.00 PKD
ROOT
HETATM    1  N   UNL     1      -9.806   7.123  69.780  1.00  0.00    -0.172 NA 
HETATM    2  H1  UNL     1     -10.444   7.313  70.553  1.00  0.00     0.000 HD 
HETATM    3  CA  UNL     1      -8.907   8.284  69.522  1.00  0.00    -0.149 C  
HETATM    4  H2  UNL     1      -9.275   6.265  69.935  1.00  0.00     0.000 HD 
ENDROOT
BRANCH   3   5
HETATM    5  C   UNL     1      -7.948   7.998  68.360  1.00  0.00    -0.120 C  
HETATM    6  H   UNL     1      -6.318   8.807  67.613  1.00  0.00     0.000 HD 
HETATM    7  O   UNL     1      -6.911   8.984  68.333  1.00  0.00    -0.067 OA 
ENDBRANCH   3   5
BRANCH   3   8
HETATM    8  C   UNL     1      -9.727   9.549  69.252  1.00  0.00    -0.176 C  
HETATM    9  O   UNL     1      -9.717  10.543  69.977  1.00  0.00     0.001 OA 
HETATM   10  H   UNL     1     -10.518   8.597  67.559  1.00  0.00     0.000 HD 
HETATM   11  N   UNL     1     -10.540   9.442  68.130  1.00  0.00    -0.225 N  
BRANCH  11  12
HETATM   12  N   UNL     1     -11.395  10.508  67.785  1.00  0.00    -0.526 NA 
HETATM   13  H   UNL     1     -11.391  11.237  68.499  1.00  0.00     0.000 HD 
BRANCH  12  14
HETATM   14  C   UNL     1     -11.066  11.052  66.455  1.00  0.00    -0.106 C  
BRANCH  14  15
HETATM   15  C   UNL     1     -10.972  12.563  66.466  1.00  0.00    -0.303 A  
HETATM   16  C   UNL     1     -11.110  13.356  65.318  1.00  0.00    -0.291 A  
HETATM   17  O   UNL     1     -11.359  12.838  64.069  1.00  0.00    -0.360 OA 
HETATM   18  C   UNL     1     -11.005  14.743  65.397  1.00  0.00    -0.359 A  
HETATM   19  H   UNL     1     -11.453  13.375  63.292  1.00  0.00     0.000 HD 
HETATM   20  C   UNL     1     -10.738  15.362  66.607  1.00  0.00    -0.309 A  
HETATM   21  O   UNL     1     -11.178  15.513  64.277  1.00  0.00    -0.713 OA 
HETATM   22  H   UNL     1     -11.107  16.459  64.330  1.00  0.00     0.000 HD 
HETATM   23  C   UNL     1     -10.564  14.606  67.755  1.00  0.00    -0.251 A  
HETATM   24  O   UNL     1     -10.641  16.723  66.674  1.00  0.00    -0.286 OA 
HETATM   25  H   UNL     1     -10.458  17.148  67.504  1.00  0.00     0.000 HD 
HETATM   26  C   UNL     1     -10.678  13.211  67.684  1.00  0.00    -0.250 A  
ENDBRANCH  14  15
ENDBRANCH  12  14
ENDBRANCH  11  12
ENDBRANCH   3   8
TORSDOF 5
ENDMDL
MODEL      232
REMARK 921   NORMALIZED FREE ENERGY PREDICTED BY IDOCK:   -3.62 KCAL/MOL
REMARK 922        TOTAL FREE ENERGY PREDICTED BY IDOCK:   -5.13 KCAL/MOL
REMARK 923 INTER-LIGAND FREE ENERGY PREDICTED BY IDOCK:   -5.02 KCAL/MOL
REMARK 924 INTRA-LIGAND FREE ENERGY PREDICTED BY IDOCK:   -0.11 KCAL/MOL
REMARK 927      BINDING AFFINITY PREDICTED BY RF-SCORE:    0.00 PKD
ROOT
HETATM    1  N   UNL     1      -9.495  14.132  66.142  1.00  0.00    -0.467 NA 
HETATM    2  H1  UNL     1      -9.124  13.212  65.904  1.00  0.00     0.000 HD 
HETATM    3  CA  UNL     1     -10.219  14.101  67.445  1.00  0.00    -0.244 C  
HETATM    4  H2  UNL     1      -8.764  14.844  66.137  1.00  0.00     0.000 HD 
ENDROOT
BRANCH   3   5
HETATM    5  C   UNL     1     -10.777  15.484  67.804  1.00  0.00    -0.297 C  
HETATM    6  H   UNL     1     -10.798  16.656  69.383  1.00  0.00     0.000 HD 
HETATM    7  O   UNL     1     -10.453  15.801  69.161  1.00  0.00    -0.213 OA 
ENDBRANCH   3   5
BRANCH   3   8
HETATM    8  C   UNL     1     -11.337  13.055  67.413  1.00  0.00    -0.305 C  
HETATM    9  O   UNL     1     -12.099  12.891  66.461  1.00  0.00    -0.403 OA 
HETATM   10  H   UNL     1     -10.800  12.515  69.367  1.00  0.00     0.000 HD 
HETATM   11  N   UNL     1     -11.452  12.343  68.602  1.00  0.00    -0.278 N  
BRANCH  11  12
HETATM   12  N   UNL     1     -12.473  11.383  68.743  1.00  0.00    -0.323 NA 
HETATM   13  H   UNL     1     -12.359  10.616  68.081  1.00  0.00     0.000 HD 
BRANCH  12  14
HETATM   14  C   UNL     1     -12.560  10.891  70.130  1.00  0.00    -0.234 C  
BRANCH  14  15
HETATM   15  C   UNL     1     -11.671   9.688  70.364  1.00  0.00    -0.266 A  
HETATM   16  C   UNL     1     -12.158   8.424  70.726  1.00  0.00    -0.055 A  
HETATM   17  O   UNL     1     -13.495   8.150  70.891  1.00  0.00    -0.515 OA 
HETATM   18  C   UNL     1     -11.284   7.359  70.932  1.00  0.00    -0.270 A  
HETATM   19  H   UNL     1     -13.825   7.294  71.136  1.00  0.00     0.000 HD 
HETATM   20  C   UNL     1      -9.915   7.536  70.808  1.00  0.00    -0.182 A  
HETATM   21  O   UNL     1     -11.770   6.118  71.250  1.00  0.00    -0.278 OA 
HETATM   22  H   UNL     1     -11.174   5.391  71.390  1.00  0.00     0.000 HD 
HETATM   23  C   UNL     1      -9.399   8.780  70.484  1.00  0.00    -0.219 A  
HETATM   24  O   UNL     1      -9.067   6.485  71.009  1.00  0.00    -0.149 OA 
HETATM   25  H   UNL     1      -8.129   6.606  70.924  1.00  0.00     0.000 HD 
HETATM   26  C   UNL     1     -10.274   9.852  70.265  1.00  0.00    -0.322 A  
ENDBRANCH  14  15
ENDBRANCH  12  14
ENDBRANCH  11  12
ENDBRANCH   3   8
TORSDOF 5
ENDMDL
MODEL      233
REMARK 921   NORMALIZED FREE ENERGY PREDICTED BY IDOCK:   -3.62 KCAL/MOL
REMARK 922        TOTAL FREE ENERGY PREDICTED BY IDOCK:   -5.13 KCAL/MOL
REMARK 923 INTER-LIGAND FREE ENERGY PREDICTED BY IDOCK:   -4.89 KCAL/MOL
REMARK 924 INTRA-LIGAND FREE ENERGY PREDICTED BY IDOCK:   -0.24 KCAL/MOL
REMARK 927      BINDING AFFINITY PREDICTED BY RF-SCORE:    0.00 PKD
ROOT
HETATM    1  N   UNL     1     -12.585  13.294  63.545  1.00  0.00    -0.724 NA 
HETATM    2  H1  UNL     1     -12.247  12.332  63.519  1.00  0.00     0.000 HD 
HETATM    3  CA  UNL     1     -11.758  14.134  64.457  1.00  0.00    -0.413 C  
HETATM    4  H2  UNL     1     -12.638  13.697  62.609  1.00  0.00     0.000 HD 
ENDROOT
BRANCH   3   5
HETATM    5  C   UNL     1     -12.266  15.581  64.495  1.00  0.00    -0.055 C  
HETATM    6  H   UNL     1     -11.812  17.284  63.621  1.00  0.00     0.000 HD 
HETATM    7  O   UNL     1     -11.497  16.388  63.597  1.00  0.00    -0.858 OA 
ENDBRANCH   3   5
BRANCH   3   8
HETATM    8  C   UNL     1     -11.728  13.531  65.864  1.00  0.00    -0.352 C  
HETATM    9  O   UNL     1     -12.502  13.851  66.765  1.00  0.00    -0.381 OA 
HETATM   10  H   UNL     1     -10.072  12.389  65.271  1.00  0.00     0.000 HD 
HETATM   11  N   UNL     1     -10.693  12.622  66.047  1.00  0.00    -0.264 N  
BRANCH  11  12
HETATM   12  N   UNL     1     -10.505  12.025  67.309  1.00  0.00    -0.215 NA 
HETATM   13  H   UNL     1     -11.226  12.312  67.970  1.00  0.00     0.000 HD 
BRANCH  12  14
HETATM   14  C   UNL     1     -10.423  10.557  67.202  1.00  0.00    -0.249 C  
BRANCH  14  15
HETATM   15  C   UNL     1      -9.729   9.937  68.396  1.00  0.00    -0.161 A  
HETATM   16  C   UNL     1      -8.409   9.466  68.367  1.00  0.00    -0.119 A  
HETATM   17  O   UNL     1      -7.610   9.533  67.250  1.00  0.00    -0.091 OA 
HETATM   18  C   UNL     1      -7.832   8.899  69.501  1.00  0.00    -0.094 A  
HETATM   19  H   UNL     1      -6.715   9.214  67.230  1.00  0.00     0.000 HD 
HETATM   20  C   UNL     1      -8.561   8.769  70.672  1.00  0.00    -0.178 A  
HETATM   21  O   UNL     1      -6.529   8.475  69.474  1.00  0.00    -0.039 OA 
HETATM   22  H   UNL     1      -6.135   8.089  70.248  1.00  0.00     0.000 HD 
HETATM   23  C   UNL     1      -9.877   9.195  70.726  1.00  0.00    -0.334 A  
HETATM   24  O   UNL     1      -7.984   8.215  71.780  1.00  0.00    -0.101 OA 
HETATM   25  H   UNL     1      -8.483   8.126  72.583  1.00  0.00     0.000 HD 
HETATM   26  C   UNL     1     -10.460   9.774  69.591  1.00  0.00    -0.263 A  
ENDBRANCH  14  15
ENDBRANCH  12  14
ENDBRANCH  11  12
ENDBRANCH   3   8
TORSDOF 5
ENDMDL
MODEL      234
REMARK 921   NORMALIZED FREE ENERGY PREDICTED BY IDOCK:   -3.62 KCAL/MOL
REMARK 922        TOTAL FREE ENERGY PREDICTED BY IDOCK:   -5.13 KCAL/MOL
REMARK 923 INTER-LIGAND FREE ENERGY PREDICTED BY IDOCK:   -4.51 KCAL/MOL
REMARK 924 INTRA-LIGAND FREE ENERGY PREDICTED BY IDOCK:   -0.62 KCAL/MOL
REMARK 927      BINDING AFFINITY PREDICTED BY RF-SCORE:    0.00 PKD
ROOT
HETATM    1  N   UNL     1      -9.131  11.910  65.591  1.00  0.00    -0.422 NA 
HETATM    2  H1  UNL     1     -10.150  11.962  65.572  1.00  0.00     0.000 HD 
HETATM    3  CA  UNL     1      -8.645  11.295  66.859  1.00  0.00    -0.150 C  
HETATM    4  H2  UNL     1      -8.766  11.422  64.773  1.00  0.00     0.000 HD 
ENDROOT
BRANCH   3   5
HETATM    5  C   UNL     1      -7.113  11.217  66.887  1.00  0.00    -0.139 C  
HETATM    6  H   UNL     1      -5.694  10.464  65.753  1.00  0.00     0.000 HD 
HETATM    7  O   UNL     1      -6.642  10.512  65.735  1.00  0.00    -0.118 OA 
ENDBRANCH   3   5
BRANCH   3   8
HETATM    8  C   UNL     1      -9.172  12.070  68.069  1.00  0.00    -0.192 C  
HETATM    9  O   UNL     1      -9.824  11.562  68.981  1.00  0.00    -0.127 OA 
HETATM   10  H   UNL     1      -8.353  13.810  67.232  1.00  0.00     0.000 HD 
HETATM   11  N   UNL     1      -8.895  13.431  68.009  1.00  0.00    -0.175 N  
BRANCH  11  12
HETATM   12  N   UNL     1      -9.366  14.284  69.027  1.00  0.00    -0.396 NA 
HETATM   13  H   UNL     1      -9.667  13.757  69.846  1.00  0.00     0.000 HD 
BRANCH  12  14
HETATM   14  C   UNL     1      -8.362  15.304  69.380  1.00  0.00    -0.232 C  
BRANCH  14  15
HETATM   15  C   UNL     1      -8.111  16.272  68.242  1.00  0.00    -0.167 A  
HETATM   16  C   UNL     1      -9.134  16.927  67.542  1.00  0.00    -0.222 A  
HETATM   17  O   UNL     1     -10.469  16.764  67.831  1.00  0.00    -0.309 OA 
HETATM   18  C   UNL     1      -8.835  17.801  66.500  1.00  0.00    -0.262 A  
HETATM   19  H   UNL     1     -11.162  17.208  67.357  1.00  0.00     0.000 HD 
HETATM   20  C   UNL     1      -7.520  18.019  66.120  1.00  0.00    -0.270 A  
HETATM   21  O   UNL     1      -9.838  18.465  65.845  1.00  0.00    -0.517 OA 
HETATM   22  H   UNL     1      -9.633  19.062  65.134  1.00  0.00     0.000 HD 
HETATM   23  C   UNL     1      -6.487  17.363  66.769  1.00  0.00    -0.239 A  
HETATM   24  O   UNL     1      -7.237  18.881  65.099  1.00  0.00    -0.418 OA 
HETATM   25  H   UNL     1      -6.336  19.031  64.838  1.00  0.00     0.000 HD 
HETATM   26  C   UNL     1      -6.782  16.491  67.824  1.00  0.00    -0.158 A  
ENDBRANCH  14  15
ENDBRANCH  12  14
ENDBRANCH  11  12
ENDBRANCH   3   8
TORSDOF 5
ENDMDL
MODEL      235
REMARK 921   NORMALIZED FREE ENERGY PREDICTED BY IDOCK:   -3.62 KCAL/MOL
REMARK 922        TOTAL FREE ENERGY PREDICTED BY IDOCK:   -5.13 KCAL/MOL
REMARK 923 INTER-LIGAND FREE ENERGY PREDICTED BY IDOCK:   -4.94 KCAL/MOL
REMARK 924 INTRA-LIGAND FREE ENERGY PREDICTED BY IDOCK:   -0.19 KCAL/MOL
REMARK 927      BINDING AFFINITY PREDICTED BY RF-SCORE:    0.00 PKD
ROOT
HETATM    1  N   UNL     1     -11.329   6.847  67.328  1.00  0.00    -0.704 NA 
HETATM    2  H1  UNL     1     -12.342   6.855  67.456  1.00  0.00     0.000 HD 
HETATM    3  CA  UNL     1     -10.697   5.740  68.100  1.00  0.00    -0.209 C  
HETATM    4  H2  UNL     1     -11.076   6.808  66.340  1.00  0.00     0.000 HD 
ENDROOT
BRANCH   3   5
HETATM    5  C   UNL     1      -9.175   5.727  67.908  1.00  0.00    -0.108 C  
HETATM    6  H   UNL     1      -7.873   6.584  66.709  1.00  0.00     0.000 HD 
HETATM    7  O   UNL     1      -8.814   6.592  66.827  1.00  0.00    -0.122 OA 
ENDBRANCH   3   5
BRANCH   3   8
HETATM    8  C   UNL     1     -11.057   5.845  69.584  1.00  0.00    -0.343 C  
HETATM    9  O   UNL     1     -10.708   5.028  70.436  1.00  0.00    -0.168 OA 
HETATM   10  H   UNL     1     -12.145   7.579  69.132  1.00  0.00     0.000 HD 
HETATM   11  N   UNL     1     -11.878   6.929  69.871  1.00  0.00    -0.157 N  
BRANCH  11  12
HETATM   12  N   UNL     1     -12.338   7.125  71.188  1.00  0.00    -0.387 NA 
HETATM   13  H   UNL     1     -12.149   6.313  71.775  1.00  0.00     0.000 HD 
BRANCH  12  14
HETATM   14  C   UNL     1     -11.779   8.357  71.775  1.00  0.00    -0.310 C  
BRANCH  14  15
HETATM   15  C   UNL     1     -11.219   9.286  70.719  1.00  0.00    -0.351 A  
HETATM   16  C   UNL     1     -12.018  10.025  69.834  1.00  0.00    -0.016 A  
HETATM   17  O   UNL     1     -13.393   9.987  69.850  1.00  0.00    -0.305 OA 
HETATM   18  C   UNL     1     -11.438  10.857  68.880  1.00  0.00    -0.300 A  
HETATM   19  H   UNL     1     -13.934  10.488  69.251  1.00  0.00     0.000 HD 
HETATM   20  C   UNL     1     -10.060  10.951  68.771  1.00  0.00    -0.194 A  
HETATM   21  O   UNL     1     -12.226  11.604  68.045  1.00  0.00    -0.551 OA 
HETATM   22  H   UNL     1     -11.831  12.173  67.394  1.00  0.00     0.000 HD 
HETATM   23  C   UNL     1      -9.242  10.210  69.607  1.00  0.00    -0.206 A  
HETATM   24  O   UNL     1      -9.502  11.774  67.835  1.00  0.00    -0.178 OA 
HETATM   25  H   UNL     1      -8.557  11.838  67.760  1.00  0.00     0.000 HD 
HETATM   26  C   UNL     1      -9.819   9.379  70.576  1.00  0.00    -0.331 A  
ENDBRANCH  14  15
ENDBRANCH  12  14
ENDBRANCH  11  12
ENDBRANCH   3   8
TORSDOF 5
ENDMDL
MODEL      236
REMARK 921   NORMALIZED FREE ENERGY PREDICTED BY IDOCK:   -3.61 KCAL/MOL
REMARK 922        TOTAL FREE ENERGY PREDICTED BY IDOCK:   -5.11 KCAL/MOL
REMARK 923 INTER-LIGAND FREE ENERGY PREDICTED BY IDOCK:   -4.83 KCAL/MOL
REMARK 924 INTRA-LIGAND FREE ENERGY PREDICTED BY IDOCK:   -0.28 KCAL/MOL
REMARK 927      BINDING AFFINITY PREDICTED BY RF-SCORE:    0.00 PKD
ROOT
HETATM    1  N   UNL     1     -10.674  11.492  63.010  1.00  0.00    -0.722 NA 
HETATM    2  H1  UNL     1      -9.702  11.205  62.886  1.00  0.00     0.000 HD 
HETATM    3  CA  UNL     1     -10.908  12.028  64.381  1.00  0.00    -0.329 C  
HETATM    4  H2  UNL     1     -10.961  12.159  62.292  1.00  0.00     0.000 HD 
ENDROOT
BRANCH   3   5
HETATM    5  C   UNL     1     -12.368  12.461  64.566  1.00  0.00    -0.438 C  
HETATM    6  H   UNL     1     -13.933  12.761  63.413  1.00  0.00     0.000 HD 
HETATM    7  O   UNL     1     -13.030  12.493  63.298  1.00  0.00    -0.634 OA 
ENDBRANCH   3   5
BRANCH   3   8
HETATM    8  C   UNL     1     -10.509  10.995  65.438  1.00  0.00    -0.241 C  
HETATM    9  O   UNL     1      -9.797  10.018  65.210  1.00  0.00    -0.291 OA 
HETATM   10  H   UNL     1     -11.674  12.056  66.822  1.00  0.00     0.000 HD 
HETATM   11  N   UNL     1     -11.086  11.234  66.679  1.00  0.00    -0.273 N  
BRANCH  11  12
HETATM   12  N   UNL     1     -10.855  10.335  67.740  1.00  0.00    -0.273 NA 
HETATM   13  H   UNL     1     -11.066   9.375  67.469  1.00  0.00     0.000 HD 
BRANCH  12  14
HETATM   14  C   UNL     1      -9.482  10.461  68.261  1.00  0.00    -0.148 C  
BRANCH  14  15
HETATM   15  C   UNL     1      -9.182   9.429  69.327  1.00  0.00    -0.159 A  
HETATM   16  C   UNL     1     -10.054   9.129  70.383  1.00  0.00    -0.218 A  
HETATM   17  O   UNL     1     -11.277   9.735  70.546  1.00  0.00    -0.267 OA 
HETATM   18  C   UNL     1      -9.713   8.171  71.335  1.00  0.00    -0.171 A  
HETATM   19  H   UNL     1     -11.868   9.532  71.261  1.00  0.00     0.000 HD 
HETATM   20  C   UNL     1      -8.494   7.515  71.270  1.00  0.00    -0.116 A  
HETATM   21  O   UNL     1     -10.587   7.857  72.342  1.00  0.00    -0.249 OA 
HETATM   22  H   UNL     1     -10.354   7.203  72.992  1.00  0.00     0.000 HD 
HETATM   23  C   UNL     1      -7.595   7.811  70.258  1.00  0.00    -0.087 A  
HETATM   24  O   UNL     1      -8.171   6.575  72.207  1.00  0.00    -0.106 OA 
HETATM   25  H   UNL     1      -7.335   6.125  72.162  1.00  0.00     0.000 HD 
HETATM   26  C   UNL     1      -7.937   8.767  69.292  1.00  0.00    -0.108 A  
ENDBRANCH  14  15
ENDBRANCH  12  14
ENDBRANCH  11  12
ENDBRANCH   3   8
TORSDOF 5
ENDMDL
MODEL      237
REMARK 921   NORMALIZED FREE ENERGY PREDICTED BY IDOCK:   -3.61 KCAL/MOL
REMARK 922        TOTAL FREE ENERGY PREDICTED BY IDOCK:   -5.11 KCAL/MOL
REMARK 923 INTER-LIGAND FREE ENERGY PREDICTED BY IDOCK:   -5.04 KCAL/MOL
REMARK 924 INTRA-LIGAND FREE ENERGY PREDICTED BY IDOCK:   -0.07 KCAL/MOL
REMARK 927      BINDING AFFINITY PREDICTED BY RF-SCORE:    0.00 PKD
ROOT
HETATM    1  N   UNL     1      -9.925  17.708  65.461  1.00  0.00    -0.421 NA 
HETATM    2  H1  UNL     1     -10.183  16.830  65.009  1.00  0.00     0.000 HD 
HETATM    3  CA  UNL     1      -8.530  17.656  65.985  1.00  0.00    -0.043 C  
HETATM    4  H2  UNL     1     -10.061  18.504  64.838  1.00  0.00     0.000 HD 
ENDROOT
BRANCH   3   5
HETATM    5  C   UNL     1      -8.141  18.975  66.664  1.00  0.00    -0.274 C  
HETATM    6  H   UNL     1      -9.071  20.442  67.587  1.00  0.00     0.000 HD 
HETATM    7  O   UNL     1      -9.312  19.625  67.167  1.00  0.00    -0.312 OA 
ENDBRANCH   3   5
BRANCH   3   8
HETATM    8  C   UNL     1      -8.361  16.478  66.949  1.00  0.00    -0.212 C  
HETATM    9  O   UNL     1      -7.769  16.550  68.025  1.00  0.00    -0.153 OA 
HETATM   10  H   UNL     1      -9.375  15.278  65.560  1.00  0.00     0.000 HD 
HETATM   11  N   UNL     1      -8.894  15.292  66.459  1.00  0.00    -0.296 N  
BRANCH  11  12
HETATM   12  N   UNL     1      -8.766  14.108  67.212  1.00  0.00    -0.208 NA 
HETATM   13  H   UNL     1      -8.373  14.292  68.135  1.00  0.00     0.000 HD 
BRANCH  12  14
HETATM   14  C   UNL     1     -10.050  13.389  67.306  1.00  0.00    -0.238 C  
BRANCH  14  15
HETATM   15  C   UNL     1     -10.950  13.970  68.376  1.00  0.00    -0.269 A  
HETATM   16  C   UNL     1     -11.418  13.238  69.477  1.00  0.00    -0.234 A  
HETATM   17  O   UNL     1     -11.092  11.920  69.698  1.00  0.00    -0.442 OA 
HETATM   18  C   UNL     1     -12.249  13.831  70.423  1.00  0.00    -0.363 A  
HETATM   19  H   UNL     1     -11.409  11.424  70.444  1.00  0.00     0.000 HD 
HETATM   20  C   UNL     1     -12.650  15.150  70.281  1.00  0.00    -0.326 A  
HETATM   21  O   UNL     1     -12.672  13.119  71.515  1.00  0.00    -0.338 OA 
HETATM   22  H   UNL     1     -13.239  13.524  72.161  1.00  0.00     0.000 HD 
HETATM   23  C   UNL     1     -12.233  15.893  69.189  1.00  0.00    -0.013 A  
HETATM   24  O   UNL     1     -13.462  15.724  71.217  1.00  0.00    -0.555 OA 
HETATM   25  H   UNL     1     -13.737  16.628  71.120  1.00  0.00     0.000 HD 
HETATM   26  C   UNL     1     -11.388  15.304  68.238  1.00  0.00    -0.344 A  
ENDBRANCH  14  15
ENDBRANCH  12  14
ENDBRANCH  11  12
ENDBRANCH   3   8
TORSDOF 5
ENDMDL
MODEL      238
REMARK 921   NORMALIZED FREE ENERGY PREDICTED BY IDOCK:   -3.60 KCAL/MOL
REMARK 922        TOTAL FREE ENERGY PREDICTED BY IDOCK:   -5.10 KCAL/MOL
REMARK 923 INTER-LIGAND FREE ENERGY PREDICTED BY IDOCK:   -4.79 KCAL/MOL
REMARK 924 INTRA-LIGAND FREE ENERGY PREDICTED BY IDOCK:   -0.31 KCAL/MOL
REMARK 927      BINDING AFFINITY PREDICTED BY RF-SCORE:    0.00 PKD
ROOT
HETATM    1  N   UNL     1      -5.619  11.716  69.357  1.00  0.00    -0.054 NA 
HETATM    2  H1  UNL     1      -5.863  11.265  70.240  1.00  0.00     0.000 HD 
HETATM    3  CA  UNL     1      -6.824  12.293  68.695  1.00  0.00    -0.087 C  
HETATM    4  H2  UNL     1      -4.889  12.417  69.483  1.00  0.00     0.000 HD 
ENDROOT
BRANCH   3   5
HETATM    5  C   UNL     1      -6.459  12.971  67.368  1.00  0.00    -0.098 C  
HETATM    6  H   UNL     1      -4.905  13.022  66.164  1.00  0.00     0.000 HD 
HETATM    7  O   UNL     1      -5.131  12.602  66.985  1.00  0.00    -0.330 OA 
ENDBRANCH   3   5
BRANCH   3   8
HETATM    8  C   UNL     1      -7.888  11.213  68.479  1.00  0.00    -0.136 C  
HETATM    9  O   UNL     1      -8.158  10.340  69.302  1.00  0.00    -0.131 OA 
HETATM   10  H   UNL     1      -8.225  12.017  66.572  1.00  0.00     0.000 HD 
HETATM   11  N   UNL     1      -8.482  11.277  67.224  1.00  0.00    -0.140 N  
BRANCH  11  12
HETATM   12  N   UNL     1      -9.443  10.313  66.859  1.00  0.00    -0.165 NA 
HETATM   13  H   UNL     1      -9.737   9.755  67.660  1.00  0.00     0.000 HD 
BRANCH  12  14
HETATM   14  C   UNL     1     -10.595  10.933  66.180  1.00  0.00    -0.206 C  
BRANCH  14  15
HETATM   15  C   UNL     1     -10.970  12.263  66.798  1.00  0.00    -0.321 A  
HETATM   16  C   UNL     1     -10.632  13.502  66.235  1.00  0.00    -0.288 A  
HETATM   17  O   UNL     1      -9.937  13.629  65.055  1.00  0.00    -0.549 OA 
HETATM   18  C   UNL     1     -11.003  14.691  66.859  1.00  0.00    -0.324 A  
HETATM   19  H   UNL     1      -9.708  14.468  64.673  1.00  0.00     0.000 HD 
HETATM   20  C   UNL     1     -11.692  14.670  68.061  1.00  0.00    -0.342 A  
HETATM   21  O   UNL     1     -10.702  15.897  66.283  1.00  0.00    -0.310 OA 
HETATM   22  H   UNL     1     -10.955  16.708  66.708  1.00  0.00     0.000 HD 
HETATM   23  C   UNL     1     -12.012  13.464  68.661  1.00  0.00    -0.362 A  
HETATM   24  O   UNL     1     -12.054  15.842  68.663  1.00  0.00    -0.533 OA 
HETATM   25  H   UNL     1     -12.526  15.828  69.488  1.00  0.00     0.000 HD 
HETATM   26  C   UNL     1     -11.651  12.265  68.033  1.00  0.00    -0.408 A  
ENDBRANCH  14  15
ENDBRANCH  12  14
ENDBRANCH  11  12
ENDBRANCH   3   8
TORSDOF 5
ENDMDL
MODEL      239
REMARK 921   NORMALIZED FREE ENERGY PREDICTED BY IDOCK:   -3.59 KCAL/MOL
REMARK 922        TOTAL FREE ENERGY PREDICTED BY IDOCK:   -5.09 KCAL/MOL
REMARK 923 INTER-LIGAND FREE ENERGY PREDICTED BY IDOCK:   -4.95 KCAL/MOL
REMARK 924 INTRA-LIGAND FREE ENERGY PREDICTED BY IDOCK:   -0.15 KCAL/MOL
REMARK 927      BINDING AFFINITY PREDICTED BY RF-SCORE:    0.00 PKD
ROOT
HETATM    1  N   UNL     1     -11.361   6.535  67.866  1.00  0.00    -0.637 NA 
HETATM    2  H1  UNL     1     -12.072   6.184  68.508  1.00  0.00     0.000 HD 
HETATM    3  CA  UNL     1     -10.368   5.475  67.528  1.00  0.00    -0.214 C  
HETATM    4  H2  UNL     1     -11.779   6.938  67.027  1.00  0.00     0.000 HD 
ENDROOT
BRANCH   3   5
HETATM    5  C   UNL     1      -9.299   6.002  66.563  1.00  0.00    -0.152 C  
HETATM    6  H   UNL     1      -8.568   5.486  64.811  1.00  0.00     0.000 HD 
HETATM    7  O   UNL     1      -9.230   5.160  65.408  1.00  0.00    -0.159 OA 
ENDBRANCH   3   5
BRANCH   3   8
HETATM    8  C   UNL     1      -9.724   4.917  68.800  1.00  0.00    -0.165 C  
HETATM    9  O   UNL     1      -8.722   4.204  68.807  1.00  0.00    -0.089 OA 
HETATM   10  H   UNL     1     -11.253   5.836  69.902  1.00  0.00     0.000 HD 
HETATM   11  N   UNL     1     -10.424   5.244  69.955  1.00  0.00    -0.300 N  
BRANCH  11  12
HETATM   12  N   UNL     1      -9.983   4.754  71.200  1.00  0.00    -0.196 NA 
HETATM   13  H   UNL     1      -9.044   4.361  71.136  1.00  0.00     0.000 HD 
BRANCH  12  14
HETATM   14  C   UNL     1     -10.064   5.791  72.245  1.00  0.00    -0.184 C  
BRANCH  14  15
HETATM   15  C   UNL     1     -10.939   6.953  71.825  1.00  0.00    -0.259 A  
HETATM   16  C   UNL     1     -10.435   8.212  71.467  1.00  0.00    -0.221 A  
HETATM   17  O   UNL     1      -9.093   8.509  71.448  1.00  0.00    -0.166 OA 
HETATM   18  C   UNL     1     -11.296   9.242  71.097  1.00  0.00    -0.342 A  
HETATM   19  H   UNL     1      -8.752   9.362  71.205  1.00  0.00     0.000 HD 
HETATM   20  C   UNL     1     -12.669   9.049  71.100  1.00  0.00    -0.192 A  
HETATM   21  O   UNL     1     -10.795  10.457  70.712  1.00  0.00    -0.393 OA 
HETATM   22  H   UNL     1     -11.382  11.160  70.459  1.00  0.00     0.000 HD 
HETATM   23  C   UNL     1     -13.201   7.828  71.480  1.00  0.00    -0.356 A  
HETATM   24  O   UNL     1     -13.504  10.064  70.732  1.00  0.00    -0.553 OA 
HETATM   25  H   UNL     1     -14.445   9.932  70.734  1.00  0.00     0.000 HD 
HETATM   26  C   UNL     1     -12.339   6.785  71.844  1.00  0.00    -0.369 A  
ENDBRANCH  14  15
ENDBRANCH  12  14
ENDBRANCH  11  12
ENDBRANCH   3   8
TORSDOF 5
ENDMDL
MODEL      240
REMARK 921   NORMALIZED FREE ENERGY PREDICTED BY IDOCK:   -3.59 KCAL/MOL
REMARK 922        TOTAL FREE ENERGY PREDICTED BY IDOCK:   -5.09 KCAL/MOL
REMARK 923 INTER-LIGAND FREE ENERGY PREDICTED BY IDOCK:   -4.59 KCAL/MOL
REMARK 924 INTRA-LIGAND FREE ENERGY PREDICTED BY IDOCK:   -0.50 KCAL/MOL
REMARK 927      BINDING AFFINITY PREDICTED BY RF-SCORE:    0.00 PKD
ROOT
HETATM    1  N   UNL     1     -12.887  13.863  65.652  1.00  0.00    -0.601 NA 
HETATM    2  H1  UNL     1     -13.494  13.183  66.110  1.00  0.00     0.000 HD 
HETATM    3  CA  UNL     1     -11.579  13.254  65.278  1.00  0.00    -0.310 C  
HETATM    4  H2  UNL     1     -13.345  14.291  64.847  1.00  0.00     0.000 HD 
ENDROOT
BRANCH   3   5
HETATM    5  C   UNL     1     -10.666  14.276  64.588  1.00  0.00    -0.365 C  
HETATM    6  H   UNL     1     -10.397  16.224  64.641  1.00  0.00     0.000 HD 
HETATM    7  O   UNL     1     -10.962  15.591  65.068  1.00  0.00    -0.402 OA 
ENDBRANCH   3   5
BRANCH   3   8
HETATM    8  C   UNL     1     -10.892  12.656  66.509  1.00  0.00    -0.258 C  
HETATM    9  O   UNL     1      -9.679  12.699  66.709  1.00  0.00    -0.227 OA 
HETATM   10  H   UNL     1     -12.772  11.984  67.152  1.00  0.00     0.000 HD 
HETATM   11  N   UNL     1     -11.773  11.997  67.359  1.00  0.00    -0.316 N  
BRANCH  11  12
HETATM   12  N   UNL     1     -11.279  11.348  68.508  1.00  0.00    -0.226 NA 
HETATM   13  H   UNL     1     -11.949  11.386  69.276  1.00  0.00     0.000 HD 
BRANCH  12  14
HETATM   14  C   UNL     1     -10.877   9.961  68.210  1.00  0.00    -0.230 C  
BRANCH  14  15
HETATM   15  C   UNL     1      -9.740   9.496  69.095  1.00  0.00    -0.178 A  
HETATM   16  C   UNL     1      -9.817   9.448  70.494  1.00  0.00    -0.270 A  
HETATM   17  O   UNL     1     -10.942   9.807  71.200  1.00  0.00    -0.348 OA 
HETATM   18  C   UNL     1      -8.730   9.016  71.251  1.00  0.00    -0.171 A  
HETATM   19  H   UNL     1     -10.994   9.774  72.148  1.00  0.00     0.000 HD 
HETATM   20  C   UNL     1      -7.544   8.650  70.635  1.00  0.00    -0.080 A  
HETATM   21  O   UNL     1      -8.826   8.937  72.615  1.00  0.00    -0.358 OA 
HETATM   22  H   UNL     1      -8.085   8.642  73.131  1.00  0.00     0.000 HD 
HETATM   23  C   UNL     1      -7.423   8.716  69.257  1.00  0.00    -0.082 A  
HETATM   24  O   UNL     1      -6.486   8.224  71.386  1.00  0.00    -0.039 OA 
HETATM   25  H   UNL     1      -5.673   7.972  70.964  1.00  0.00     0.000 HD 
HETATM   26  C   UNL     1      -8.517   9.141  68.490  1.00  0.00    -0.128 A  
ENDBRANCH  14  15
ENDBRANCH  12  14
ENDBRANCH  11  12
ENDBRANCH   3   8
TORSDOF 5
ENDMDL
MODEL      241
REMARK 921   NORMALIZED FREE ENERGY PREDICTED BY IDOCK:   -3.58 KCAL/MOL
REMARK 922        TOTAL FREE ENERGY PREDICTED BY IDOCK:   -5.08 KCAL/MOL
REMARK 923 INTER-LIGAND FREE ENERGY PREDICTED BY IDOCK:   -4.51 KCAL/MOL
REMARK 924 INTRA-LIGAND FREE ENERGY PREDICTED BY IDOCK:   -0.57 KCAL/MOL
REMARK 927      BINDING AFFINITY PREDICTED BY RF-SCORE:    0.00 PKD
ROOT
HETATM    1  N   UNL     1      -7.224   5.920  65.549  1.00  0.00    -0.072 NA 
HETATM    2  H1  UNL     1      -7.239   6.915  65.773  1.00  0.00     0.000 HD 
HETATM    3  CA  UNL     1      -8.604   5.360  65.477  1.00  0.00    -0.148 C  
HETATM    4  H2  UNL     1      -6.700   5.737  64.692  1.00  0.00     0.000 HD 
ENDROOT
BRANCH   3   5
HETATM    5  C   UNL     1      -8.581   3.864  65.139  1.00  0.00    -0.114 C  
HETATM    6  H   UNL     1      -9.858   2.524  64.473  1.00  0.00     0.000 HD 
HETATM    7  O   UNL     1      -9.872   3.450  64.682  1.00  0.00    -0.165 OA 
ENDBRANCH   3   5
BRANCH   3   8
HETATM    8  C   UNL     1      -9.354   5.610  66.788  1.00  0.00    -0.134 C  
HETATM    9  O   UNL     1      -9.238   4.907  67.791  1.00  0.00    -0.113 OA 
HETATM   10  H   UNL     1     -10.301   7.236  65.863  1.00  0.00     0.000 HD 
HETATM   11  N   UNL     1     -10.236   6.682  66.717  1.00  0.00    -0.205 N  
BRANCH  11  12
HETATM   12  N   UNL     1     -11.038   6.999  67.831  1.00  0.00    -0.527 NA 
HETATM   13  H   UNL     1     -11.124   6.208  68.468  1.00  0.00     0.000 HD 
BRANCH  12  14
HETATM   14  C   UNL     1     -10.541   8.201  68.526  1.00  0.00    -0.100 C  
BRANCH  14  15
HETATM   15  C   UNL     1     -10.425   7.986  70.020  1.00  0.00    -0.228 A  
HETATM   16  C   UNL     1     -11.350   7.247  70.771  1.00  0.00    -0.285 A  
HETATM   17  O   UNL     1     -12.450   6.633  70.219  1.00  0.00    -0.509 OA 
HETATM   18  C   UNL     1     -11.188   7.093  72.146  1.00  0.00    -0.255 A  
HETATM   19  H   UNL     1     -13.076   6.132  70.728  1.00  0.00     0.000 HD 
HETATM   20  C   UNL     1     -10.121   7.689  72.800  1.00  0.00    -0.254 A  
HETATM   21  O   UNL     1     -12.076   6.339  72.866  1.00  0.00    -0.465 OA 
HETATM   22  H   UNL     1     -11.965   6.234  73.804  1.00  0.00     0.000 HD 
HETATM   23  C   UNL     1      -9.207   8.452  72.094  1.00  0.00    -0.313 A  
HETATM   24  O   UNL     1      -9.969   7.529  74.148  1.00  0.00    -0.393 OA 
HETATM   25  H   UNL     1      -9.238   7.937  74.597  1.00  0.00     0.000 HD 
HETATM   26  C   UNL     1      -9.360   8.602  70.709  1.00  0.00    -0.231 A  
ENDBRANCH  14  15
ENDBRANCH  12  14
ENDBRANCH  11  12
ENDBRANCH   3   8
TORSDOF 5
ENDMDL
MODEL      242
REMARK 921   NORMALIZED FREE ENERGY PREDICTED BY IDOCK:   -3.57 KCAL/MOL
REMARK 922        TOTAL FREE ENERGY PREDICTED BY IDOCK:   -5.06 KCAL/MOL
REMARK 923 INTER-LIGAND FREE ENERGY PREDICTED BY IDOCK:   -4.61 KCAL/MOL
REMARK 924 INTRA-LIGAND FREE ENERGY PREDICTED BY IDOCK:   -0.45 KCAL/MOL
REMARK 927      BINDING AFFINITY PREDICTED BY RF-SCORE:    0.00 PKD
ROOT
HETATM    1  N   UNL     1     -12.204  10.743  68.571  1.00  0.00    -0.822 NA 
HETATM    2  H1  UNL     1     -13.147  10.355  68.551  1.00  0.00     0.000 HD 
HETATM    3  CA  UNL     1     -11.263   9.839  69.290  1.00  0.00    -0.088 C  
HETATM    4  H2  UNL     1     -11.869  10.963  67.632  1.00  0.00     0.000 HD 
ENDROOT
BRANCH   3   5
HETATM    5  C   UNL     1      -9.844  10.422  69.320  1.00  0.00    -0.225 C  
HETATM    6  H   UNL     1      -8.006   9.729  69.216  1.00  0.00     0.000 HD 
HETATM    7  O   UNL     1      -8.884   9.368  69.197  1.00  0.00    -0.134 OA 
ENDBRANCH   3   5
BRANCH   3   8
HETATM    8  C   UNL     1     -11.765   9.558  70.709  1.00  0.00    -0.298 C  
HETATM    9  O   UNL     1     -12.240  10.415  71.453  1.00  0.00    -0.366 OA 
HETATM   10  H   UNL     1     -11.172   7.562  70.456  1.00  0.00     0.000 HD 
HETATM   11  N   UNL     1     -11.573   8.239  71.105  1.00  0.00    -0.276 N  
BRANCH  11  12
HETATM   12  N   UNL     1     -11.936   7.843  72.408  1.00  0.00    -0.459 NA 
HETATM   13  H   UNL     1     -12.643   7.108  72.392  1.00  0.00     0.000 HD 
BRANCH  12  14
HETATM   14  C   UNL     1     -10.757   7.443  73.195  1.00  0.00    -0.387 C  
BRANCH  14  15
HETATM   15  C   UNL     1     -10.403   5.985  72.988  1.00  0.00    -0.224 A  
HETATM   16  C   UNL     1      -9.411   5.548  72.098  1.00  0.00    -0.143 A  
HETATM   17  O   UNL     1      -8.652   6.404  71.335  1.00  0.00    -0.129 OA 
HETATM   18  C   UNL     1      -9.139   4.190  71.949  1.00  0.00    -0.122 A  
HETATM   19  H   UNL     1      -7.980   6.108  70.733  1.00  0.00     0.000 HD 
HETATM   20  C   UNL     1      -9.861   3.245  72.660  1.00  0.00    -0.143 A  
HETATM   21  O   UNL     1      -8.143   3.773  71.106  1.00  0.00    -0.062 OA 
HETATM   22  H   UNL     1      -7.958   2.847  71.004  1.00  0.00     0.000 HD 
HETATM   23  C   UNL     1     -10.870   3.641  73.523  1.00  0.00    -0.322 A  
HETATM   24  O   UNL     1      -9.584   1.916  72.510  1.00  0.00    -0.080 OA 
HETATM   25  H   UNL     1     -10.079   1.268  72.997  1.00  0.00     0.000 HD 
HETATM   26  C   UNL     1     -11.141   5.006  73.684  1.00  0.00    -0.336 A  
ENDBRANCH  14  15
ENDBRANCH  12  14
ENDBRANCH  11  12
ENDBRANCH   3   8
TORSDOF 5
ENDMDL
MODEL      243
REMARK 921   NORMALIZED FREE ENERGY PREDICTED BY IDOCK:   -3.57 KCAL/MOL
REMARK 922        TOTAL FREE ENERGY PREDICTED BY IDOCK:   -5.06 KCAL/MOL
REMARK 923 INTER-LIGAND FREE ENERGY PREDICTED BY IDOCK:   -4.75 KCAL/MOL
REMARK 924 INTRA-LIGAND FREE ENERGY PREDICTED BY IDOCK:   -0.31 KCAL/MOL
REMARK 927      BINDING AFFINITY PREDICTED BY RF-SCORE:    0.00 PKD
ROOT
HETATM    1  N   UNL     1      -7.173   7.218  67.336  1.00  0.00    -0.087 NA 
HETATM    2  H1  UNL     1      -7.254   7.680  66.429  1.00  0.00     0.000 HD 
HETATM    3  CA  UNL     1      -8.511   7.025  67.965  1.00  0.00    -0.125 C  
HETATM    4  H2  UNL     1      -6.662   6.338  67.263  1.00  0.00     0.000 HD 
ENDROOT
BRANCH   3   5
HETATM    5  C   UNL     1      -8.389   6.331  69.328  1.00  0.00    -0.117 C  
HETATM    6  H   UNL     1      -7.330   6.567  70.968  1.00  0.00     0.000 HD 
HETATM    7  O   UNL     1      -7.405   6.997  70.125  1.00  0.00    -0.077 OA 
ENDBRANCH   3   5
BRANCH   3   8
HETATM    8  C   UNL     1      -9.239   8.365  68.101  1.00  0.00    -0.137 C  
HETATM    9  O   UNL     1     -10.264   8.527  68.762  1.00  0.00    -0.193 OA 
HETATM   10  H   UNL     1      -7.812   9.199  66.810  1.00  0.00     0.000 HD 
HETATM   11  N   UNL     1      -8.661   9.379  67.346  1.00  0.00    -0.125 N  
BRANCH  11  12
HETATM   12  N   UNL     1      -9.254  10.658  67.327  1.00  0.00    -0.143 NA 
HETATM   13  H   UNL     1      -9.242  11.089  68.251  1.00  0.00     0.000 HD 
BRANCH  12  14
HETATM   14  C   UNL     1      -8.624  11.527  66.316  1.00  0.00    -0.133 C  
BRANCH  14  15
HETATM   15  C   UNL     1      -9.624  12.456  65.662  1.00  0.00    -0.120 A  
HETATM   16  C   UNL     1      -9.628  13.846  65.850  1.00  0.00    -0.145 A  
HETATM   17  O   UNL     1      -8.712  14.503  66.638  1.00  0.00    -0.381 OA 
HETATM   18  C   UNL     1     -10.582  14.644  65.223  1.00  0.00    -0.391 A  
HETATM   19  H   UNL     1      -8.715  15.444  66.765  1.00  0.00     0.000 HD 
HETATM   20  C   UNL     1     -11.559  14.076  64.422  1.00  0.00    -0.369 A  
HETATM   21  O   UNL     1     -10.556  16.005  65.382  1.00  0.00    -0.386 OA 
HETATM   22  H   UNL     1     -11.207  16.550  64.954  1.00  0.00     0.000 HD 
HETATM   23  C   UNL     1     -11.604  12.704  64.241  1.00  0.00    -0.435 A  
HETATM   24  O   UNL     1     -12.488  14.869  63.809  1.00  0.00    -1.048 OA 
HETATM   25  H   UNL     1     -13.158  14.480  63.259  1.00  0.00     0.000 HD 
HETATM   26  C   UNL     1     -10.641  11.897  64.862  1.00  0.00    -0.333 A  
ENDBRANCH  14  15
ENDBRANCH  12  14
ENDBRANCH  11  12
ENDBRANCH   3   8
TORSDOF 5
ENDMDL
MODEL      244
REMARK 921   NORMALIZED FREE ENERGY PREDICTED BY IDOCK:   -3.55 KCAL/MOL
REMARK 922        TOTAL FREE ENERGY PREDICTED BY IDOCK:   -5.03 KCAL/MOL
REMARK 923 INTER-LIGAND FREE ENERGY PREDICTED BY IDOCK:   -5.03 KCAL/MOL
REMARK 924 INTRA-LIGAND FREE ENERGY PREDICTED BY IDOCK:   -0.00 KCAL/MOL
REMARK 927      BINDING AFFINITY PREDICTED BY RF-SCORE:    0.00 PKD
ROOT
HETATM    1  N   UNL     1      -9.573  12.084  64.329  1.00  0.00    -0.485 NA 
HETATM    2  H1  UNL     1     -10.437  12.525  64.644  1.00  0.00     0.000 HD 
HETATM    3  CA  UNL     1      -9.345  10.785  65.025  1.00  0.00    -0.223 C  
HETATM    4  H2  UNL     1      -9.556  11.973  63.315  1.00  0.00     0.000 HD 
ENDROOT
BRANCH   3   5
HETATM    5  C   UNL     1      -8.045  10.121  64.552  1.00  0.00    -0.160 C  
HETATM    6  H   UNL     1      -6.347   9.552  65.364  1.00  0.00     0.000 HD 
HETATM    7  O   UNL     1      -7.151   9.962  65.657  1.00  0.00    -0.100 OA 
ENDBRANCH   3   5
BRANCH   3   8
HETATM    8  C   UNL     1      -9.331  10.984  66.543  1.00  0.00    -0.180 C  
HETATM    9  O   UNL     1      -9.039  12.044  67.095  1.00  0.00    -0.174 OA 
HETATM   10  H   UNL     1      -9.858   8.965  66.748  1.00  0.00     0.000 HD 
HETATM   11  N   UNL     1      -9.624   9.822  67.248  1.00  0.00    -0.153 N  
BRANCH  11  12
HETATM   12  N   UNL     1      -9.596   9.836  68.657  1.00  0.00    -0.148 NA 
HETATM   13  H   UNL     1      -9.343  10.756  69.016  1.00  0.00     0.000 HD 
BRANCH  12  14
HETATM   14  C   UNL     1     -10.873   9.366  69.224  1.00  0.00    -0.172 C  
BRANCH  14  15
HETATM   15  C   UNL     1     -10.687   8.707  70.574  1.00  0.00    -0.252 A  
HETATM   16  C   UNL     1     -11.505   7.674  71.052  1.00  0.00    -0.276 A  
HETATM   17  O   UNL     1     -12.552   7.147  70.331  1.00  0.00    -0.612 OA 
HETATM   18  C   UNL     1     -11.283   7.115  72.308  1.00  0.00    -0.261 A  
HETATM   19  H   UNL     1     -13.106   6.447  70.655  1.00  0.00     0.000 HD 
HETATM   20  C   UNL     1     -10.264   7.588  73.119  1.00  0.00    -0.327 A  
HETATM   21  O   UNL     1     -12.064   6.080  72.752  1.00  0.00    -0.525 OA 
HETATM   22  H   UNL     1     -11.913   5.699  73.609  1.00  0.00     0.000 HD 
HETATM   23  C   UNL     1      -9.458   8.629  72.692  1.00  0.00    -0.188 A  
HETATM   24  O   UNL     1     -10.053   7.030  74.348  1.00  0.00    -0.458 OA 
HETATM   25  H   UNL     1      -9.354   7.354  74.905  1.00  0.00     0.000 HD 
HETATM   26  C   UNL     1      -9.670   9.189  71.425  1.00  0.00    -0.338 A  
ENDBRANCH  14  15
ENDBRANCH  12  14
ENDBRANCH  11  12
ENDBRANCH   3   8
TORSDOF 5
ENDMDL
MODEL      245
REMARK 921   NORMALIZED FREE ENERGY PREDICTED BY IDOCK:   -3.54 KCAL/MOL
REMARK 922        TOTAL FREE ENERGY PREDICTED BY IDOCK:   -5.02 KCAL/MOL
REMARK 923 INTER-LIGAND FREE ENERGY PREDICTED BY IDOCK:   -4.74 KCAL/MOL
REMARK 924 INTRA-LIGAND FREE ENERGY PREDICTED BY IDOCK:   -0.28 KCAL/MOL
REMARK 927      BINDING AFFINITY PREDICTED BY RF-SCORE:    0.00 PKD
ROOT
HETATM    1  N   UNL     1      -8.859   9.242  65.495  1.00  0.00    -0.174 NA 
HETATM    2  H1  UNL     1      -8.493   9.499  64.577  1.00  0.00     0.000 HD 
HETATM    3  CA  UNL     1     -10.105   9.996  65.810  1.00  0.00    -0.250 C  
HETATM    4  H2  UNL     1      -9.000   8.234  65.573  1.00  0.00     0.000 HD 
ENDROOT
BRANCH   3   5
HETATM    5  C   UNL     1     -10.655   9.610  67.189  1.00  0.00    -0.228 C  
HETATM    6  H   UNL     1     -11.778  10.446  68.571  1.00  0.00     0.000 HD 
HETATM    7  O   UNL     1     -11.438  10.685  67.718  1.00  0.00    -0.460 OA 
ENDBRANCH   3   5
BRANCH   3   8
HETATM    8  C   UNL     1      -9.856  11.505  65.728  1.00  0.00    -0.234 C  
HETATM    9  O   UNL     1      -8.849  12.060  66.164  1.00  0.00    -0.141 OA 
HETATM   10  H   UNL     1     -11.735  11.701  64.817  1.00  0.00     0.000 HD 
HETATM   11  N   UNL     1     -10.917  12.203  65.163  1.00  0.00    -0.301 N  
BRANCH  11  12
HETATM   12  N   UNL     1     -10.856  13.608  65.070  1.00  0.00    -0.331 NA 
HETATM   13  H   UNL     1     -11.394  13.954  64.276  1.00  0.00     0.000 HD 
BRANCH  12  14
HETATM   14  C   UNL     1     -11.279  14.248  66.329  1.00  0.00    -0.337 C  
BRANCH  14  15
HETATM   15  C   UNL     1     -10.207  15.157  66.892  1.00  0.00    -0.259 A  
HETATM   16  C   UNL     1      -9.578  14.941  68.127  1.00  0.00    -0.210 A  
HETATM   17  O   UNL     1      -9.865  13.871  68.942  1.00  0.00    -0.381 OA 
HETATM   18  C   UNL     1      -8.604  15.821  68.590  1.00  0.00    -0.194 A  
HETATM   19  H   UNL     1      -9.439  13.725  69.778  1.00  0.00     0.000 HD 
HETATM   20  C   UNL     1      -8.256  16.941  67.851  1.00  0.00    -0.197 A  
HETATM   21  O   UNL     1      -7.967  15.583  69.780  1.00  0.00    -0.180 OA 
HETATM   22  H   UNL     1      -7.302  16.184  70.096  1.00  0.00     0.000 HD 
HETATM   23  C   UNL     1      -8.881  17.201  66.643  1.00  0.00    -0.279 A  
HETATM   24  O   UNL     1      -7.296  17.795  68.313  1.00  0.00    -0.222 OA 
HETATM   25  H   UNL     1      -7.057  18.563  67.806  1.00  0.00     0.000 HD 
HETATM   26  C   UNL     1      -9.855  16.314  66.167  1.00  0.00    -0.358 A  
ENDBRANCH  14  15
ENDBRANCH  12  14
ENDBRANCH  11  12
ENDBRANCH   3   8
TORSDOF 5
ENDMDL
MODEL      246
REMARK 921   NORMALIZED FREE ENERGY PREDICTED BY IDOCK:   -3.53 KCAL/MOL
REMARK 922        TOTAL FREE ENERGY PREDICTED BY IDOCK:   -5.01 KCAL/MOL
REMARK 923 INTER-LIGAND FREE ENERGY PREDICTED BY IDOCK:   -4.44 KCAL/MOL
REMARK 924 INTRA-LIGAND FREE ENERGY PREDICTED BY IDOCK:   -0.57 KCAL/MOL
REMARK 927      BINDING AFFINITY PREDICTED BY RF-SCORE:    0.00 PKD
ROOT
HETATM    1  N   UNL     1     -12.778   7.106  70.678  1.00  0.00    -0.597 NA 
HETATM    2  H1  UNL     1     -12.329   6.836  69.803  1.00  0.00     0.000 HD 
HETATM    3  CA  UNL     1     -12.252   8.409  71.176  1.00  0.00    -0.226 C  
HETATM    4  H2  UNL     1     -13.795   7.122  70.588  1.00  0.00     0.000 HD 
ENDROOT
BRANCH   3   5
HETATM    5  C   UNL     1     -12.927   8.816  72.491  1.00  0.00    -0.321 C  
HETATM    6  H   UNL     1     -14.766   8.971  73.171  1.00  0.00     0.000 HD 
HETATM    7  O   UNL     1     -14.349   8.719  72.357  1.00  0.00    -0.509 OA 
ENDBRANCH   3   5
BRANCH   3   8
HETATM    8  C   UNL     1     -10.731   8.345  71.342  1.00  0.00    -0.237 C  
HETATM    9  O   UNL     1     -10.122   8.841  72.289  1.00  0.00    -0.311 OA 
HETATM   10  H   UNL     1     -10.637   7.328  69.511  1.00  0.00     0.000 HD 
HETATM   11  N   UNL     1     -10.091   7.722  70.278  1.00  0.00    -0.194 N  
BRANCH  11  12
HETATM   12  N   UNL     1      -8.684   7.637  70.263  1.00  0.00    -0.143 NA 
HETATM   13  H   UNL     1      -8.284   7.904  71.162  1.00  0.00     0.000 HD 
BRANCH  12  14
HETATM   14  C   UNL     1      -8.232   6.297  69.847  1.00  0.00    -0.121 C  
BRANCH  14  15
HETATM   15  C   UNL     1      -8.701   5.946  68.451  1.00  0.00    -0.112 A  
HETATM   16  C   UNL     1      -8.500   6.771  67.336  1.00  0.00    -0.121 A  
HETATM   17  O   UNL     1      -7.841   7.977  67.399  1.00  0.00    -0.113 OA 
HETATM   18  C   UNL     1      -8.964   6.392  66.078  1.00  0.00    -0.130 A  
HETATM   19  H   UNL     1      -7.704   8.535  66.643  1.00  0.00     0.000 HD 
HETATM   20  C   UNL     1      -9.656   5.202  65.912  1.00  0.00    -0.148 A  
HETATM   21  O   UNL     1      -8.730   7.186  64.987  1.00  0.00    -0.359 OA 
HETATM   22  H   UNL     1      -9.047   6.926  64.129  1.00  0.00     0.000 HD 
HETATM   23  C   UNL     1      -9.901   4.380  66.999  1.00  0.00    -0.227 A  
HETATM   24  O   UNL     1     -10.104   4.838  64.675  1.00  0.00    -0.383 OA 
HETATM   25  H   UNL     1     -10.578   4.022  64.561  1.00  0.00     0.000 HD 
HETATM   26  C   UNL     1      -9.428   4.752  68.265  1.00  0.00    -0.191 A  
ENDBRANCH  14  15
ENDBRANCH  12  14
ENDBRANCH  11  12
ENDBRANCH   3   8
TORSDOF 5
ENDMDL
MODEL      247
REMARK 921   NORMALIZED FREE ENERGY PREDICTED BY IDOCK:   -3.51 KCAL/MOL
REMARK 922        TOTAL FREE ENERGY PREDICTED BY IDOCK:   -4.99 KCAL/MOL
REMARK 923 INTER-LIGAND FREE ENERGY PREDICTED BY IDOCK:   -4.27 KCAL/MOL
REMARK 924 INTRA-LIGAND FREE ENERGY PREDICTED BY IDOCK:   -0.72 KCAL/MOL
REMARK 927      BINDING AFFINITY PREDICTED BY RF-SCORE:    0.00 PKD
ROOT
HETATM    1  N   UNL     1     -10.066   6.975  66.265  1.00  0.00    -0.440 NA 
HETATM    2  H1  UNL     1     -10.674   7.295  67.020  1.00  0.00     0.000 HD 
HETATM    3  CA  UNL     1      -8.880   6.247  66.800  1.00  0.00    -0.126 C  
HETATM    4  H2  UNL     1     -10.578   6.411  65.586  1.00  0.00     0.000 HD 
ENDROOT
BRANCH   3   5
HETATM    5  C   UNL     1      -7.966   5.765  65.666  1.00  0.00    -0.116 C  
HETATM    6  H   UNL     1      -7.709   6.173  63.759  1.00  0.00     0.000 HD 
HETATM    7  O   UNL     1      -8.275   6.472  64.460  1.00  0.00    -0.111 OA 
ENDBRANCH   3   5
BRANCH   3   8
HETATM    8  C   UNL     1      -8.107   7.128  67.784  1.00  0.00    -0.115 C  
HETATM    9  O   UNL     1      -7.463   8.124  67.456  1.00  0.00    -0.091 OA 
HETATM   10  H   UNL     1      -8.695   5.823  69.316  1.00  0.00     0.000 HD 
HETATM   11  N   UNL     1      -8.150   6.656  69.090  1.00  0.00    -0.115 N  
BRANCH  11  12
HETATM   12  N   UNL     1      -7.438   7.333  70.100  1.00  0.00    -0.086 NA 
HETATM   13  H   UNL     1      -7.146   8.261  69.794  1.00  0.00     0.000 HD 
BRANCH  12  14
HETATM   14  C   UNL     1      -8.212   7.395  71.353  1.00  0.00    -0.104 C  
BRANCH  14  15
HETATM   15  C   UNL     1      -9.544   8.089  71.165  1.00  0.00    -0.189 A  
HETATM   16  C   UNL     1      -9.673   9.400  70.684  1.00  0.00    -0.273 A  
HETATM   17  O   UNL     1      -8.600  10.179  70.322  1.00  0.00    -0.330 OA 
HETATM   18  C   UNL     1     -10.930   9.983  70.541  1.00  0.00    -0.326 A  
HETATM   19  H   UNL     1      -8.687  11.067  69.996  1.00  0.00     0.000 HD 
HETATM   20  C   UNL     1     -12.075   9.286  70.895  1.00  0.00    -0.233 A  
HETATM   21  O   UNL     1     -11.050  11.250  70.035  1.00  0.00    -0.455 OA 
HETATM   22  H   UNL     1     -11.908  11.648  69.937  1.00  0.00     0.000 HD 
HETATM   23  C   UNL     1     -11.980   8.002  71.404  1.00  0.00    -0.328 A  
HETATM   24  O   UNL     1     -13.302   9.866  70.747  1.00  0.00    -0.593 OA 
HETATM   25  H   UNL     1     -14.087   9.388  70.990  1.00  0.00     0.000 HD 
HETATM   26  C   UNL     1     -10.719   7.406  71.541  1.00  0.00    -0.243 A  
ENDBRANCH  14  15
ENDBRANCH  12  14
ENDBRANCH  11  12
ENDBRANCH   3   8
TORSDOF 5
ENDMDL
MODEL      248
REMARK 921   NORMALIZED FREE ENERGY PREDICTED BY IDOCK:   -3.48 KCAL/MOL
REMARK 922        TOTAL FREE ENERGY PREDICTED BY IDOCK:   -4.95 KCAL/MOL
REMARK 923 INTER-LIGAND FREE ENERGY PREDICTED BY IDOCK:   -4.66 KCAL/MOL
REMARK 924 INTRA-LIGAND FREE ENERGY PREDICTED BY IDOCK:   -0.29 KCAL/MOL
REMARK 927      BINDING AFFINITY PREDICTED BY RF-SCORE:    0.00 PKD
ROOT
HETATM    1  N   UNL     1      -8.236  11.381  66.066  1.00  0.00    -0.363 NA 
HETATM    2  H1  UNL     1      -7.939  12.343  66.231  1.00  0.00     0.000 HD 
HETATM    3  CA  UNL     1      -8.778  11.212  64.688  1.00  0.00     0.144 C  
HETATM    4  H2  UNL     1      -7.483  10.719  66.257  1.00  0.00     0.000 HD 
ENDROOT
BRANCH   3   5
HETATM    5  C   UNL     1      -9.225   9.765  64.440  1.00  0.00    -0.245 C  
HETATM    6  H   UNL     1      -9.374   8.555  62.896  1.00  0.00     0.000 HD 
HETATM    7  O   UNL     1      -9.098   9.450  63.049  1.00  0.00    -0.224 OA 
ENDBRANCH   3   5
BRANCH   3   8
HETATM    8  C   UNL     1      -9.933  12.187  64.441  1.00  0.00    -0.214 C  
HETATM    9  O   UNL     1     -10.748  12.070  63.527  1.00  0.00    -0.397 OA 
HETATM   10  H   UNL     1      -9.237  13.321  66.062  1.00  0.00     0.000 HD 
HETATM   11  N   UNL     1      -9.935  13.263  65.320  1.00  0.00    -0.222 N  
BRANCH  11  12
HETATM   12  N   UNL     1     -10.907  14.274  65.181  1.00  0.00    -0.353 NA 
HETATM   13  H   UNL     1     -10.977  14.596  64.216  1.00  0.00     0.000 HD 
BRANCH  12  14
HETATM   14  C   UNL     1     -12.215  13.837  65.701  1.00  0.00    -0.454 C  
BRANCH  14  15
HETATM   15  C   UNL     1     -12.153  13.484  67.172  1.00  0.00    -0.386 A  
HETATM   16  C   UNL     1     -12.036  14.437  68.193  1.00  0.00    -0.285 A  
HETATM   17  O   UNL     1     -11.980  15.791  67.958  1.00  0.00    -0.301 OA 
HETATM   18  C   UNL     1     -11.977  14.044  69.528  1.00  0.00    -0.339 A  
HETATM   19  H   UNL     1     -11.901  16.437  68.650  1.00  0.00     0.000 HD 
HETATM   20  C   UNL     1     -12.008  12.702  69.870  1.00  0.00    -0.295 A  
HETATM   21  O   UNL     1     -11.900  14.984  70.522  1.00  0.00    -0.259 OA 
HETATM   22  H   UNL     1     -11.860  14.716  71.433  1.00  0.00     0.000 HD 
HETATM   23  C   UNL     1     -12.090  11.732  68.884  1.00  0.00    -0.238 A  
HETATM   24  O   UNL     1     -11.953  12.327  71.182  1.00  0.00    -0.262 OA 
HETATM   25  H   UNL     1     -11.974  11.407  71.416  1.00  0.00     0.000 HD 
HETATM   26  C   UNL     1     -12.159  12.122  67.540  1.00  0.00     0.032 A  
ENDBRANCH  14  15
ENDBRANCH  12  14
ENDBRANCH  11  12
ENDBRANCH   3   8
TORSDOF 5
ENDMDL
MODEL      249
REMARK 921   NORMALIZED FREE ENERGY PREDICTED BY IDOCK:   -3.48 KCAL/MOL
REMARK 922        TOTAL FREE ENERGY PREDICTED BY IDOCK:   -4.94 KCAL/MOL
REMARK 923 INTER-LIGAND FREE ENERGY PREDICTED BY IDOCK:   -4.63 KCAL/MOL
REMARK 924 INTRA-LIGAND FREE ENERGY PREDICTED BY IDOCK:   -0.31 KCAL/MOL
REMARK 927      BINDING AFFINITY PREDICTED BY RF-SCORE:    0.00 PKD
ROOT
HETATM    1  N   UNL     1     -12.583  14.323  66.766  1.00  0.00    -0.490 NA 
HETATM    2  H1  UNL     1     -12.785  13.779  67.605  1.00  0.00     0.000 HD 
HETATM    3  CA  UNL     1     -12.323  13.436  65.596  1.00  0.00    -0.470 C  
HETATM    4  H2  UNL     1     -13.323  14.997  66.568  1.00  0.00     0.000 HD 
ENDROOT
BRANCH   3   5
HETATM    5  C   UNL     1     -12.019  14.253  64.334  1.00  0.00    -0.456 C  
HETATM    6  H   UNL     1     -11.161  15.972  63.911  1.00  0.00     0.000 HD 
HETATM    7  O   UNL     1     -11.349  15.466  64.692  1.00  0.00    -0.407 OA 
ENDBRANCH   3   5
BRANCH   3   8
HETATM    8  C   UNL     1     -11.181  12.463  65.902  1.00  0.00    -0.336 C  
HETATM    9  O   UNL     1     -10.324  12.130  65.085  1.00  0.00    -0.264 OA 
HETATM   10  H   UNL     1     -11.973  12.239  67.831  1.00  0.00     0.000 HD 
HETATM   11  N   UNL     1     -11.242  11.937  67.187  1.00  0.00    -0.299 N  
BRANCH  11  12
HETATM   12  N   UNL     1     -10.288  10.984  67.595  1.00  0.00    -0.184 NA 
HETATM   13  H   UNL     1      -9.904  11.208  68.513  1.00  0.00     0.000 HD 
BRANCH  12  14
HETATM   14  C   UNL     1     -10.844   9.619  67.561  1.00  0.00    -0.198 C  
BRANCH  14  15
HETATM   15  C   UNL     1      -9.791   8.569  67.846  1.00  0.00    -0.208 A  
HETATM   16  C   UNL     1      -9.829   7.270  67.318  1.00  0.00    -0.171 A  
HETATM   17  O   UNL     1     -10.822   6.828  66.476  1.00  0.00    -0.520 OA 
HETATM   18  C   UNL     1      -8.830   6.349  67.625  1.00  0.00    -0.112 A  
HETATM   19  H   UNL     1     -10.847   5.948  66.118  1.00  0.00     0.000 HD 
HETATM   20  C   UNL     1      -7.794   6.692  68.479  1.00  0.00    -0.110 A  
HETATM   21  O   UNL     1      -8.854   5.095  67.075  1.00  0.00    -0.111 OA 
HETATM   22  H   UNL     1      -8.173   4.466  67.285  1.00  0.00     0.000 HD 
HETATM   23  C   UNL     1      -7.744   7.956  69.044  1.00  0.00    -0.101 A  
HETATM   24  O   UNL     1      -6.818   5.782  68.771  1.00  0.00    -0.061 OA 
HETATM   25  H   UNL     1      -6.107   6.017  69.356  1.00  0.00     0.000 HD 
HETATM   26  C   UNL     1      -8.740   8.890  68.730  1.00  0.00    -0.137 A  
ENDBRANCH  14  15
ENDBRANCH  12  14
ENDBRANCH  11  12
ENDBRANCH   3   8
TORSDOF 5
ENDMDL
MODEL      250
REMARK 921   NORMALIZED FREE ENERGY PREDICTED BY IDOCK:   -3.46 KCAL/MOL
REMARK 922        TOTAL FREE ENERGY PREDICTED BY IDOCK:   -4.91 KCAL/MOL
REMARK 923 INTER-LIGAND FREE ENERGY PREDICTED BY IDOCK:   -4.56 KCAL/MOL
REMARK 924 INTRA-LIGAND FREE ENERGY PREDICTED BY IDOCK:   -0.35 KCAL/MOL
REMARK 927      BINDING AFFINITY PREDICTED BY RF-SCORE:    0.00 PKD
ROOT
HETATM    1  N   UNL     1     -10.421   5.130  69.608  1.00  0.00    -0.257 NA 
HETATM    2  H1  UNL     1     -11.391   4.985  69.891  1.00  0.00     0.000 HD 
HETATM    3  CA  UNL     1      -9.496   4.251  70.379  1.00  0.00    -0.174 C  
HETATM    4  H2  UNL     1     -10.303   5.008  68.602  1.00  0.00     0.000 HD 
ENDROOT
BRANCH   3   5
HETATM    5  C   UNL     1      -8.038   4.469  69.953  1.00  0.00    -0.067 C  
HETATM    6  H   UNL     1      -6.763   3.621  68.718  1.00  0.00     0.000 HD 
HETATM    7  O   UNL     1      -7.665   3.487  68.982  1.00  0.00    -0.052 OA 
ENDBRANCH   3   5
BRANCH   3   8
HETATM    8  C   UNL     1      -9.663   4.483  71.883  1.00  0.00    -0.168 C  
HETATM    9  O   UNL     1     -10.535   3.950  72.569  1.00  0.00    -0.167 OA 
HETATM   10  H   UNL     1      -8.061   5.832  71.789  1.00  0.00     0.000 HD 
HETATM   11  N   UNL     1      -8.765   5.412  72.395  1.00  0.00    -0.125 N  
BRANCH  11  12
HETATM   12  N   UNL     1      -8.834   5.771  73.756  1.00  0.00    -0.127 NA 
HETATM   13  H   UNL     1      -8.065   5.364  74.289  1.00  0.00     0.000 HD 
BRANCH  12  14
HETATM   14  C   UNL     1      -8.893   7.234  73.924  1.00  0.00    -0.205 C  
BRANCH  14  15
HETATM   15  C   UNL     1      -9.821   7.884  72.920  1.00  0.00    -0.348 A  
HETATM   16  C   UNL     1      -9.381   8.740  71.899  1.00  0.00    -0.273 A  
HETATM   17  O   UNL     1      -8.058   9.061  71.703  1.00  0.00    -0.329 OA 
HETATM   18  C   UNL     1     -10.289   9.311  71.011  1.00  0.00    -0.318 A  
HETATM   19  H   UNL     1      -7.761   9.640  71.011  1.00  0.00     0.000 HD 
HETATM   20  C   UNL     1     -11.647   9.064  71.136  1.00  0.00    -0.306 A  
HETATM   21  O   UNL     1      -9.848  10.116  69.994  1.00  0.00    -0.352 OA 
HETATM   22  H   UNL     1     -10.467  10.506  69.388  1.00  0.00     0.000 HD 
HETATM   23  C   UNL     1     -12.118   8.250  72.152  1.00  0.00    -0.425 A  
HETATM   24  O   UNL     1     -12.529   9.626  70.257  1.00  0.00    -0.479 OA 
HETATM   25  H   UNL     1     -13.460   9.457  70.342  1.00  0.00     0.000 HD 
HETATM   26  C   UNL     1     -11.208   7.664  73.043  1.00  0.00    -0.388 A  
ENDBRANCH  14  15
ENDBRANCH  12  14
ENDBRANCH  11  12
ENDBRANCH   3   8
TORSDOF 5
ENDMDL
MODEL      251
REMARK 921   NORMALIZED FREE ENERGY PREDICTED BY IDOCK:   -3.46 KCAL/MOL
REMARK 922        TOTAL FREE ENERGY PREDICTED BY IDOCK:   -4.91 KCAL/MOL
REMARK 923 INTER-LIGAND FREE ENERGY PREDICTED BY IDOCK:   -4.58 KCAL/MOL
REMARK 924 INTRA-LIGAND FREE ENERGY PREDICTED BY IDOCK:   -0.33 KCAL/MOL
REMARK 927      BINDING AFFINITY PREDICTED BY RF-SCORE:    0.00 PKD
ROOT
HETATM    1  N   UNL     1      -9.567   6.708  68.135  1.00  0.00    -0.121 NA 
HETATM    2  H1  UNL     1     -10.255   7.440  68.314  1.00  0.00     0.000 HD 
HETATM    3  CA  UNL     1     -10.097   5.365  68.509  1.00  0.00    -0.177 C  
HETATM    4  H2  UNL     1      -9.242   6.727  67.168  1.00  0.00     0.000 HD 
ENDROOT
BRANCH   3   5
HETATM    5  C   UNL     1      -9.062   4.265  68.241  1.00  0.00    -0.131 C  
HETATM    6  H   UNL     1      -9.011   2.547  67.284  1.00  0.00     0.000 HD 
HETATM    7  O   UNL     1      -9.651   3.228  67.450  1.00  0.00    -0.201 OA 
ENDBRANCH   3   5
BRANCH   3   8
HETATM    8  C   UNL     1     -10.539   5.351  69.975  1.00  0.00    -0.284 C  
HETATM    9  O   UNL     1     -10.158   4.521  70.800  1.00  0.00    -0.214 OA 
HETATM   10  H   UNL     1     -11.759   7.004  69.557  1.00  0.00     0.000 HD 
HETATM   11  N   UNL     1     -11.470   6.338  70.274  1.00  0.00    -0.388 N  
BRANCH  11  12
HETATM   12  N   UNL     1     -12.011   6.415  71.573  1.00  0.00    -0.317 NA 
HETATM   13  H   UNL     1     -11.835   5.562  72.102  1.00  0.00     0.000 HD 
BRANCH  12  14
HETATM   14  C   UNL     1     -11.522   7.607  72.289  1.00  0.00    -0.317 C  
BRANCH  14  15
HETATM   15  C   UNL     1     -11.245   8.761  71.350  1.00  0.00    -0.362 A  
HETATM   16  C   UNL     1     -10.006   8.974  70.728  1.00  0.00    -0.245 A  
HETATM   17  O   UNL     1      -8.923   8.144  70.901  1.00  0.00    -0.138 OA 
HETATM   18  C   UNL     1      -9.815  10.061  69.879  1.00  0.00    -0.224 A  
HETATM   19  H   UNL     1      -8.084   8.289  70.480  1.00  0.00     0.000 HD 
HETATM   20  C   UNL     1     -10.840  10.967  69.652  1.00  0.00    -0.216 A  
HETATM   21  O   UNL     1      -8.614  10.242  69.246  1.00  0.00    -0.152 OA 
HETATM   22  H   UNL     1      -8.484  10.983  68.666  1.00  0.00     0.000 HD 
HETATM   23  C   UNL     1     -12.066  10.804  70.276  1.00  0.00    -0.433 A  
HETATM   24  O   UNL     1     -10.644  12.028  68.815  1.00  0.00    -0.227 OA 
HETATM   25  H   UNL     1     -11.346  12.648  68.659  1.00  0.00     0.000 HD 
HETATM   26  C   UNL     1     -12.266   9.707  71.124  1.00  0.00    -0.437 A  
ENDBRANCH  14  15
ENDBRANCH  12  14
ENDBRANCH  11  12
ENDBRANCH   3   8
TORSDOF 5
ENDMDL
MODEL      252
REMARK 921   NORMALIZED FREE ENERGY PREDICTED BY IDOCK:   -3.44 KCAL/MOL
REMARK 922        TOTAL FREE ENERGY PREDICTED BY IDOCK:   -4.90 KCAL/MOL
REMARK 923 INTER-LIGAND FREE ENERGY PREDICTED BY IDOCK:   -4.45 KCAL/MOL
REMARK 924 INTRA-LIGAND FREE ENERGY PREDICTED BY IDOCK:   -0.45 KCAL/MOL
REMARK 927      BINDING AFFINITY PREDICTED BY RF-SCORE:    0.00 PKD
ROOT
HETATM    1  N   UNL     1     -11.205  15.217  66.917  1.00  0.00    -0.298 NA 
HETATM    2  H1  UNL     1     -11.944  15.144  66.218  1.00  0.00     0.000 HD 
HETATM    3  CA  UNL     1     -10.346  13.999  66.926  1.00  0.00    -0.269 C  
HETATM    4  H2  UNL     1     -10.651  16.065  66.790  1.00  0.00     0.000 HD 
ENDROOT
BRANCH   3   5
HETATM    5  C   UNL     1      -9.234  14.109  67.978  1.00  0.00    -0.195 C  
HETATM    6  H   UNL     1      -7.275  14.292  67.980  1.00  0.00     0.000 HD 
HETATM    7  O   UNL     1      -7.963  14.224  67.330  1.00  0.00    -0.192 OA 
ENDBRANCH   3   5
BRANCH   3   8
HETATM    8  C   UNL     1     -11.193  12.745  67.161  1.00  0.00    -0.292 C  
HETATM    9  O   UNL     1     -12.411  12.761  67.330  1.00  0.00    -0.168 OA 
HETATM   10  H   UNL     1      -9.428  11.616  67.083  1.00  0.00     0.000 HD 
HETATM   11  N   UNL     1     -10.437  11.581  67.227  1.00  0.00    -0.205 N  
BRANCH  11  12
HETATM   12  N   UNL     1     -11.073  10.352  67.493  1.00  0.00    -0.306 NA 
HETATM   13  H   UNL     1     -11.788  10.142  66.797  1.00  0.00     0.000 HD 
BRANCH  12  14
HETATM   14  C   UNL     1     -10.095   9.255  67.611  1.00  0.00    -0.214 C  
BRANCH  14  15
HETATM   15  C   UNL     1     -10.418   8.326  68.761  1.00  0.00    -0.200 A  
HETATM   16  C   UNL     1     -10.193   8.651  70.107  1.00  0.00    -0.192 A  
HETATM   17  O   UNL     1      -9.668   9.855  70.514  1.00  0.00    -0.359 OA 
HETATM   18  C   UNL     1     -10.507   7.746  71.118  1.00  0.00    -0.208 A  
HETATM   19  H   UNL     1      -9.516  10.075  71.425  1.00  0.00     0.000 HD 
HETATM   20  C   UNL     1     -11.025   6.498  70.811  1.00  0.00    -0.276 A  
HETATM   21  O   UNL     1     -10.319   8.085  72.432  1.00  0.00    -0.240 OA 
HETATM   22  H   UNL     1     -10.534   7.468  73.122  1.00  0.00     0.000 HD 
HETATM   23  C   UNL     1     -11.229   6.132  69.490  1.00  0.00    -0.482 A  
HETATM   24  O   UNL     1     -11.333   5.619  71.810  1.00  0.00    -0.221 OA 
HETATM   25  H   UNL     1     -11.688   4.763  71.600  1.00  0.00     0.000 HD 
HETATM   26  C   UNL     1     -10.924   7.042  68.469  1.00  0.00    -0.135 A  
ENDBRANCH  14  15
ENDBRANCH  12  14
ENDBRANCH  11  12
ENDBRANCH   3   8
TORSDOF 5
ENDMDL
MODEL      253
REMARK 921   NORMALIZED FREE ENERGY PREDICTED BY IDOCK:   -3.44 KCAL/MOL
REMARK 922        TOTAL FREE ENERGY PREDICTED BY IDOCK:   -4.89 KCAL/MOL
REMARK 923 INTER-LIGAND FREE ENERGY PREDICTED BY IDOCK:   -4.35 KCAL/MOL
REMARK 924 INTRA-LIGAND FREE ENERGY PREDICTED BY IDOCK:   -0.54 KCAL/MOL
REMARK 927      BINDING AFFINITY PREDICTED BY RF-SCORE:    0.00 PKD
ROOT
HETATM    1  N   UNL     1     -11.542  16.391  70.493  1.00  0.00    -0.492 NA 
HETATM    2  H1  UNL     1     -12.045  15.831  71.182  1.00  0.00     0.000 HD 
HETATM    3  CA  UNL     1     -11.667  15.808  69.127  1.00  0.00    -0.388 C  
HETATM    4  H2  UNL     1     -11.841  17.367  70.513  1.00  0.00     0.000 HD 
ENDROOT
BRANCH   3   5
HETATM    5  C   UNL     1     -10.910  16.650  68.091  1.00  0.00    -0.348 C  
HETATM    6  H   UNL     1      -9.757  18.244  68.104  1.00  0.00     0.000 HD 
HETATM    7  O   UNL     1     -10.225  17.723  68.745  1.00  0.00    -0.366 OA 
ENDBRANCH   3   5
BRANCH   3   8
HETATM    8  C   UNL     1     -11.173  14.359  69.114  1.00  0.00    -0.272 C  
HETATM    9  O   UNL     1     -11.758  13.428  69.667  1.00  0.00    -0.294 OA 
HETATM   10  H   UNL     1      -9.503  15.004  68.022  1.00  0.00     0.000 HD 
HETATM   11  N   UNL     1      -9.954  14.203  68.464  1.00  0.00    -0.234 N  
BRANCH  11  12
HETATM   12  N   UNL     1      -9.346  12.933  68.419  1.00  0.00    -0.326 NA 
HETATM   13  H   UNL     1      -9.657  12.342  69.189  1.00  0.00     0.000 HD 
BRANCH  12  14
HETATM   14  C   UNL     1      -9.563  12.280  67.115  1.00  0.00    -0.200 C  
BRANCH  14  15
HETATM   15  C   UNL     1      -9.320  10.787  67.179  1.00  0.00    -0.171 A  
HETATM   16  C   UNL     1      -8.120  10.216  67.628  1.00  0.00    -0.109 A  
HETATM   17  O   UNL     1      -7.050  10.959  68.068  1.00  0.00    -0.075 OA 
HETATM   18  C   UNL     1      -7.959   8.833  67.655  1.00  0.00    -0.106 A  
HETATM   19  H   UNL     1      -6.238  10.573  68.372  1.00  0.00     0.000 HD 
HETATM   20  C   UNL     1      -8.972   7.996  67.216  1.00  0.00    -0.138 A  
HETATM   21  O   UNL     1      -6.797   8.282  68.130  1.00  0.00    -0.066 OA 
HETATM   22  H   UNL     1      -6.687   7.339  68.149  1.00  0.00     0.000 HD 
HETATM   23  C   UNL     1     -10.158   8.528  66.736  1.00  0.00    -0.369 A  
HETATM   24  O   UNL     1      -8.805   6.641  67.251  1.00  0.00    -0.117 OA 
HETATM   25  H   UNL     1      -9.500   6.067  66.949  1.00  0.00     0.000 HD 
HETATM   26  C   UNL     1     -10.329   9.918  66.715  1.00  0.00    -0.285 A  
ENDBRANCH  14  15
ENDBRANCH  12  14
ENDBRANCH  11  12
ENDBRANCH   3   8
TORSDOF 5
ENDMDL
MODEL      254
REMARK 921   NORMALIZED FREE ENERGY PREDICTED BY IDOCK:   -3.41 KCAL/MOL
REMARK 922        TOTAL FREE ENERGY PREDICTED BY IDOCK:   -4.86 KCAL/MOL
REMARK 923 INTER-LIGAND FREE ENERGY PREDICTED BY IDOCK:   -3.90 KCAL/MOL
REMARK 924 INTRA-LIGAND FREE ENERGY PREDICTED BY IDOCK:   -0.96 KCAL/MOL
REMARK 927      BINDING AFFINITY PREDICTED BY RF-SCORE:    0.00 PKD
ROOT
HETATM    1  N   UNL     1      -7.053   6.995  73.279  1.00  0.00    -0.073 NA 
HETATM    2  H1  UNL     1      -7.130   7.837  72.708  1.00  0.00     0.000 HD 
HETATM    3  CA  UNL     1      -7.552   5.797  72.546  1.00  0.00    -0.101 C  
HETATM    4  H2  UNL     1      -6.100   6.858  73.617  1.00  0.00     0.000 HD 
ENDROOT
BRANCH   3   5
HETATM    5  C   UNL     1      -7.436   4.531  73.404  1.00  0.00    -0.082 C  
HETATM    6  H   UNL     1      -8.452   3.691  74.865  1.00  0.00     0.000 HD 
HETATM    7  O   UNL     1      -8.524   4.474  74.333  1.00  0.00    -0.099 OA 
ENDBRANCH   3   5
BRANCH   3   8
HETATM    8  C   UNL     1      -8.996   6.012  72.085  1.00  0.00    -0.142 C  
HETATM    9  O   UNL     1      -9.577   5.284  71.281  1.00  0.00    -0.150 OA 
HETATM   10  H   UNL     1      -9.055   7.732  73.283  1.00  0.00     0.000 HD 
HETATM   11  N   UNL     1      -9.576   7.156  72.621  1.00  0.00    -0.145 N  
BRANCH  11  12
HETATM   12  N   UNL     1     -10.885   7.515  72.246  1.00  0.00    -0.241 NA 
HETATM   13  H   UNL     1     -11.513   7.532  73.049  1.00  0.00     0.000 HD 
BRANCH  12  14
HETATM   14  C   UNL     1     -10.903   8.797  71.518  1.00  0.00    -0.304 C  
BRANCH  14  15
HETATM   15  C   UNL     1     -10.623   8.616  70.041  1.00  0.00    -0.233 A  
HETATM   16  C   UNL     1     -11.137   7.557  69.279  1.00  0.00     0.050 A  
HETATM   17  O   UNL     1     -11.959   6.585  69.798  1.00  0.00    -0.625 OA 
HETATM   18  C   UNL     1     -10.834   7.446  67.924  1.00  0.00    -0.081 A  
HETATM   19  H   UNL     1     -12.307   5.868  69.281  1.00  0.00     0.000 HD 
HETATM   20  C   UNL     1      -9.999   8.366  67.310  1.00  0.00    -0.227 A  
HETATM   21  O   UNL     1     -11.370   6.429  67.178  1.00  0.00    -0.677 OA 
HETATM   22  H   UNL     1     -11.164   6.353  66.253  1.00  0.00     0.000 HD 
HETATM   23  C   UNL     1      -9.449   9.405  68.041  1.00  0.00    -0.148 A  
HETATM   24  O   UNL     1      -9.712   8.249  65.980  1.00  0.00    -0.431 OA 
HETATM   25  H   UNL     1      -9.140   8.880  65.559  1.00  0.00     0.000 HD 
HETATM   26  C   UNL     1      -9.757   9.528  69.403  1.00  0.00    -0.190 A  
ENDBRANCH  14  15
ENDBRANCH  12  14
ENDBRANCH  11  12
ENDBRANCH   3   8
TORSDOF 5
ENDMDL
MODEL      255
REMARK 921   NORMALIZED FREE ENERGY PREDICTED BY IDOCK:   -3.40 KCAL/MOL
REMARK 922        TOTAL FREE ENERGY PREDICTED BY IDOCK:   -4.85 KCAL/MOL
REMARK 923 INTER-LIGAND FREE ENERGY PREDICTED BY IDOCK:   -4.02 KCAL/MOL
REMARK 924 INTRA-LIGAND FREE ENERGY PREDICTED BY IDOCK:   -0.83 KCAL/MOL
REMARK 927      BINDING AFFINITY PREDICTED BY RF-SCORE:    0.00 PKD
ROOT
HETATM    1  N   UNL     1      -9.411   8.160  72.429  1.00  0.00    -0.213 NA 
HETATM    2  H1  UNL     1     -10.112   7.546  72.845  1.00  0.00     0.000 HD 
HETATM    3  CA  UNL     1      -9.834   8.624  71.077  1.00  0.00    -0.210 C  
HETATM    4  H2  UNL     1      -9.188   8.945  73.042  1.00  0.00     0.000 HD 
ENDROOT
BRANCH   3   5
HETATM    5  C   UNL     1      -8.781   9.548  70.451  1.00  0.00    -0.223 C  
HETATM    6  H   UNL     1      -7.000  10.228  70.935  1.00  0.00     0.000 HD 
HETATM    7  O   UNL     1      -7.651   9.656  71.323  1.00  0.00    -0.295 OA 
ENDBRANCH   3   5
BRANCH   3   8
HETATM    8  C   UNL     1     -10.122   7.430  70.164  1.00  0.00    -0.197 C  
HETATM    9  O   UNL     1     -11.135   7.318  69.476  1.00  0.00    -0.204 OA 
HETATM   10  H   UNL     1      -8.322   6.576  70.820  1.00  0.00     0.000 HD 
HETATM   11  N   UNL     1      -9.146   6.443  70.234  1.00  0.00    -0.154 N  
BRANCH  11  12
HETATM   12  N   UNL     1      -9.300   5.256  69.489  1.00  0.00    -0.123 NA 
HETATM   13  H   UNL     1     -10.226   5.198  69.065  1.00  0.00     0.000 HD 
BRANCH  12  14
HETATM   14  C   UNL     1      -8.234   5.112  68.481  1.00  0.00    -0.089 C  
BRANCH  14  15
HETATM   15  C   UNL     1      -8.738   4.462  67.210  1.00  0.00    -0.108 A  
HETATM   16  C   UNL     1      -9.980   4.755  66.629  1.00  0.00    -0.235 A  
HETATM   17  O   UNL     1     -10.858   5.675  67.152  1.00  0.00    -0.353 OA 
HETATM   18  C   UNL     1     -10.387   4.115  65.461  1.00  0.00    -0.124 A  
HETATM   19  H   UNL     1     -11.699   5.874  66.759  1.00  0.00     0.000 HD 
HETATM   20  C   UNL     1      -9.581   3.158  64.865  1.00  0.00    -0.119 A  
HETATM   21  O   UNL     1     -11.585   4.435  64.879  1.00  0.00    -1.053 OA 
HETATM   22  H   UNL     1     -11.863   3.998  64.082  1.00  0.00     0.000 HD 
HETATM   23  C   UNL     1      -8.362   2.821  65.430  1.00  0.00    -0.095 A  
HETATM   24  O   UNL     1      -9.988   2.540  63.717  1.00  0.00    -0.138 OA 
HETATM   25  H   UNL     1      -9.435   1.883  63.308  1.00  0.00     0.000 HD 
HETATM   26  C   UNL     1      -7.944   3.469  66.600  1.00  0.00    -0.088 A  
ENDBRANCH  14  15
ENDBRANCH  12  14
ENDBRANCH  11  12
ENDBRANCH   3   8
TORSDOF 5
ENDMDL
MODEL      256
REMARK 921   NORMALIZED FREE ENERGY PREDICTED BY IDOCK:   -3.40 KCAL/MOL
REMARK 922        TOTAL FREE ENERGY PREDICTED BY IDOCK:   -4.84 KCAL/MOL
REMARK 923 INTER-LIGAND FREE ENERGY PREDICTED BY IDOCK:   -4.62 KCAL/MOL
REMARK 924 INTRA-LIGAND FREE ENERGY PREDICTED BY IDOCK:   -0.22 KCAL/MOL
REMARK 927      BINDING AFFINITY PREDICTED BY RF-SCORE:    0.00 PKD
ROOT
HETATM    1  N   UNL     1     -11.709  14.853  67.135  1.00  0.00    -0.327 NA 
HETATM    2  H1  UNL     1     -12.338  14.852  66.331  1.00  0.00     0.000 HD 
HETATM    3  CA  UNL     1     -10.694  13.767  67.029  1.00  0.00    -0.283 C  
HETATM    4  H2  UNL     1     -11.271  15.765  67.266  1.00  0.00     0.000 HD 
ENDROOT
BRANCH   3   5
HETATM    5  C   UNL     1      -9.749  13.768  68.237  1.00  0.00    -0.231 C  
HETATM    6  H   UNL     1      -7.880  14.267  68.596  1.00  0.00     0.000 HD 
HETATM    7  O   UNL     1      -8.465  14.266  67.848  1.00  0.00    -0.149 OA 
ENDBRANCH   3   5
BRANCH   3   8
HETATM    8  C   UNL     1     -11.377  12.405  66.875  1.00  0.00    -0.333 C  
HETATM    9  O   UNL     1     -12.174  12.133  65.978  1.00  0.00    -0.609 OA 
HETATM   10  H   UNL     1     -10.392  11.786  68.619  1.00  0.00     0.000 HD 
HETATM   11  N   UNL     1     -11.056  11.516  67.893  1.00  0.00    -0.237 N  
BRANCH  11  12
HETATM   12  N   UNL     1     -11.652  10.239  67.917  1.00  0.00    -0.670 NA 
HETATM   13  H   UNL     1     -12.412  10.169  67.242  1.00  0.00     0.000 HD 
BRANCH  12  14
HETATM   14  C   UNL     1     -10.651   9.175  67.717  1.00  0.00    -0.227 C  
BRANCH  14  15
HETATM   15  C   UNL     1      -9.826   8.929  68.962  1.00  0.00    -0.182 A  
HETATM   16  C   UNL     1      -8.675   9.660  69.287  1.00  0.00    -0.159 A  
HETATM   17  O   UNL     1      -8.189  10.685  68.509  1.00  0.00    -0.114 OA 
HETATM   18  C   UNL     1      -7.957   9.377  70.446  1.00  0.00    -0.172 A  
HETATM   19  H   UNL     1      -7.409  11.180  68.729  1.00  0.00     0.000 HD 
HETATM   20  C   UNL     1      -8.355   8.350  71.288  1.00  0.00    -0.143 A  
HETATM   21  O   UNL     1      -6.855  10.121  70.775  1.00  0.00    -0.317 OA 
HETATM   22  H   UNL     1      -6.365   9.928  71.567  1.00  0.00     0.000 HD 
HETATM   23  C   UNL     1      -9.469   7.587  70.981  1.00  0.00    -0.162 A  
HETATM   24  O   UNL     1      -7.646   8.084  72.425  1.00  0.00    -0.096 OA 
HETATM   25  H   UNL     1      -7.919   7.380  73.002  1.00  0.00     0.000 HD 
HETATM   26  C   UNL     1     -10.200   7.874  69.820  1.00  0.00    -0.212 A  
ENDBRANCH  14  15
ENDBRANCH  12  14
ENDBRANCH  11  12
ENDBRANCH   3   8
TORSDOF 5
ENDMDL
MODEL      257
REMARK 921   NORMALIZED FREE ENERGY PREDICTED BY IDOCK:   -3.39 KCAL/MOL
REMARK 922        TOTAL FREE ENERGY PREDICTED BY IDOCK:   -4.83 KCAL/MOL
REMARK 923 INTER-LIGAND FREE ENERGY PREDICTED BY IDOCK:   -4.48 KCAL/MOL
REMARK 924 INTRA-LIGAND FREE ENERGY PREDICTED BY IDOCK:   -0.35 KCAL/MOL
REMARK 927      BINDING AFFINITY PREDICTED BY RF-SCORE:    0.00 PKD
ROOT
HETATM    1  N   UNL     1      -9.879   5.841  67.107  1.00  0.00    -0.134 NA 
HETATM    2  H1  UNL     1     -10.587   6.342  67.645  1.00  0.00     0.000 HD 
HETATM    3  CA  UNL     1      -8.960   5.079  68.000  1.00  0.00    -0.108 C  
HETATM    4  H2  UNL     1     -10.303   5.237  66.402  1.00  0.00     0.000 HD 
ENDROOT
BRANCH   3   5
HETATM    5  C   UNL     1      -7.897   4.325  67.191  1.00  0.00    -0.096 C  
HETATM    6  H   UNL     1      -6.819   4.657  65.579  1.00  0.00     0.000 HD 
HETATM    7  O   UNL     1      -7.477   5.123  66.080  1.00  0.00    -0.080 OA 
ENDBRANCH   3   5
BRANCH   3   8
HETATM    8  C   UNL     1      -8.305   6.014  69.020  1.00  0.00    -0.111 C  
HETATM    9  O   UNL     1      -7.332   6.726  68.776  1.00  0.00    -0.089 OA 
HETATM   10  H   UNL     1      -9.686   5.326  70.441  1.00  0.00     0.000 HD 
HETATM   11  N   UNL     1      -8.882   5.933  70.283  1.00  0.00    -0.141 N  
BRANCH  11  12
HETATM   12  N   UNL     1      -8.349   6.695  71.342  1.00  0.00    -0.120 NA 
HETATM   13  H   UNL     1      -8.034   7.611  71.022  1.00  0.00     0.000 HD 
BRANCH  12  14
HETATM   14  C   UNL     1      -9.309   6.812  72.454  1.00  0.00    -0.137 C  
BRANCH  14  15
HETATM   15  C   UNL     1     -10.550   7.582  72.056  1.00  0.00    -0.248 A  
HETATM   16  C   UNL     1     -11.848   7.056  72.134  1.00  0.00    -0.275 A  
HETATM   17  O   UNL     1     -12.120   5.789  72.595  1.00  0.00    -0.518 OA 
HETATM   18  C   UNL     1     -12.947   7.816  71.745  1.00  0.00    -0.323 A  
HETATM   19  H   UNL     1     -12.999   5.432  72.648  1.00  0.00     0.000 HD 
HETATM   20  C   UNL     1     -12.777   9.099  71.249  1.00  0.00    -0.278 A  
HETATM   21  O   UNL     1     -14.214   7.308  71.859  1.00  0.00    -0.524 OA 
HETATM   22  H   UNL     1     -14.965   7.827  71.594  1.00  0.00     0.000 HD 
HETATM   23  C   UNL     1     -11.507   9.638  71.128  1.00  0.00    -0.456 A  
HETATM   24  O   UNL     1     -13.863   9.838  70.874  1.00  0.00    -0.452 OA 
HETATM   25  H   UNL     1     -13.746  10.718  70.534  1.00  0.00     0.000 HD 
HETATM   26  C   UNL     1     -10.397   8.881  71.528  1.00  0.00    -0.394 A  
ENDBRANCH  14  15
ENDBRANCH  12  14
ENDBRANCH  11  12
ENDBRANCH   3   8
TORSDOF 5
ENDMDL
MODEL      258
REMARK 921   NORMALIZED FREE ENERGY PREDICTED BY IDOCK:   -3.38 KCAL/MOL
REMARK 922        TOTAL FREE ENERGY PREDICTED BY IDOCK:   -4.82 KCAL/MOL
REMARK 923 INTER-LIGAND FREE ENERGY PREDICTED BY IDOCK:   -3.97 KCAL/MOL
REMARK 924 INTRA-LIGAND FREE ENERGY PREDICTED BY IDOCK:   -0.85 KCAL/MOL
REMARK 927      BINDING AFFINITY PREDICTED BY RF-SCORE:    0.00 PKD
ROOT
HETATM    1  N   UNL     1     -12.895   9.973  71.689  1.00  0.00    -0.404 NA 
HETATM    2  H1  UNL     1     -12.478  10.767  72.176  1.00  0.00     0.000 HD 
HETATM    3  CA  UNL     1     -12.341   8.682  72.185  1.00  0.00    -0.386 C  
HETATM    4  H2  UNL     1     -13.914   9.991  71.747  1.00  0.00     0.000 HD 
ENDROOT
BRANCH   3   5
HETATM    5  C   UNL     1     -12.968   7.489  71.453  1.00  0.00    -0.335 C  
HETATM    6  H   UNL     1     -12.687   5.543  71.377  1.00  0.00     0.000 HD 
HETATM    7  O   UNL     1     -12.299   6.281  71.831  1.00  0.00    -0.312 OA 
ENDBRANCH   3   5
BRANCH   3   8
HETATM    8  C   UNL     1     -10.816   8.663  72.048  1.00  0.00    -0.360 C  
HETATM    9  O   UNL     1     -10.204   9.154  71.100  1.00  0.00    -0.262 OA 
HETATM   10  H   UNL     1     -10.732   7.582  73.843  1.00  0.00     0.000 HD 
HETATM   11  N   UNL     1     -10.184   7.976  73.078  1.00  0.00    -0.322 N  
BRANCH  11  12
HETATM   12  N   UNL     1      -8.783   7.827  73.059  1.00  0.00    -0.164 NA 
HETATM   13  H   UNL     1      -8.337   8.387  73.785  1.00  0.00     0.000 HD 
BRANCH  12  14
HETATM   14  C   UNL     1      -8.392   6.408  73.155  1.00  0.00    -0.115 C  
BRANCH  14  15
HETATM   15  C   UNL     1      -8.671   5.654  71.872  1.00  0.00    -0.135 A  
HETATM   16  C   UNL     1      -8.423   6.178  70.595  1.00  0.00    -0.134 A  
HETATM   17  O   UNL     1      -7.888   7.428  70.385  1.00  0.00    -0.095 OA 
HETATM   18  C   UNL     1      -8.708   5.433  69.454  1.00  0.00    -0.105 A  
HETATM   19  H   UNL     1      -7.720   7.783  69.520  1.00  0.00     0.000 HD 
HETATM   20  C   UNL     1      -9.266   4.169  69.559  1.00  0.00    -0.146 A  
HETATM   21  O   UNL     1      -8.429   5.938  68.211  1.00  0.00    -0.114 OA 
HETATM   22  H   UNL     1      -8.623   5.429  67.433  1.00  0.00     0.000 HD 
HETATM   23  C   UNL     1      -9.554   3.634  70.804  1.00  0.00    -0.249 A  
HETATM   24  O   UNL     1      -9.539   3.445  68.433  1.00  0.00    -0.166 OA 
HETATM   25  H   UNL     1      -9.921   2.578  68.505  1.00  0.00     0.000 HD 
HETATM   26  C   UNL     1      -9.260   4.375  71.956  1.00  0.00    -0.169 A  
ENDBRANCH  14  15
ENDBRANCH  12  14
ENDBRANCH  11  12
ENDBRANCH   3   8
TORSDOF 5
ENDMDL
MODEL      259
REMARK 921   NORMALIZED FREE ENERGY PREDICTED BY IDOCK:   -3.37 KCAL/MOL
REMARK 922        TOTAL FREE ENERGY PREDICTED BY IDOCK:   -4.81 KCAL/MOL
REMARK 923 INTER-LIGAND FREE ENERGY PREDICTED BY IDOCK:   -4.31 KCAL/MOL
REMARK 924 INTRA-LIGAND FREE ENERGY PREDICTED BY IDOCK:   -0.50 KCAL/MOL
REMARK 927      BINDING AFFINITY PREDICTED BY RF-SCORE:    0.00 PKD
ROOT
HETATM    1  N   UNL     1     -12.150  11.138  68.287  1.00  0.00    -0.735 NA 
HETATM    2  H1  UNL     1     -12.879  10.543  68.680  1.00  0.00     0.000 HD 
HETATM    3  CA  UNL     1     -10.939  10.345  67.930  1.00  0.00    -0.297 C  
HETATM    4  H2  UNL     1     -12.494  11.676  67.491  1.00  0.00     0.000 HD 
ENDROOT
BRANCH   3   5
HETATM    5  C   UNL     1      -9.842  11.240  67.338  1.00  0.00    -0.181 C  
HETATM    6  H   UNL     1      -8.772  11.298  65.689  1.00  0.00     0.000 HD 
HETATM    7  O   UNL     1      -9.451  10.744  66.055  1.00  0.00    -0.181 OA 
ENDBRANCH   3   5
BRANCH   3   8
HETATM    8  C   UNL     1     -10.418   9.581  69.150  1.00  0.00    -0.210 C  
HETATM    9  O   UNL     1     -10.815   9.767  70.299  1.00  0.00    -0.254 OA 
HETATM   10  H   UNL     1      -9.097   8.571  67.873  1.00  0.00     0.000 HD 
HETATM   11  N   UNL     1      -9.397   8.691  68.840  1.00  0.00    -0.145 N  
BRANCH  11  12
HETATM   12  N   UNL     1      -8.778   7.954  69.870  1.00  0.00    -0.139 NA 
HETATM   13  H   UNL     1      -9.111   8.245  70.789  1.00  0.00     0.000 HD 
BRANCH  12  14
HETATM   14  C   UNL     1      -8.947   6.504  69.669  1.00  0.00    -0.141 C  
BRANCH  14  15
HETATM   15  C   UNL     1      -9.481   5.816  70.907  1.00  0.00    -0.196 A  
HETATM   16  C   UNL     1      -9.865   6.501  72.069  1.00  0.00    -0.158 A  
HETATM   17  O   UNL     1      -9.806   7.869  72.192  1.00  0.00    -0.178 OA 
HETATM   18  C   UNL     1     -10.343   5.806  73.178  1.00  0.00    -0.205 A  
HETATM   19  H   UNL     1     -10.067   8.333  72.979  1.00  0.00     0.000 HD 
HETATM   20  C   UNL     1     -10.424   4.423  73.161  1.00  0.00    -0.184 A  
HETATM   21  O   UNL     1     -10.751   6.485  74.296  1.00  0.00    -0.420 OA 
HETATM   22  H   UNL     1     -11.077   6.011  75.052  1.00  0.00     0.000 HD 
HETATM   23  C   UNL     1     -10.022   3.713  72.042  1.00  0.00    -0.232 A  
HETATM   24  O   UNL     1     -10.898   3.751  74.252  1.00  0.00    -0.194 OA 
HETATM   25  H   UNL     1     -10.954   2.803  74.241  1.00  0.00     0.000 HD 
HETATM   26  C   UNL     1      -9.550   4.407  70.920  1.00  0.00    -0.255 A  
ENDBRANCH  14  15
ENDBRANCH  12  14
ENDBRANCH  11  12
ENDBRANCH   3   8
TORSDOF 5
ENDMDL
MODEL      260
REMARK 921   NORMALIZED FREE ENERGY PREDICTED BY IDOCK:   -3.35 KCAL/MOL
REMARK 922        TOTAL FREE ENERGY PREDICTED BY IDOCK:   -4.77 KCAL/MOL
REMARK 923 INTER-LIGAND FREE ENERGY PREDICTED BY IDOCK:   -4.45 KCAL/MOL
REMARK 924 INTRA-LIGAND FREE ENERGY PREDICTED BY IDOCK:   -0.32 KCAL/MOL
REMARK 927      BINDING AFFINITY PREDICTED BY RF-SCORE:    0.00 PKD
ROOT
HETATM    1  N   UNL     1      -9.664   7.335  66.341  1.00  0.00    -0.385 NA 
HETATM    2  H1  UNL     1      -8.956   6.654  66.065  1.00  0.00     0.000 HD 
HETATM    3  CA  UNL     1      -9.366   7.909  67.685  1.00  0.00    -0.143 C  
HETATM    4  H2  UNL     1      -9.776   8.066  65.638  1.00  0.00     0.000 HD 
ENDROOT
BRANCH   3   5
HETATM    5  C   UNL     1     -10.430   8.933  68.101  1.00  0.00    -0.202 C  
HETATM    6  H   UNL     1     -11.006  10.720  67.515  1.00  0.00     0.000 HD 
HETATM    7  O   UNL     1     -10.348  10.087  67.257  1.00  0.00    -0.208 OA 
ENDBRANCH   3   5
BRANCH   3   8
HETATM    8  C   UNL     1      -9.245   6.796  68.730  1.00  0.00    -0.130 C  
HETATM    9  O   UNL     1      -9.718   5.669  68.592  1.00  0.00    -0.124 OA 
HETATM   10  H   UNL     1      -8.222   8.152  69.960  1.00  0.00     0.000 HD 
HETATM   11  N   UNL     1      -8.596   7.205  69.889  1.00  0.00    -0.140 N  
BRANCH  11  12
HETATM   12  N   UNL     1      -8.457   6.305  70.964  1.00  0.00    -0.127 NA 
HETATM   13  H   UNL     1      -7.489   6.008  71.081  1.00  0.00     0.000 HD 
BRANCH  12  14
HETATM   14  C   UNL     1      -9.003   6.870  72.211  1.00  0.00    -0.134 C  
BRANCH  14  15
HETATM   15  C   UNL     1     -10.359   7.510  72.000  1.00  0.00    -0.236 A  
HETATM   16  C   UNL     1     -11.558   6.784  71.949  1.00  0.00    -0.292 A  
HETATM   17  O   UNL     1     -11.620   5.419  72.101  1.00  0.00    -0.120 OA 
HETATM   18  C   UNL     1     -12.773   7.434  71.745  1.00  0.00    -0.334 A  
HETATM   19  H   UNL     1     -12.433   4.928  72.067  1.00  0.00     0.000 HD 
HETATM   20  C   UNL     1     -12.816   8.807  71.563  1.00  0.00    -0.325 A  
HETATM   21  O   UNL     1     -13.944   6.723  71.734  1.00  0.00    -0.356 OA 
HETATM   22  H   UNL     1     -14.773   7.166  71.595  1.00  0.00     0.000 HD 
HETATM   23  C   UNL     1     -11.647   9.550  71.574  1.00  0.00    -0.465 A  
HETATM   24  O   UNL     1     -14.013   9.435  71.367  1.00  0.00    -0.301 OA 
HETATM   25  H   UNL     1     -14.043  10.377  71.242  1.00  0.00     0.000 HD 
HETATM   26  C   UNL     1     -10.423   8.903  71.790  1.00  0.00    -0.431 A  
ENDBRANCH  14  15
ENDBRANCH  12  14
ENDBRANCH  11  12
ENDBRANCH   3   8
TORSDOF 5
ENDMDL
MODEL      261
REMARK 921   NORMALIZED FREE ENERGY PREDICTED BY IDOCK:   -3.33 KCAL/MOL
REMARK 922        TOTAL FREE ENERGY PREDICTED BY IDOCK:   -4.75 KCAL/MOL
REMARK 923 INTER-LIGAND FREE ENERGY PREDICTED BY IDOCK:   -4.46 KCAL/MOL
REMARK 924 INTRA-LIGAND FREE ENERGY PREDICTED BY IDOCK:   -0.30 KCAL/MOL
REMARK 927      BINDING AFFINITY PREDICTED BY RF-SCORE:    0.00 PKD
ROOT
HETATM    1  N   UNL     1     -10.828  13.728  67.188  1.00  0.00    -0.281 NA 
HETATM    2  H1  UNL     1     -11.820  13.822  66.967  1.00  0.00     0.000 HD 
HETATM    3  CA  UNL     1     -10.305  12.397  66.765  1.00  0.00    -0.221 C  
HETATM    4  H2  UNL     1     -10.281  14.490  66.787  1.00  0.00     0.000 HD 
ENDROOT
BRANCH   3   5
HETATM    5  C   UNL     1      -8.814  12.254  67.097  1.00  0.00    -0.194 C  
HETATM    6  H   UNL     1      -7.559  13.007  68.411  1.00  0.00     0.000 HD 
HETATM    7  O   UNL     1      -8.481  13.095  68.206  1.00  0.00    -0.164 OA 
ENDBRANCH   3   5
BRANCH   3   8
HETATM    8  C   UNL     1     -11.116  11.271  67.412  1.00  0.00    -0.297 C  
HETATM    9  O   UNL     1     -12.179  11.443  68.007  1.00  0.00    -0.607 OA 
HETATM   10  H   UNL     1      -9.615   9.934  66.815  1.00  0.00     0.000 HD 
HETATM   11  N   UNL     1     -10.498  10.029  67.316  1.00  0.00    -0.241 N  
BRANCH  11  12
HETATM   12  N   UNL     1     -11.099   8.904  67.914  1.00  0.00    -0.464 NA 
HETATM   13  H   UNL     1     -12.107   9.025  68.010  1.00  0.00     0.000 HD 
BRANCH  12  14
HETATM   14  C   UNL     1     -10.771   7.667  67.181  1.00  0.00    -0.290 C  
BRANCH  14  15
HETATM   15  C   UNL     1     -10.360   6.547  68.113  1.00  0.00    -0.223 A  
HETATM   16  C   UNL     1      -9.351   5.621  67.813  1.00  0.00    -0.110 A  
HETATM   17  O   UNL     1      -8.625   5.649  66.645  1.00  0.00    -0.115 OA 
HETATM   18  C   UNL     1      -9.026   4.608  68.712  1.00  0.00    -0.108 A  
HETATM   19  H   UNL     1      -7.941   5.021  66.442  1.00  0.00     0.000 HD 
HETATM   20  C   UNL     1      -9.711   4.483  69.910  1.00  0.00    -0.218 A  
HETATM   21  O   UNL     1      -8.013   3.730  68.428  1.00  0.00    -0.071 OA 
HETATM   22  H   UNL     1      -7.791   3.040  69.042  1.00  0.00     0.000 HD 
HETATM   23  C   UNL     1     -10.735   5.362  70.223  1.00  0.00    -0.286 A  
HETATM   24  O   UNL     1      -9.382   3.489  70.787  1.00  0.00    -0.128 OA 
HETATM   25  H   UNL     1      -9.851   3.403  71.609  1.00  0.00     0.000 HD 
HETATM   26  C   UNL     1     -11.060   6.388  69.327  1.00  0.00    -0.437 A  
ENDBRANCH  14  15
ENDBRANCH  12  14
ENDBRANCH  11  12
ENDBRANCH   3   8
TORSDOF 5
ENDMDL
MODEL      262
REMARK 921   NORMALIZED FREE ENERGY PREDICTED BY IDOCK:   -3.32 KCAL/MOL
REMARK 922        TOTAL FREE ENERGY PREDICTED BY IDOCK:   -4.74 KCAL/MOL
REMARK 923 INTER-LIGAND FREE ENERGY PREDICTED BY IDOCK:   -4.49 KCAL/MOL
REMARK 924 INTRA-LIGAND FREE ENERGY PREDICTED BY IDOCK:   -0.25 KCAL/MOL
REMARK 927      BINDING AFFINITY PREDICTED BY RF-SCORE:    0.00 PKD
ROOT
HETATM    1  N   UNL     1      -5.733   7.190  64.323  1.00  0.00    -0.033 NA 
HETATM    2  H1  UNL     1      -5.286   8.023  63.938  1.00  0.00     0.000 HD 
HETATM    3  CA  UNL     1      -7.040   6.922  63.659  1.00  0.00    -0.061 C  
HETATM    4  H2  UNL     1      -5.116   6.379  64.277  1.00  0.00     0.000 HD 
ENDROOT
BRANCH   3   5
HETATM    5  C   UNL     1      -7.712   5.670  64.237  1.00  0.00    -0.098 C  
HETATM    6  H   UNL     1      -7.556   4.583  65.869  1.00  0.00     0.000 HD 
HETATM    7  O   UNL     1      -7.140   5.358  65.511  1.00  0.00    -0.064 OA 
ENDBRANCH   3   5
BRANCH   3   8
HETATM    8  C   UNL     1      -7.963   8.138  63.778  1.00  0.00    -0.137 C  
HETATM    9  O   UNL     1      -8.101   8.986  62.897  1.00  0.00    -0.147 OA 
HETATM   10  H   UNL     1      -8.444   7.503  65.718  1.00  0.00     0.000 HD 
HETATM   11  N   UNL     1      -8.590   8.228  65.015  1.00  0.00    -0.124 N  
BRANCH  11  12
HETATM   12  N   UNL     1      -9.428   9.326  65.293  1.00  0.00    -0.428 NA 
HETATM   13  H   UNL     1     -10.413   9.070  65.229  1.00  0.00     0.000 HD 
BRANCH  12  14
HETATM   14  C   UNL     1      -9.110   9.926  66.602  1.00  0.00    -0.147 C  
BRANCH  14  15
HETATM   15  C   UNL     1      -9.978  11.131  66.900  1.00  0.00    -0.230 A  
HETATM   16  C   UNL     1      -9.891  11.873  68.086  1.00  0.00    -0.192 A  
HETATM   17  O   UNL     1      -8.997  11.587  69.091  1.00  0.00    -0.380 OA 
HETATM   18  C   UNL     1     -10.724  12.968  68.301  1.00  0.00    -0.245 A  
HETATM   19  H   UNL     1      -8.937  12.090  69.894  1.00  0.00     0.000 HD 
HETATM   20  C   UNL     1     -11.672  13.329  67.357  1.00  0.00    -0.373 A  
HETATM   21  O   UNL     1     -10.607  13.711  69.447  1.00  0.00    -0.439 OA 
HETATM   22  H   UNL     1     -11.176  14.458  69.593  1.00  0.00     0.000 HD 
HETATM   23  C   UNL     1     -11.807  12.597  66.189  1.00  0.00    -0.477 A  
HETATM   24  O   UNL     1     -12.482  14.406  67.576  1.00  0.00    -0.599 OA 
HETATM   25  H   UNL     1     -13.132  14.654  66.928  1.00  0.00     0.000 HD 
HETATM   26  C   UNL     1     -10.964  11.500  65.962  1.00  0.00    -0.316 A  
ENDBRANCH  14  15
ENDBRANCH  12  14
ENDBRANCH  11  12
ENDBRANCH   3   8
TORSDOF 5
ENDMDL
MODEL      263
REMARK 921   NORMALIZED FREE ENERGY PREDICTED BY IDOCK:   -3.31 KCAL/MOL
REMARK 922        TOTAL FREE ENERGY PREDICTED BY IDOCK:   -4.73 KCAL/MOL
REMARK 923 INTER-LIGAND FREE ENERGY PREDICTED BY IDOCK:   -4.42 KCAL/MOL
REMARK 924 INTRA-LIGAND FREE ENERGY PREDICTED BY IDOCK:   -0.31 KCAL/MOL
REMARK 927      BINDING AFFINITY PREDICTED BY RF-SCORE:    0.00 PKD
ROOT
HETATM    1  N   UNL     1     -10.400   4.982  68.545  1.00  0.00    -0.081 NA 
HETATM    2  H1  UNL     1     -10.403   5.030  67.525  1.00  0.00     0.000 HD 
HETATM    3  CA  UNL     1     -10.927   6.240  69.147  1.00  0.00    -0.377 C  
HETATM    4  H2  UNL     1     -10.907   4.164  68.882  1.00  0.00     0.000 HD 
ENDROOT
BRANCH   3   5
HETATM    5  C   UNL     1     -10.922   6.167  70.679  1.00  0.00    -0.311 C  
HETATM    6  H   UNL     1     -12.201   6.506  72.135  1.00  0.00     0.000 HD 
HETATM    7  O   UNL     1     -12.204   6.550  71.187  1.00  0.00    -0.335 OA 
ENDBRANCH   3   5
BRANCH   3   8
HETATM    8  C   UNL     1     -10.123   7.448  68.658  1.00  0.00    -0.179 C  
HETATM    9  O   UNL     1      -8.912   7.427  68.443  1.00  0.00    -0.135 OA 
HETATM   10  H   UNL     1     -11.891   8.573  68.730  1.00  0.00     0.000 HD 
HETATM   11  N   UNL     1     -10.890   8.601  68.538  1.00  0.00    -0.029 N  
BRANCH  11  12
HETATM   12  N   UNL     1     -10.276   9.809  68.150  1.00  0.00    -0.176 NA 
HETATM   13  H   UNL     1     -10.495  10.045  67.183  1.00  0.00     0.000 HD 
BRANCH  12  14
HETATM   14  C   UNL     1     -10.626  10.908  69.068  1.00  0.00    -0.216 C  
BRANCH  14  15
HETATM   15  C   UNL     1     -10.643  12.250  68.367  1.00  0.00    -0.250 A  
HETATM   16  C   UNL     1      -9.552  13.130  68.352  1.00  0.00    -0.186 A  
HETATM   17  O   UNL     1      -8.351  12.853  68.963  1.00  0.00    -0.335 OA 
HETATM   18  C   UNL     1      -9.636  14.355  67.694  1.00  0.00    -0.214 A  
HETATM   19  H   UNL     1      -7.612  13.449  68.953  1.00  0.00     0.000 HD 
HETATM   20  C   UNL     1     -10.809  14.736  67.062  1.00  0.00    -0.315 A  
HETATM   21  O   UNL     1      -8.553  15.193  67.652  1.00  0.00    -0.160 OA 
HETATM   22  H   UNL     1      -8.610  16.028  67.203  1.00  0.00     0.000 HD 
HETATM   23  C   UNL     1     -11.916  13.904  67.086  1.00  0.00    -0.455 A  
HETATM   24  O   UNL     1     -10.880  15.937  66.416  1.00  0.00    -0.288 OA 
HETATM   25  H   UNL     1     -11.684  16.198  65.983  1.00  0.00     0.000 HD 
HETATM   26  C   UNL     1     -11.834  12.667  67.738  1.00  0.00    -0.381 A  
ENDBRANCH  14  15
ENDBRANCH  12  14
ENDBRANCH  11  12
ENDBRANCH   3   8
TORSDOF 5
ENDMDL
MODEL      264
REMARK 921   NORMALIZED FREE ENERGY PREDICTED BY IDOCK:   -3.31 KCAL/MOL
REMARK 922        TOTAL FREE ENERGY PREDICTED BY IDOCK:   -4.73 KCAL/MOL
REMARK 923 INTER-LIGAND FREE ENERGY PREDICTED BY IDOCK:   -3.75 KCAL/MOL
REMARK 924 INTRA-LIGAND FREE ENERGY PREDICTED BY IDOCK:   -0.97 KCAL/MOL
REMARK 927      BINDING AFFINITY PREDICTED BY RF-SCORE:    0.00 PKD
ROOT
HETATM    1  N   UNL     1     -13.097   7.929  70.974  1.00  0.00    -0.538 NA 
HETATM    2  H1  UNL     1     -13.831   7.956  71.683  1.00  0.00     0.000 HD 
HETATM    3  CA  UNL     1     -12.391   6.616  70.977  1.00  0.00    -0.230 C  
HETATM    4  H2  UNL     1     -13.461   8.157  70.048  1.00  0.00     0.000 HD 
ENDROOT
BRANCH   3   5
HETATM    5  C   UNL     1     -11.288   6.575  69.911  1.00  0.00    -0.406 C  
HETATM    6  H   UNL     1      -9.970   5.268  69.261  1.00  0.00     0.000 HD 
HETATM    7  O   UNL     1     -10.652   5.293  69.920  1.00  0.00    -0.306 OA 
ENDBRANCH   3   5
BRANCH   3   8
HETATM    8  C   UNL     1     -11.817   6.317  72.364  1.00  0.00    -0.226 C  
HETATM    9  O   UNL     1     -12.025   5.275  72.984  1.00  0.00    -0.220 OA 
HETATM   10  H   UNL     1     -10.939   8.221  72.342  1.00  0.00     0.000 HD 
HETATM   11  N   UNL     1     -11.083   7.373  72.890  1.00  0.00    -0.343 N  
BRANCH  11  12
HETATM   12  N   UNL     1     -10.538   7.266  74.185  1.00  0.00    -0.547 NA 
HETATM   13  H   UNL     1     -10.826   6.401  74.642  1.00  0.00     0.000 HD 
BRANCH  12  14
HETATM   14  C   UNL     1      -9.070   7.403  74.163  1.00  0.00    -0.221 C  
BRANCH  14  15
HETATM   15  C   UNL     1      -8.410   6.311  73.348  1.00  0.00    -0.114 A  
HETATM   16  C   UNL     1      -8.640   4.943  73.554  1.00  0.00    -0.105 A  
HETATM   17  O   UNL     1      -9.501   4.460  74.511  1.00  0.00    -0.109 OA 
HETATM   18  C   UNL     1      -7.994   3.988  72.772  1.00  0.00    -0.084 A  
HETATM   19  H   UNL     1      -9.657   3.533  74.651  1.00  0.00     0.000 HD 
HETATM   20  C   UNL     1      -7.093   4.373  71.792  1.00  0.00    -0.054 A  
HETATM   21  O   UNL     1      -8.252   2.656  72.955  1.00  0.00    -0.067 OA 
HETATM   22  H   UNL     1      -7.812   2.004  72.422  1.00  0.00     0.000 HD 
HETATM   23  C   UNL     1      -6.818   5.714  71.584  1.00  0.00    -0.067 A  
HETATM   24  O   UNL     1      -6.468   3.429  71.028  1.00  0.00    -0.025 OA 
HETATM   25  H   UNL     1      -5.850   3.692  70.356  1.00  0.00     0.000 HD 
HETATM   26  C   UNL     1      -7.472   6.679  72.361  1.00  0.00    -0.093 A  
ENDBRANCH  14  15
ENDBRANCH  12  14
ENDBRANCH  11  12
ENDBRANCH   3   8
TORSDOF 5
ENDMDL
MODEL      265
REMARK 921   NORMALIZED FREE ENERGY PREDICTED BY IDOCK:   -3.30 KCAL/MOL
REMARK 922        TOTAL FREE ENERGY PREDICTED BY IDOCK:   -4.72 KCAL/MOL
REMARK 923 INTER-LIGAND FREE ENERGY PREDICTED BY IDOCK:   -4.28 KCAL/MOL
REMARK 924 INTRA-LIGAND FREE ENERGY PREDICTED BY IDOCK:   -0.44 KCAL/MOL
REMARK 927      BINDING AFFINITY PREDICTED BY RF-SCORE:    0.00 PKD
ROOT
HETATM    1  N   UNL     1     -11.069  11.178  68.776  1.00  0.00    -0.214 NA 
HETATM    2  H1  UNL     1     -10.690  11.781  68.045  1.00  0.00     0.000 HD 
HETATM    3  CA  UNL     1     -10.240   9.951  68.948  1.00  0.00    -0.196 C  
HETATM    4  H2  UNL     1     -11.181  11.681  69.656  1.00  0.00     0.000 HD 
ENDROOT
BRANCH   3   5
HETATM    5  C   UNL     1     -10.810   9.044  70.046  1.00  0.00    -0.231 C  
HETATM    6  H   UNL     1     -10.696   8.921  72.006  1.00  0.00     0.000 HD 
HETATM    7  O   UNL     1     -10.344   9.482  71.327  1.00  0.00    -0.312 OA 
ENDBRANCH   3   5
BRANCH   3   8
HETATM    8  C   UNL     1     -10.122   9.192  67.624  1.00  0.00    -0.220 C  
HETATM    9  O   UNL     1      -9.940   9.733  66.534  1.00  0.00    -0.209 OA 
HETATM   10  H   UNL     1     -10.456   7.415  68.686  1.00  0.00     0.000 HD 
HETATM   11  N   UNL     1     -10.305   7.821  67.763  1.00  0.00    -0.211 N  
BRANCH  11  12
HETATM   12  N   UNL     1     -10.279   6.995  66.621  1.00  0.00    -0.425 NA 
HETATM   13  H   UNL     1     -10.455   7.528  65.770  1.00  0.00     0.000 HD 
BRANCH  12  14
HETATM   14  C   UNL     1      -9.016   6.239  66.534  1.00  0.00    -0.144 C  
BRANCH  14  15
HETATM   15  C   UNL     1      -9.045   5.210  65.423  1.00  0.00    -0.145 A  
HETATM   16  C   UNL     1     -10.192   4.485  65.069  1.00  0.00    -0.072 A  
HETATM   17  O   UNL     1     -11.409   4.648  65.689  1.00  0.00    -0.844 OA 
HETATM   18  C   UNL     1     -10.149   3.547  64.040  1.00  0.00    -0.207 A  
HETATM   19  H   UNL     1     -12.185   4.157  65.448  1.00  0.00     0.000 HD 
HETATM   20  C   UNL     1      -8.965   3.295  63.365  1.00  0.00    -0.092 A  
HETATM   21  O   UNL     1     -11.282   2.869  63.675  1.00  0.00    -0.507 OA 
HETATM   22  H   UNL     1     -11.253   2.229  62.973  1.00  0.00     0.000 HD 
HETATM   23  C   UNL     1      -7.807   3.971  63.711  1.00  0.00    -0.083 A  
HETATM   24  O   UNL     1      -8.935   2.376  62.355  1.00  0.00    -0.074 OA 
HETATM   25  H   UNL     1      -8.123   2.204  61.892  1.00  0.00     0.000 HD 
HETATM   26  C   UNL     1      -7.846   4.923  64.739  1.00  0.00    -0.090 A  
ENDBRANCH  14  15
ENDBRANCH  12  14
ENDBRANCH  11  12
ENDBRANCH   3   8
TORSDOF 5
ENDMDL
MODEL      266
REMARK 921   NORMALIZED FREE ENERGY PREDICTED BY IDOCK:   -3.30 KCAL/MOL
REMARK 922        TOTAL FREE ENERGY PREDICTED BY IDOCK:   -4.71 KCAL/MOL
REMARK 923 INTER-LIGAND FREE ENERGY PREDICTED BY IDOCK:   -4.32 KCAL/MOL
REMARK 924 INTRA-LIGAND FREE ENERGY PREDICTED BY IDOCK:   -0.39 KCAL/MOL
REMARK 927      BINDING AFFINITY PREDICTED BY RF-SCORE:    0.00 PKD
ROOT
HETATM    1  N   UNL     1     -11.091   7.144  73.576  1.00  0.00    -0.547 NA 
HETATM    2  H1  UNL     1     -11.649   7.910  73.954  1.00  0.00     0.000 HD 
HETATM    3  CA  UNL     1     -10.268   7.597  72.418  1.00  0.00    -0.228 C  
HETATM    4  H2  UNL     1     -10.515   6.709  74.297  1.00  0.00     0.000 HD 
ENDROOT
BRANCH   3   5
HETATM    5  C   UNL     1      -9.428   6.446  71.849  1.00  0.00    -0.152 C  
HETATM    6  H   UNL     1      -9.703   4.547  71.416  1.00  0.00     0.000 HD 
HETATM    7  O   UNL     1     -10.223   5.259  71.768  1.00  0.00    -0.196 OA 
ENDBRANCH   3   5
BRANCH   3   8
HETATM    8  C   UNL     1     -11.158   8.208  71.332  1.00  0.00    -0.247 C  
HETATM    9  O   UNL     1     -12.343   8.497  71.496  1.00  0.00    -0.298 OA 
HETATM   10  H   UNL     1      -9.527   8.093  70.020  1.00  0.00     0.000 HD 
HETATM   11  N   UNL     1     -10.510   8.349  70.111  1.00  0.00    -0.222 N  
BRANCH  11  12
HETATM   12  N   UNL     1     -11.219   8.847  68.999  1.00  0.00    -0.403 NA 
HETATM   13  H   UNL     1     -11.692   9.723  69.220  1.00  0.00     0.000 HD 
BRANCH  12  14
HETATM   14  C   UNL     1     -10.342   8.988  67.823  1.00  0.00    -0.246 C  
BRANCH  14  15
HETATM   15  C   UNL     1      -9.982   7.647  67.218  1.00  0.00    -0.273 A  
HETATM   16  C   UNL     1      -8.703   7.333  66.736  1.00  0.00    -0.130 A  
HETATM   17  O   UNL     1      -7.645   8.211  66.778  1.00  0.00    -0.091 OA 
HETATM   18  C   UNL     1      -8.439   6.081  66.185  1.00  0.00    -0.134 A  
HETATM   19  H   UNL     1      -6.779   7.998  66.452  1.00  0.00     0.000 HD 
HETATM   20  C   UNL     1      -9.444   5.132  66.081  1.00  0.00    -0.159 A  
HETATM   21  O   UNL     1      -7.178   5.769  65.751  1.00  0.00    -0.072 OA 
HETATM   22  H   UNL     1      -6.999   4.915  65.375  1.00  0.00     0.000 HD 
HETATM   23  C   UNL     1     -10.726   5.421  66.518  1.00  0.00    -0.309 A  
HETATM   24  O   UNL     1      -9.174   3.906  65.542  1.00  0.00    -0.136 OA 
HETATM   25  H   UNL     1      -9.862   3.255  65.471  1.00  0.00     0.000 HD 
HETATM   26  C   UNL     1     -10.994   6.675  67.082  1.00  0.00    -0.478 A  
ENDBRANCH  14  15
ENDBRANCH  12  14
ENDBRANCH  11  12
ENDBRANCH   3   8
TORSDOF 5
ENDMDL
MODEL      267
REMARK 921   NORMALIZED FREE ENERGY PREDICTED BY IDOCK:   -3.28 KCAL/MOL
REMARK 922        TOTAL FREE ENERGY PREDICTED BY IDOCK:   -4.69 KCAL/MOL
REMARK 923 INTER-LIGAND FREE ENERGY PREDICTED BY IDOCK:   -4.91 KCAL/MOL
REMARK 924 INTRA-LIGAND FREE ENERGY PREDICTED BY IDOCK:    0.22 KCAL/MOL
REMARK 927      BINDING AFFINITY PREDICTED BY RF-SCORE:    0.00 PKD
ROOT
HETATM    1  N   UNL     1     -12.352   9.472  70.149  1.00  0.00    -0.368 NA 
HETATM    2  H1  UNL     1     -12.295   9.031  69.230  1.00  0.00     0.000 HD 
HETATM    3  CA  UNL     1     -12.225  10.953  70.045  1.00  0.00    -0.347 C  
HETATM    4  H2  UNL     1     -13.204   9.202  70.642  1.00  0.00     0.000 HD 
ENDROOT
BRANCH   3   5
HETATM    5  C   UNL     1     -12.311  11.617  71.426  1.00  0.00    -0.096 C  
HETATM    6  H   UNL     1     -12.771  13.392  72.138  1.00  0.00     0.000 HD 
HETATM    7  O   UNL     1     -12.719  12.981  71.284  1.00  0.00    -0.368 OA 
ENDBRANCH   3   5
BRANCH   3   8
HETATM    8  C   UNL     1     -10.920  11.333  69.340  1.00  0.00    -0.228 C  
HETATM    9  O   UNL     1      -9.900  10.646  69.363  1.00  0.00    -0.210 OA 
HETATM   10  H   UNL     1     -11.846  13.111  68.723  1.00  0.00     0.000 HD 
HETATM   11  N   UNL     1     -10.979  12.573  68.714  1.00  0.00    -0.248 N  
BRANCH  11  12
HETATM   12  N   UNL     1      -9.835  13.083  68.069  1.00  0.00    -0.218 NA 
HETATM   13  H   UNL     1      -9.120  12.365  67.954  1.00  0.00     0.000 HD 
BRANCH  12  14
HETATM   14  C   UNL     1     -10.181  13.712  66.781  1.00  0.00    -0.268 C  
BRANCH  14  15
HETATM   15  C   UNL     1     -10.317  15.215  66.902  1.00  0.00    -0.272 A  
HETATM   16  C   UNL     1     -10.191  15.910  68.113  1.00  0.00    -0.232 A  
HETATM   17  O   UNL     1      -9.916  15.293  69.311  1.00  0.00    -0.225 OA 
HETATM   18  C   UNL     1     -10.335  17.295  68.155  1.00  0.00    -0.357 A  
HETATM   19  H   UNL     1      -9.830  15.764  70.131  1.00  0.00     0.000 HD 
HETATM   20  C   UNL     1     -10.630  18.008  67.005  1.00  0.00    -0.308 A  
HETATM   21  O   UNL     1     -10.173  17.970  69.336  1.00  0.00    -0.341 OA 
HETATM   22  H   UNL     1     -10.271  18.915  69.365  1.00  0.00     0.000 HD 
HETATM   23  C   UNL     1     -10.794  17.349  65.798  1.00  0.00     0.000 A  
HETATM   24  O   UNL     1     -10.766  19.366  67.057  1.00  0.00    -0.455 OA 
HETATM   25  H   UNL     1     -10.968  19.856  66.268  1.00  0.00     0.000 HD 
HETATM   26  C   UNL     1     -10.640  15.957  65.747  1.00  0.00    -0.368 A  
ENDBRANCH  14  15
ENDBRANCH  12  14
ENDBRANCH  11  12
ENDBRANCH   3   8
TORSDOF 5
ENDMDL
MODEL      268
REMARK 921   NORMALIZED FREE ENERGY PREDICTED BY IDOCK:   -3.27 KCAL/MOL
REMARK 922        TOTAL FREE ENERGY PREDICTED BY IDOCK:   -4.68 KCAL/MOL
REMARK 923 INTER-LIGAND FREE ENERGY PREDICTED BY IDOCK:   -4.50 KCAL/MOL
REMARK 924 INTRA-LIGAND FREE ENERGY PREDICTED BY IDOCK:   -0.18 KCAL/MOL
REMARK 927      BINDING AFFINITY PREDICTED BY RF-SCORE:    0.00 PKD
ROOT
HETATM    1  N   UNL     1     -13.399  11.449  72.045  1.00  0.00    -0.518 NA 
HETATM    2  H1  UNL     1     -12.874  12.307  71.876  1.00  0.00     0.000 HD 
HETATM    3  CA  UNL     1     -12.489  10.275  72.168  1.00  0.00     0.054 C  
HETATM    4  H2  UNL     1     -14.010  11.537  72.858  1.00  0.00     0.000 HD 
ENDROOT
BRANCH   3   5
HETATM    5  C   UNL     1     -13.278   8.984  72.423  1.00  0.00    -0.447 C  
HETATM    6  H   UNL     1     -13.476   7.229  71.556  1.00  0.00     0.000 HD 
HETATM    7  O   UNL     1     -12.987   8.028  71.398  1.00  0.00    -0.311 OA 
ENDBRANCH   3   5
BRANCH   3   8
HETATM    8  C   UNL     1     -11.614  10.139  70.920  1.00  0.00    -0.372 C  
HETATM    9  O   UNL     1     -10.490   9.637  70.918  1.00  0.00    -0.300 OA 
HETATM   10  H   UNL     1     -13.123  11.110  69.834  1.00  0.00     0.000 HD 
HETATM   11  N   UNL     1     -12.189  10.701  69.786  1.00  0.00    -0.287 N  
BRANCH  11  12
HETATM   12  N   UNL     1     -11.477  10.702  68.570  1.00  0.00    -0.414 NA 
HETATM   13  H   UNL     1     -12.086  10.490  67.780  1.00  0.00     0.000 HD 
BRANCH  12  14
HETATM   14  C   UNL     1     -10.755  11.972  68.372  1.00  0.00    -0.229 C  
BRANCH  14  15
HETATM   15  C   UNL     1      -9.419  11.766  67.691  1.00  0.00    -0.180 A  
HETATM   16  C   UNL     1      -8.311  12.601  67.891  1.00  0.00    -0.172 A  
HETATM   17  O   UNL     1      -8.326  13.684  68.739  1.00  0.00    -0.314 OA 
HETATM   18  C   UNL     1      -7.110  12.360  67.228  1.00  0.00    -0.128 A  
HETATM   19  H   UNL     1      -7.575  14.250  68.875  1.00  0.00     0.000 HD 
HETATM   20  C   UNL     1      -6.997  11.304  66.338  1.00  0.00    -0.052 A  
HETATM   21  O   UNL     1      -6.021  13.158  67.457  1.00  0.00    -0.219 OA 
HETATM   22  H   UNL     1      -5.202  12.993  67.005  1.00  0.00     0.000 HD 
HETATM   23  C   UNL     1      -8.082  10.479  66.092  1.00  0.00    -0.145 A  
HETATM   24  O   UNL     1      -5.814  11.073  65.695  1.00  0.00    -0.285 OA 
HETATM   25  H   UNL     1      -5.737  10.349  65.085  1.00  0.00     0.000 HD 
HETATM   26  C   UNL     1      -9.290  10.711  66.764  1.00  0.00    -0.179 A  
ENDBRANCH  14  15
ENDBRANCH  12  14
ENDBRANCH  11  12
ENDBRANCH   3   8
TORSDOF 5
ENDMDL
MODEL      269
REMARK 921   NORMALIZED FREE ENERGY PREDICTED BY IDOCK:   -3.27 KCAL/MOL
REMARK 922        TOTAL FREE ENERGY PREDICTED BY IDOCK:   -4.68 KCAL/MOL
REMARK 923 INTER-LIGAND FREE ENERGY PREDICTED BY IDOCK:   -4.87 KCAL/MOL
REMARK 924 INTRA-LIGAND FREE ENERGY PREDICTED BY IDOCK:    0.20 KCAL/MOL
REMARK 927      BINDING AFFINITY PREDICTED BY RF-SCORE:    0.00 PKD
ROOT
HETATM    1  N   UNL     1      -7.509   6.804  65.397  1.00  0.00    -0.080 NA 
HETATM    2  H1  UNL     1      -8.176   7.336  64.838  1.00  0.00     0.000 HD 
HETATM    3  CA  UNL     1      -8.207   5.844  66.300  1.00  0.00    -0.114 C  
HETATM    4  H2  UNL     1      -6.819   6.333  64.811  1.00  0.00     0.000 HD 
ENDROOT
BRANCH   3   5
HETATM    5  C   UNL     1      -7.205   5.044  67.142  1.00  0.00    -0.077 C  
HETATM    6  H   UNL     1      -6.491   3.211  67.163  1.00  0.00     0.000 HD 
HETATM    7  O   UNL     1      -7.111   3.706  66.642  1.00  0.00    -0.057 OA 
ENDBRANCH   3   5
BRANCH   3   8
HETATM    8  C   UNL     1      -9.205   6.580  67.198  1.00  0.00    -0.128 C  
HETATM    9  O   UNL     1     -10.185   6.048  67.717  1.00  0.00    -0.145 OA 
HETATM   10  H   UNL     1      -8.108   8.337  66.871  1.00  0.00     0.000 HD 
HETATM   11  N   UNL     1      -8.931   7.937  67.322  1.00  0.00    -0.126 N  
BRANCH  11  12
HETATM   12  N   UNL     1      -9.795   8.757  68.074  1.00  0.00    -0.162 NA 
HETATM   13  H   UNL     1     -10.703   8.859  67.620  1.00  0.00     0.000 HD 
BRANCH  12  14
HETATM   14  C   UNL     1      -9.935   8.264  69.457  1.00  0.00    -0.187 C  
BRANCH  14  15
HETATM   15  C   UNL     1     -10.937   9.075  70.251  1.00  0.00    -0.274 A  
HETATM   16  C   UNL     1     -11.747   8.534  71.259  1.00  0.00    -0.284 A  
HETATM   17  O   UNL     1     -11.699   7.212  71.636  1.00  0.00    -0.265 OA 
HETATM   18  C   UNL     1     -12.655   9.335  71.948  1.00  0.00    -0.390 A  
HETATM   19  H   UNL     1     -12.247   6.845  72.319  1.00  0.00     0.000 HD 
HETATM   20  C   UNL     1     -12.792  10.677  71.631  1.00  0.00    -0.465 A  
HETATM   21  O   UNL     1     -13.415   8.806  72.957  1.00  0.00    -0.873 OA 
HETATM   22  H   UNL     1     -14.035   9.353  73.427  1.00  0.00     0.000 HD 
HETATM   23  C   UNL     1     -12.030  11.236  70.619  1.00  0.00    -0.435 A  
HETATM   24  O   UNL     1     -13.682  11.454  72.315  1.00  0.00    -0.444 OA 
HETATM   25  H   UNL     1     -13.776  12.375  72.099  1.00  0.00     0.000 HD 
HETATM   26  C   UNL     1     -11.109  10.438  69.929  1.00  0.00    -0.367 A  
ENDBRANCH  14  15
ENDBRANCH  12  14
ENDBRANCH  11  12
ENDBRANCH   3   8
TORSDOF 5
ENDMDL
MODEL      270
REMARK 921   NORMALIZED FREE ENERGY PREDICTED BY IDOCK:   -3.27 KCAL/MOL
REMARK 922        TOTAL FREE ENERGY PREDICTED BY IDOCK:   -4.67 KCAL/MOL
REMARK 923 INTER-LIGAND FREE ENERGY PREDICTED BY IDOCK:   -4.49 KCAL/MOL
REMARK 924 INTRA-LIGAND FREE ENERGY PREDICTED BY IDOCK:   -0.19 KCAL/MOL
REMARK 927      BINDING AFFINITY PREDICTED BY RF-SCORE:    0.00 PKD
ROOT
HETATM    1  N   UNL     1      -9.507  14.253  66.165  1.00  0.00    -0.460 NA 
HETATM    2  H1  UNL     1      -9.243  13.318  65.853  1.00  0.00     0.000 HD 
HETATM    3  CA  UNL     1     -10.065  14.223  67.548  1.00  0.00    -0.236 C  
HETATM    4  H2  UNL     1      -8.728  14.907  66.089  1.00  0.00     0.000 HD 
ENDROOT
BRANCH   3   5
HETATM    5  C   UNL     1     -10.462  15.629  68.017  1.00  0.00    -0.263 C  
HETATM    6  H   UNL     1     -10.168  16.745  69.611  1.00  0.00     0.000 HD 
HETATM    7  O   UNL     1      -9.922  15.875  69.320  1.00  0.00    -0.222 OA 
ENDBRANCH   3   5
BRANCH   3   8
HETATM    8  C   UNL     1     -11.258  13.267  67.626  1.00  0.00    -0.280 C  
HETATM    9  O   UNL     1     -12.242  13.334  66.892  1.00  0.00    -0.350 OA 
HETATM   10  H   UNL     1     -10.315  12.326  69.247  1.00  0.00     0.000 HD 
HETATM   11  N   UNL     1     -11.149  12.344  68.660  1.00  0.00    -0.242 N  
BRANCH  11  12
HETATM   12  N   UNL     1     -12.198  11.431  68.892  1.00  0.00    -0.464 NA 
HETATM   13  H   UNL     1     -12.454  10.931  68.041  1.00  0.00     0.000 HD 
BRANCH  12  14
HETATM   14  C   UNL     1     -11.868  10.501  69.987  1.00  0.00    -0.308 C  
BRANCH  14  15
HETATM   15  C   UNL     1     -10.801   9.505  69.585  1.00  0.00    -0.255 A  
HETATM   16  C   UNL     1      -9.910   8.915  70.493  1.00  0.00    -0.200 A  
HETATM   17  O   UNL     1      -9.928   9.175  71.843  1.00  0.00    -0.308 OA 
HETATM   18  C   UNL     1      -8.946   8.010  70.056  1.00  0.00    -0.144 A  
HETATM   19  H   UNL     1      -9.325   8.776  72.458  1.00  0.00     0.000 HD 
HETATM   20  C   UNL     1      -8.834   7.695  68.711  1.00  0.00    -0.131 A  
HETATM   21  O   UNL     1      -8.104   7.410  70.954  1.00  0.00    -0.103 OA 
HETATM   22  H   UNL     1      -7.446   6.792  70.656  1.00  0.00     0.000 HD 
HETATM   23  C   UNL     1      -9.677   8.284  67.783  1.00  0.00    -0.194 A  
HETATM   24  O   UNL     1      -7.888   6.803  68.293  1.00  0.00    -0.107 OA 
HETATM   25  H   UNL     1      -7.811   6.587  67.371  1.00  0.00     0.000 HD 
HETATM   26  C   UNL     1     -10.655   9.188  68.218  1.00  0.00    -0.223 A  
ENDBRANCH  14  15
ENDBRANCH  12  14
ENDBRANCH  11  12
ENDBRANCH   3   8
TORSDOF 5
ENDMDL
MODEL      271
REMARK 921   NORMALIZED FREE ENERGY PREDICTED BY IDOCK:   -3.26 KCAL/MOL
REMARK 922        TOTAL FREE ENERGY PREDICTED BY IDOCK:   -4.66 KCAL/MOL
REMARK 923 INTER-LIGAND FREE ENERGY PREDICTED BY IDOCK:   -4.37 KCAL/MOL
REMARK 924 INTRA-LIGAND FREE ENERGY PREDICTED BY IDOCK:   -0.29 KCAL/MOL
REMARK 927      BINDING AFFINITY PREDICTED BY RF-SCORE:    0.00 PKD
ROOT
HETATM    1  N   UNL     1      -7.433   6.829  65.428  1.00  0.00    -0.080 NA 
HETATM    2  H1  UNL     1      -8.179   7.215  64.847  1.00  0.00     0.000 HD 
HETATM    3  CA  UNL     1      -7.985   6.142  66.630  1.00  0.00    -0.105 C  
HETATM    4  H2  UNL     1      -6.821   6.214  64.892  1.00  0.00     0.000 HD 
ENDROOT
BRANCH   3   5
HETATM    5  C   UNL     1      -6.865   5.562  67.503  1.00  0.00    -0.060 C  
HETATM    6  H   UNL     1      -5.681   6.209  68.934  1.00  0.00     0.000 HD 
HETATM    7  O   UNL     1      -6.374   6.568  68.394  1.00  0.00    -0.034 OA 
ENDBRANCH   3   5
BRANCH   3   8
HETATM    8  C   UNL     1      -8.865   7.098  67.440  1.00  0.00    -0.119 C  
HETATM    9  O   UNL     1      -9.622   6.739  68.340  1.00  0.00    -0.127 OA 
HETATM   10  H   UNL     1      -8.134   8.669  66.259  1.00  0.00     0.000 HD 
HETATM   11  N   UNL     1      -8.773   8.417  67.013  1.00  0.00    -0.124 N  
BRANCH  11  12
HETATM   12  N   UNL     1      -9.568   9.405  67.628  1.00  0.00    -0.132 NA 
HETATM   13  H   UNL     1      -8.995  10.103  68.103  1.00  0.00     0.000 HD 
BRANCH  12  14
HETATM   14  C   UNL     1     -10.491  10.030  66.663  1.00  0.00    -0.174 C  
BRANCH  14  15
HETATM   15  C   UNL     1     -11.037  11.347  67.170  1.00  0.00    -0.366 A  
HETATM   16  C   UNL     1     -11.590  12.330  66.335  1.00  0.00    -0.383 A  
HETATM   17  O   UNL     1     -11.701  12.185  64.972  1.00  0.00    -0.351 OA 
HETATM   18  C   UNL     1     -12.069  13.525  66.866  1.00  0.00    -0.368 A  
HETATM   19  H   UNL     1     -12.076  12.850  64.407  1.00  0.00     0.000 HD 
HETATM   20  C   UNL     1     -11.986  13.775  68.226  1.00  0.00    -0.357 A  
HETATM   21  O   UNL     1     -12.641  14.463  66.048  1.00  0.00    -0.382 OA 
HETATM   22  H   UNL     1     -12.969  15.279  66.410  1.00  0.00     0.000 HD 
HETATM   23  C   UNL     1     -11.417  12.840  69.075  1.00  0.00    -0.360 A  
HETATM   24  O   UNL     1     -12.463  14.949  68.737  1.00  0.00    -0.584 OA 
HETATM   25  H   UNL     1     -12.407  15.120  69.670  1.00  0.00     0.000 HD 
HETATM   26  C   UNL     1     -10.942  11.632  68.548  1.00  0.00    -0.264 A  
ENDBRANCH  14  15
ENDBRANCH  12  14
ENDBRANCH  11  12
ENDBRANCH   3   8
TORSDOF 5
ENDMDL
MODEL      272
REMARK 921   NORMALIZED FREE ENERGY PREDICTED BY IDOCK:   -3.24 KCAL/MOL
REMARK 922        TOTAL FREE ENERGY PREDICTED BY IDOCK:   -4.63 KCAL/MOL
REMARK 923 INTER-LIGAND FREE ENERGY PREDICTED BY IDOCK:   -4.93 KCAL/MOL
REMARK 924 INTRA-LIGAND FREE ENERGY PREDICTED BY IDOCK:    0.31 KCAL/MOL
REMARK 927      BINDING AFFINITY PREDICTED BY RF-SCORE:    0.00 PKD
ROOT
HETATM    1  N   UNL     1     -10.990   9.461  69.452  1.00  0.00    -0.377 NA 
HETATM    2  H1  UNL     1     -11.081  10.403  69.071  1.00  0.00     0.000 HD 
HETATM    3  CA  UNL     1      -9.886   9.387  70.450  1.00  0.00    -0.259 C  
HETATM    4  H2  UNL     1     -11.872   9.127  69.842  1.00  0.00     0.000 HD 
ENDROOT
BRANCH   3   5
HETATM    5  C   UNL     1      -9.748   7.970  71.023  1.00  0.00    -0.160 C  
HETATM    6  H   UNL     1      -8.376   6.939  71.985  1.00  0.00     0.000 HD 
HETATM    7  O   UNL     1      -8.461   7.816  71.630  1.00  0.00    -0.105 OA 
ENDBRANCH   3   5
BRANCH   3   8
HETATM    8  C   UNL     1      -8.566   9.852  69.828  1.00  0.00    -0.203 C  
HETATM    9  O   UNL     1      -7.550  10.099  70.476  1.00  0.00    -0.269 OA 
HETATM   10  H   UNL     1      -9.510   9.815  67.956  1.00  0.00     0.000 HD 
HETATM   11  N   UNL     1      -8.645  10.030  68.452  1.00  0.00    -0.111 N  
BRANCH  11  12
HETATM   12  N   UNL     1      -7.523  10.509  67.746  1.00  0.00    -0.087 NA 
HETATM   13  H   UNL     1      -7.205   9.837  67.049  1.00  0.00     0.000 HD 
BRANCH  12  14
HETATM   14  C   UNL     1      -7.790  11.828  67.144  1.00  0.00    -0.166 C  
BRANCH  14  15
HETATM   15  C   UNL     1      -8.789  11.743  66.010  1.00  0.00    -0.057 A  
HETATM   16  C   UNL     1      -9.543  12.835  65.557  1.00  0.00     0.013 A  
HETATM   17  O   UNL     1      -9.437  14.097  66.093  1.00  0.00    -0.408 OA 
HETATM   18  C   UNL     1     -10.451  12.687  64.511  1.00  0.00    -0.355 A  
HETATM   19  H   UNL     1      -9.947  14.837  65.786  1.00  0.00     0.000 HD 
HETATM   20  C   UNL     1     -10.644  11.451  63.916  1.00  0.00    -0.392 A  
HETATM   21  O   UNL     1     -11.156  13.768  64.051  1.00  0.00    -0.576 OA 
HETATM   22  H   UNL     1     -11.776  13.667  63.337  1.00  0.00     0.000 HD 
HETATM   23  C   UNL     1      -9.940  10.344  64.360  1.00  0.00    -0.388 A  
HETATM   24  O   UNL     1     -11.535  11.317  62.889  1.00  0.00    -0.829 OA 
HETATM   25  H   UNL     1     -11.667  10.470  62.480  1.00  0.00     0.000 HD 
HETATM   26  C   UNL     1      -9.018  10.489  65.405  1.00  0.00    -0.207 A  
ENDBRANCH  14  15
ENDBRANCH  12  14
ENDBRANCH  11  12
ENDBRANCH   3   8
TORSDOF 5
ENDMDL
MODEL      273
REMARK 921   NORMALIZED FREE ENERGY PREDICTED BY IDOCK:   -3.22 KCAL/MOL
REMARK 922        TOTAL FREE ENERGY PREDICTED BY IDOCK:   -4.61 KCAL/MOL
REMARK 923 INTER-LIGAND FREE ENERGY PREDICTED BY IDOCK:   -4.41 KCAL/MOL
REMARK 924 INTRA-LIGAND FREE ENERGY PREDICTED BY IDOCK:   -0.20 KCAL/MOL
REMARK 927      BINDING AFFINITY PREDICTED BY RF-SCORE:    0.00 PKD
ROOT
HETATM    1  N   UNL     1     -13.103   5.660  72.549  1.00  0.00    -0.005 NA 
HETATM    2  H1  UNL     1     -13.757   5.400  71.810  1.00  0.00     0.000 HD 
HETATM    3  CA  UNL     1     -12.264   6.823  72.142  1.00  0.00    -0.222 C  
HETATM    4  H2  UNL     1     -13.585   5.835  73.431  1.00  0.00     0.000 HD 
ENDROOT
BRANCH   3   5
HETATM    5  C   UNL     1     -11.281   7.214  73.253  1.00  0.00    -0.108 C  
HETATM    6  H   UNL     1      -9.779   8.467  73.464  1.00  0.00     0.000 HD 
HETATM    7  O   UNL     1     -10.387   8.225  72.776  1.00  0.00    -0.318 OA 
ENDBRANCH   3   5
BRANCH   3   8
HETATM    8  C   UNL     1     -11.518   6.519  70.840  1.00  0.00    -0.351 C  
HETATM    9  O   UNL     1     -11.026   5.425  70.568  1.00  0.00    -0.197 OA 
HETATM   10  H   UNL     1     -11.817   8.517  70.278  1.00  0.00     0.000 HD 
HETATM   11  N   UNL     1     -11.395   7.628  70.011  1.00  0.00    -0.138 N  
BRANCH  11  12
HETATM   12  N   UNL     1     -10.685   7.516  68.799  1.00  0.00    -0.371 NA 
HETATM   13  H   UNL     1     -11.315   7.451  68.000  1.00  0.00     0.000 HD 
BRANCH  12  14
HETATM   14  C   UNL     1      -9.720   8.619  68.638  1.00  0.00    -0.163 C  
BRANCH  14  15
HETATM   15  C   UNL     1     -10.404   9.928  68.304  1.00  0.00    -0.232 A  
HETATM   16  C   UNL     1     -10.819  10.855  69.271  1.00  0.00    -0.241 A  
HETATM   17  O   UNL     1     -10.631  10.671  70.621  1.00  0.00    -0.303 OA 
HETATM   18  C   UNL     1     -11.449  12.039  68.896  1.00  0.00    -0.301 A  
HETATM   19  H   UNL     1     -10.911  11.299  71.276  1.00  0.00     0.000 HD 
HETATM   20  C   UNL     1     -11.701  12.310  67.560  1.00  0.00    -0.332 A  
HETATM   21  O   UNL     1     -11.817  12.956  69.844  1.00  0.00    -0.348 OA 
HETATM   22  H   UNL     1     -12.247  13.764  69.588  1.00  0.00     0.000 HD 
HETATM   23  C   UNL     1     -11.334  11.401  66.582  1.00  0.00    -0.230 A  
HETATM   24  O   UNL     1     -12.317  13.476  67.203  1.00  0.00    -0.315 OA 
HETATM   25  H   UNL     1     -12.489  13.662  66.287  1.00  0.00     0.000 HD 
HETATM   26  C   UNL     1     -10.690  10.213  66.953  1.00  0.00    -0.231 A  
ENDBRANCH  14  15
ENDBRANCH  12  14
ENDBRANCH  11  12
ENDBRANCH   3   8
TORSDOF 5
ENDMDL
MODEL      274
REMARK 921   NORMALIZED FREE ENERGY PREDICTED BY IDOCK:   -3.21 KCAL/MOL
REMARK 922        TOTAL FREE ENERGY PREDICTED BY IDOCK:   -4.60 KCAL/MOL
REMARK 923 INTER-LIGAND FREE ENERGY PREDICTED BY IDOCK:   -4.09 KCAL/MOL
REMARK 924 INTRA-LIGAND FREE ENERGY PREDICTED BY IDOCK:   -0.51 KCAL/MOL
REMARK 927      BINDING AFFINITY PREDICTED BY RF-SCORE:    0.00 PKD
ROOT
HETATM    1  N   UNL     1     -11.411   4.493  64.918  1.00  0.00    -1.065 NA 
HETATM    2  H1  UNL     1     -12.166   4.015  65.410  1.00  0.00     0.000 HD 
HETATM    3  CA  UNL     1     -10.093   3.857  65.205  1.00  0.00    -0.141 C  
HETATM    4  H2  UNL     1     -11.591   4.546  63.915  1.00  0.00     0.000 HD 
ENDROOT
BRANCH   3   5
HETATM    5  C   UNL     1      -8.956   4.576  64.466  1.00  0.00    -0.152 C  
HETATM    6  H   UNL     1      -7.038   4.279  64.150  1.00  0.00     0.000 HD 
HETATM    7  O   UNL     1      -7.741   3.834  64.607  1.00  0.00    -0.079 OA 
ENDBRANCH   3   5
BRANCH   3   8
HETATM    8  C   UNL     1      -9.827   3.827  66.712  1.00  0.00    -0.016 C  
HETATM    9  O   UNL     1      -9.532   2.810  67.338  1.00  0.00    -0.178 OA 
HETATM   10  H   UNL     1     -10.262   5.878  66.766  1.00  0.00     0.000 HD 
HETATM   11  N   UNL     1     -10.014   5.061  67.324  1.00  0.00    -0.179 N  
BRANCH  11  12
HETATM   12  N   UNL     1      -9.859   5.177  68.720  1.00  0.00    -0.157 NA 
HETATM   13  H   UNL     1      -9.475   4.325  69.126  1.00  0.00     0.000 HD 
BRANCH  12  14
HETATM   14  C   UNL     1      -9.050   6.358  69.074  1.00  0.00    -0.130 C  
BRANCH  14  15
HETATM   15  C   UNL     1      -9.803   7.314  69.973  1.00  0.00    -0.175 A  
HETATM   16  C   UNL     1     -10.113   7.037  71.312  1.00  0.00    -0.190 A  
HETATM   17  O   UNL     1      -9.750   5.871  71.944  1.00  0.00    -0.152 OA 
HETATM   18  C   UNL     1     -10.815   7.960  72.084  1.00  0.00    -0.269 A  
HETATM   19  H   UNL     1      -9.960   5.684  72.852  1.00  0.00     0.000 HD 
HETATM   20  C   UNL     1     -11.242   9.158  71.535  1.00  0.00    -0.360 A  
HETATM   21  O   UNL     1     -11.082   7.697  73.402  1.00  0.00    -0.502 OA 
HETATM   22  H   UNL     1     -11.561   8.327  73.929  1.00  0.00     0.000 HD 
HETATM   23  C   UNL     1     -10.981   9.450  70.206  1.00  0.00    -0.305 A  
HETATM   24  O   UNL     1     -11.927  10.058  72.302  1.00  0.00     0.170 OA 
HETATM   25  H   UNL     1     -12.220  10.880  71.925  1.00  0.00     0.000 HD 
HETATM   26  C   UNL     1     -10.266   8.530  69.428  1.00  0.00    -0.211 A  
ENDBRANCH  14  15
ENDBRANCH  12  14
ENDBRANCH  11  12
ENDBRANCH   3   8
TORSDOF 5
ENDMDL
MODEL      275
REMARK 921   NORMALIZED FREE ENERGY PREDICTED BY IDOCK:   -3.20 KCAL/MOL
REMARK 922        TOTAL FREE ENERGY PREDICTED BY IDOCK:   -4.58 KCAL/MOL
REMARK 923 INTER-LIGAND FREE ENERGY PREDICTED BY IDOCK:   -3.89 KCAL/MOL
REMARK 924 INTRA-LIGAND FREE ENERGY PREDICTED BY IDOCK:   -0.69 KCAL/MOL
REMARK 927      BINDING AFFINITY PREDICTED BY RF-SCORE:    0.00 PKD
ROOT
HETATM    1  N   UNL     1     -12.752   8.241  70.871  1.00  0.00    -0.500 NA 
HETATM    2  H1  UNL     1     -13.345   8.463  71.671  1.00  0.00     0.000 HD 
HETATM    3  CA  UNL     1     -12.375   6.799  70.863  1.00  0.00    -0.280 C  
HETATM    4  H2  UNL     1     -13.188   8.520  69.992  1.00  0.00     0.000 HD 
ENDROOT
BRANCH   3   5
HETATM    5  C   UNL     1     -11.483   6.464  69.661  1.00  0.00    -0.378 C  
HETATM    6  H   UNL     1     -10.103   7.379  68.599  1.00  0.00     0.000 HD 
HETATM    7  O   UNL     1     -10.655   7.587  69.343  1.00  0.00    -0.226 OA 
ENDBRANCH   3   5
BRANCH   3   8
HETATM    8  C   UNL     1     -11.685   6.415  72.175  1.00  0.00    -0.321 C  
HETATM    9  O   UNL     1     -11.640   5.269  72.620  1.00  0.00    -0.247 OA 
HETATM   10  H   UNL     1     -11.223   8.443  72.450  1.00  0.00     0.000 HD 
HETATM   11  N   UNL     1     -11.161   7.509  72.855  1.00  0.00    -0.365 N  
BRANCH  11  12
HETATM   12  N   UNL     1     -10.543   7.319  74.107  1.00  0.00    -0.547 NA 
HETATM   13  H   UNL     1     -10.737   6.392  74.484  1.00  0.00     0.000 HD 
BRANCH  12  14
HETATM   14  C   UNL     1      -9.094   7.581  74.036  1.00  0.00    -0.245 C  
BRANCH  14  15
HETATM   15  C   UNL     1      -8.399   6.668  73.048  1.00  0.00    -0.122 A  
HETATM   16  C   UNL     1      -8.114   7.033  71.724  1.00  0.00    -0.099 A  
HETATM   17  O   UNL     1      -8.425   8.265  71.198  1.00  0.00    -0.121 OA 
HETATM   18  C   UNL     1      -7.477   6.142  70.863  1.00  0.00    -0.095 A  
HETATM   19  H   UNL     1      -8.232   8.512  70.302  1.00  0.00     0.000 HD 
HETATM   20  C   UNL     1      -7.138   4.869  71.292  1.00  0.00    -0.052 A  
HETATM   21  O   UNL     1      -7.169   6.520  69.583  1.00  0.00    -0.073 OA 
HETATM   22  H   UNL     1      -6.734   5.912  68.996  1.00  0.00     0.000 HD 
HETATM   23  C   UNL     1      -7.435   4.465  72.583  1.00  0.00    -0.079 A  
HETATM   24  O   UNL     1      -6.511   4.004  70.441  1.00  0.00    -0.029 OA 
HETATM   25  H   UNL     1      -6.277   3.131  70.735  1.00  0.00     0.000 HD 
HETATM   26  C   UNL     1      -8.066   5.360  73.457  1.00  0.00    -0.113 A  
ENDBRANCH  14  15
ENDBRANCH  12  14
ENDBRANCH  11  12
ENDBRANCH   3   8
TORSDOF 5
ENDMDL
MODEL      276
REMARK 921   NORMALIZED FREE ENERGY PREDICTED BY IDOCK:   -3.19 KCAL/MOL
REMARK 922        TOTAL FREE ENERGY PREDICTED BY IDOCK:   -4.58 KCAL/MOL
REMARK 923 INTER-LIGAND FREE ENERGY PREDICTED BY IDOCK:   -3.97 KCAL/MOL
REMARK 924 INTRA-LIGAND FREE ENERGY PREDICTED BY IDOCK:   -0.61 KCAL/MOL
REMARK 927      BINDING AFFINITY PREDICTED BY RF-SCORE:    0.00 PKD
ROOT
HETATM    1  N   UNL     1      -9.749  13.372  65.106  1.00  0.00    -0.541 NA 
HETATM    2  H1  UNL     1      -9.379  12.628  64.513  1.00  0.00     0.000 HD 
HETATM    3  CA  UNL     1      -9.791  12.952  66.536  1.00  0.00    -0.254 C  
HETATM    4  H2  UNL     1      -9.229  14.241  64.986  1.00  0.00     0.000 HD 
ENDROOT
BRANCH   3   5
HETATM    5  C   UNL     1     -10.347  14.070  67.428  1.00  0.00    -0.259 C  
HETATM    6  H   UNL     1      -9.671  15.225  68.869  1.00  0.00     0.000 HD 
HETATM    7  O   UNL     1      -9.326  14.534  68.317  1.00  0.00    -0.190 OA 
ENDBRANCH   3   5
BRANCH   3   8
HETATM    8  C   UNL     1     -10.612  11.670  66.696  1.00  0.00    -0.243 C  
HETATM    9  O   UNL     1     -11.050  11.011  65.754  1.00  0.00    -0.108 OA 
HETATM   10  H   UNL     1     -10.493  11.929  68.774  1.00  0.00     0.000 HD 
HETATM   11  N   UNL     1     -10.873  11.351  68.024  1.00  0.00    -0.203 N  
BRANCH  11  12
HETATM   12  N   UNL     1     -11.666  10.227  68.328  1.00  0.00    -0.719 NA 
HETATM   13  H   UNL     1     -11.911   9.704  67.487  1.00  0.00     0.000 HD 
BRANCH  12  14
HETATM   14  C   UNL     1     -11.013   9.364  69.329  1.00  0.00    -0.117 C  
BRANCH  14  15
HETATM   15  C   UNL     1     -10.036   8.397  68.696  1.00  0.00    -0.197 A  
HETATM   16  C   UNL     1     -10.427   7.298  67.919  1.00  0.00    -0.209 A  
HETATM   17  O   UNL     1     -11.741   6.998  67.644  1.00  0.00    -0.230 OA 
HETATM   18  C   UNL     1      -9.476   6.441  67.370  1.00  0.00    -0.116 A  
HETATM   19  H   UNL     1     -12.006   6.254  67.117  1.00  0.00     0.000 HD 
HETATM   20  C   UNL     1      -8.125   6.646  67.603  1.00  0.00    -0.119 A  
HETATM   21  O   UNL     1      -9.865   5.391  66.581  1.00  0.00    -0.146 OA 
HETATM   22  H   UNL     1      -9.216   4.807  66.206  1.00  0.00     0.000 HD 
HETATM   23  C   UNL     1      -7.706   7.704  68.393  1.00  0.00    -0.119 A  
HETATM   24  O   UNL     1      -7.200   5.803  67.056  1.00  0.00    -0.072 OA 
HETATM   25  H   UNL     1      -6.274   5.943  67.216  1.00  0.00     0.000 HD 
HETATM   26  C   UNL     1      -8.658   8.574  68.939  1.00  0.00    -0.127 A  
ENDBRANCH  14  15
ENDBRANCH  12  14
ENDBRANCH  11  12
ENDBRANCH   3   8
TORSDOF 5
ENDMDL
MODEL      277
REMARK 921   NORMALIZED FREE ENERGY PREDICTED BY IDOCK:   -3.19 KCAL/MOL
REMARK 922        TOTAL FREE ENERGY PREDICTED BY IDOCK:   -4.57 KCAL/MOL
REMARK 923 INTER-LIGAND FREE ENERGY PREDICTED BY IDOCK:   -4.30 KCAL/MOL
REMARK 924 INTRA-LIGAND FREE ENERGY PREDICTED BY IDOCK:   -0.27 KCAL/MOL
REMARK 927      BINDING AFFINITY PREDICTED BY RF-SCORE:    0.00 PKD
ROOT
HETATM    1  N   UNL     1      -9.338   6.490  68.294  1.00  0.00    -0.119 NA 
HETATM    2  H1  UNL     1      -9.981   7.263  68.121  1.00  0.00     0.000 HD 
HETATM    3  CA  UNL     1     -10.060   5.291  68.806  1.00  0.00    -0.177 C  
HETATM    4  H2  UNL     1      -8.786   6.270  67.465  1.00  0.00     0.000 HD 
ENDROOT
BRANCH   3   5
HETATM    5  C   UNL     1      -9.093   4.128  69.066  1.00  0.00    -0.129 C  
HETATM    6  H   UNL     1      -9.058   2.190  68.732  1.00  0.00     0.000 HD 
HETATM    7  O   UNL     1      -9.656   2.909  68.571  1.00  0.00    -0.169 OA 
ENDBRANCH   3   5
BRANCH   3   8
HETATM    8  C   UNL     1     -10.847   5.637  70.073  1.00  0.00    -0.296 C  
HETATM    9  O   UNL     1     -10.671   5.092  71.162  1.00  0.00    -0.181 OA 
HETATM   10  H   UNL     1     -11.946   7.015  68.937  1.00  0.00     0.000 HD 
HETATM   11  N   UNL     1     -11.834   6.592  69.858  1.00  0.00    -0.304 N  
BRANCH  11  12
HETATM   12  N   UNL     1     -12.678   6.973  70.921  1.00  0.00    -0.555 NA 
HETATM   13  H   UNL     1     -12.663   6.286  71.674  1.00  0.00     0.000 HD 
BRANCH  12  14
HETATM   14  C   UNL     1     -12.346   8.322  71.412  1.00  0.00    -0.299 C  
BRANCH  14  15
HETATM   15  C   UNL     1     -10.854   8.581  71.401  1.00  0.00    -0.327 A  
HETATM   16  C   UNL     1      -9.979   8.114  72.393  1.00  0.00    -0.275 A  
HETATM   17  O   UNL     1     -10.391   7.361  73.467  1.00  0.00    -0.342 OA 
HETATM   18  C   UNL     1      -8.617   8.393  72.326  1.00  0.00    -0.197 A  
HETATM   19  H   UNL     1      -9.799   7.044  74.139  1.00  0.00     0.000 HD 
HETATM   20  C   UNL     1      -8.104   9.159  71.292  1.00  0.00    -0.015 A  
HETATM   21  O   UNL     1      -7.763   7.902  73.279  1.00  0.00    -0.121 OA 
HETATM   22  H   UNL     1      -6.833   8.092  73.233  1.00  0.00     0.000 HD 
HETATM   23  C   UNL     1      -8.945   9.664  70.314  1.00  0.00    -0.263 A  
HETATM   24  O   UNL     1      -6.765   9.424  71.234  1.00  0.00    -0.212 OA 
HETATM   25  H   UNL     1      -6.414   9.950  70.525  1.00  0.00     0.000 HD 
HETATM   26  C   UNL     1     -10.315   9.378  70.370  1.00  0.00    -0.318 A  
ENDBRANCH  14  15
ENDBRANCH  12  14
ENDBRANCH  11  12
ENDBRANCH   3   8
TORSDOF 5
ENDMDL
MODEL      278
REMARK 921   NORMALIZED FREE ENERGY PREDICTED BY IDOCK:   -3.19 KCAL/MOL
REMARK 922        TOTAL FREE ENERGY PREDICTED BY IDOCK:   -4.57 KCAL/MOL
REMARK 923 INTER-LIGAND FREE ENERGY PREDICTED BY IDOCK:   -3.98 KCAL/MOL
REMARK 924 INTRA-LIGAND FREE ENERGY PREDICTED BY IDOCK:   -0.59 KCAL/MOL
REMARK 927      BINDING AFFINITY PREDICTED BY RF-SCORE:    0.00 PKD
ROOT
HETATM    1  N   UNL     1      -9.442   5.274  71.347  1.00  0.00    -0.147 NA 
HETATM    2  H1  UNL     1      -9.815   5.800  72.138  1.00  0.00     0.000 HD 
HETATM    3  CA  UNL     1      -9.140   6.171  70.196  1.00  0.00    -0.152 C  
HETATM    4  H2  UNL     1      -8.627   4.722  71.616  1.00  0.00     0.000 HD 
ENDROOT
BRANCH   3   5
HETATM    5  C   UNL     1      -8.579   5.381  69.007  1.00  0.00    -0.102 C  
HETATM    6  H   UNL     1      -7.973   5.778  67.178  1.00  0.00     0.000 HD 
HETATM    7  O   UNL     1      -8.320   6.267  67.914  1.00  0.00    -0.117 OA 
ENDBRANCH   3   5
BRANCH   3   8
HETATM    8  C   UNL     1     -10.388   6.957  69.785  1.00  0.00    -0.206 C  
HETATM    9  O   UNL     1     -11.441   6.435  69.420  1.00  0.00    -0.401 OA 
HETATM   10  H   UNL     1      -9.305   8.723  70.111  1.00  0.00     0.000 HD 
HETATM   11  N   UNL     1     -10.196   8.334  69.804  1.00  0.00    -0.199 N  
BRANCH  11  12
HETATM   12  N   UNL     1     -11.240   9.188  69.397  1.00  0.00    -0.441 NA 
HETATM   13  H   UNL     1     -11.323   9.997  70.012  1.00  0.00     0.000 HD 
BRANCH  12  14
HETATM   14  C   UNL     1     -11.083   9.595  67.988  1.00  0.00    -0.047 C  
BRANCH  14  15
HETATM   15  C   UNL     1     -10.341  10.907  67.855  1.00  0.00    -0.216 A  
HETATM   16  C   UNL     1     -10.566  12.014  68.686  1.00  0.00    -0.229 A  
HETATM   17  O   UNL     1     -11.477  12.009  69.716  1.00  0.00    -0.414 OA 
HETATM   18  C   UNL     1      -9.852  13.196  68.505  1.00  0.00    -0.153 A  
HETATM   19  H   UNL     1     -11.630  12.758  70.279  1.00  0.00     0.000 HD 
HETATM   20  C   UNL     1      -8.923  13.308  67.483  1.00  0.00    -0.208 A  
HETATM   21  O   UNL     1     -10.052  14.259  69.345  1.00  0.00    -0.423 OA 
HETATM   22  H   UNL     1      -9.565  15.066  69.221  1.00  0.00     0.000 HD 
HETATM   23  C   UNL     1      -8.699  12.245  66.623  1.00  0.00    -0.132 A  
HETATM   24  O   UNL     1      -8.226  14.470  67.316  1.00  0.00    -0.192 OA 
HETATM   25  H   UNL     1      -7.588  14.548  66.615  1.00  0.00     0.000 HD 
HETATM   26  C   UNL     1      -9.407  11.050  66.807  1.00  0.00    -0.199 A  
ENDBRANCH  14  15
ENDBRANCH  12  14
ENDBRANCH  11  12
ENDBRANCH   3   8
TORSDOF 5
ENDMDL
MODEL      279
REMARK 921   NORMALIZED FREE ENERGY PREDICTED BY IDOCK:   -3.17 KCAL/MOL
REMARK 922        TOTAL FREE ENERGY PREDICTED BY IDOCK:   -4.54 KCAL/MOL
REMARK 923 INTER-LIGAND FREE ENERGY PREDICTED BY IDOCK:   -4.10 KCAL/MOL
REMARK 924 INTRA-LIGAND FREE ENERGY PREDICTED BY IDOCK:   -0.44 KCAL/MOL
REMARK 927      BINDING AFFINITY PREDICTED BY RF-SCORE:    0.00 PKD
ROOT
HETATM    1  N   UNL     1      -5.956   7.825  66.513  1.00  0.00    -0.040 NA 
HETATM    2  H1  UNL     1      -6.405   7.467  65.670  1.00  0.00     0.000 HD 
HETATM    3  CA  UNL     1      -6.869   8.730  67.268  1.00  0.00    -0.067 C  
HETATM    4  H2  UNL     1      -5.606   7.069  67.102  1.00  0.00     0.000 HD 
ENDROOT
BRANCH   3   5
HETATM    5  C   UNL     1      -6.194   9.269  68.536  1.00  0.00    -0.049 C  
HETATM    6  H   UNL     1      -6.350   8.983  70.476  1.00  0.00     0.000 HD 
HETATM    7  O   UNL     1      -6.768   8.649  69.692  1.00  0.00    -0.039 OA 
ENDBRANCH   3   5
BRANCH   3   8
HETATM    8  C   UNL     1      -7.345   9.880  66.376  1.00  0.00    -0.101 C  
HETATM    9  O   UNL     1      -7.074   9.981  65.181  1.00  0.00    -0.123 OA 
HETATM   10  H   UNL     1      -8.270  10.719  68.061  1.00  0.00     0.000 HD 
HETATM   11  N   UNL     1      -8.071  10.842  67.068  1.00  0.00    -0.127 N  
BRANCH  11  12
HETATM   12  N   UNL     1      -8.530  11.989  66.390  1.00  0.00    -0.383 NA 
HETATM   13  H   UNL     1      -8.083  12.089  65.479  1.00  0.00     0.000 HD 
BRANCH  12  14
HETATM   14  C   UNL     1     -10.000  11.993  66.275  1.00  0.00    -0.227 C  
BRANCH  14  15
HETATM   15  C   UNL     1     -10.639  13.023  67.182  1.00  0.00    -0.251 A  
HETATM   16  C   UNL     1     -10.804  12.843  68.563  1.00  0.00    -0.257 A  
HETATM   17  O   UNL     1     -10.388  11.716  69.232  1.00  0.00    -0.418 OA 
HETATM   18  C   UNL     1     -11.407  13.829  69.340  1.00  0.00    -0.250 A  
HETATM   19  H   UNL     1     -10.499  11.594  70.167  1.00  0.00     0.000 HD 
HETATM   20  C   UNL     1     -11.877  14.996  68.759  1.00  0.00    -0.301 A  
HETATM   21  O   UNL     1     -11.531  13.662  70.695  1.00  0.00    -0.502 OA 
HETATM   22  H   UNL     1     -11.942  14.334  71.225  1.00  0.00     0.000 HD 
HETATM   23  C   UNL     1     -11.759  15.191  67.393  1.00  0.00    -0.189 A  
HETATM   24  O   UNL     1     -12.464  15.958  69.531  1.00  0.00    -0.465 OA 
HETATM   25  H   UNL     1     -12.786  16.758  69.132  1.00  0.00     0.000 HD 
HETATM   26  C   UNL     1     -11.145  14.207  66.607  1.00  0.00    -0.314 A  
ENDBRANCH  14  15
ENDBRANCH  12  14
ENDBRANCH  11  12
ENDBRANCH   3   8
TORSDOF 5
ENDMDL
MODEL      280
REMARK 921   NORMALIZED FREE ENERGY PREDICTED BY IDOCK:   -3.16 KCAL/MOL
REMARK 922        TOTAL FREE ENERGY PREDICTED BY IDOCK:   -4.54 KCAL/MOL
REMARK 923 INTER-LIGAND FREE ENERGY PREDICTED BY IDOCK:   -4.25 KCAL/MOL
REMARK 924 INTRA-LIGAND FREE ENERGY PREDICTED BY IDOCK:   -0.28 KCAL/MOL
REMARK 927      BINDING AFFINITY PREDICTED BY RF-SCORE:    0.00 PKD
ROOT
HETATM    1  N   UNL     1      -6.002   3.955  70.762  1.00  0.00    -0.014 NA 
HETATM    2  H1  UNL     1      -5.695   4.713  70.152  1.00  0.00     0.000 HD 
HETATM    3  CA  UNL     1      -7.486   3.945  70.906  1.00  0.00    -0.040 C  
HETATM    4  H2  UNL     1      -5.650   3.051  70.445  1.00  0.00     0.000 HD 
ENDROOT
BRANCH   3   5
HETATM    5  C   UNL     1      -7.949   2.806  71.823  1.00  0.00    -0.057 C  
HETATM    6  H   UNL     1      -9.402   1.480  71.842  1.00  0.00     0.000 HD 
HETATM    7  O   UNL     1      -9.115   2.184  71.274  1.00  0.00    -0.076 OA 
ENDBRANCH   3   5
BRANCH   3   8
HETATM    8  C   UNL     1      -7.985   5.297  71.423  1.00  0.00    -0.114 C  
HETATM    9  O   UNL     1      -8.148   5.560  72.614  1.00  0.00    -0.105 OA 
HETATM   10  H   UNL     1      -8.152   5.927  69.430  1.00  0.00     0.000 HD 
HETATM   11  N   UNL     1      -8.300   6.189  70.405  1.00  0.00    -0.123 N  
BRANCH  11  12
HETATM   12  N   UNL     1      -8.825   7.456  70.726  1.00  0.00    -0.148 NA 
HETATM   13  H   UNL     1      -8.090   8.159  70.793  1.00  0.00     0.000 HD 
BRANCH  12  14
HETATM   14  C   UNL     1      -9.874   7.860  69.772  1.00  0.00    -0.179 C  
BRANCH  14  15
HETATM   15  C   UNL     1     -10.863   8.825  70.391  1.00  0.00    -0.256 A  
HETATM   16  C   UNL     1     -10.899  10.195  70.093  1.00  0.00    -0.311 A  
HETATM   17  O   UNL     1     -10.045  10.794  69.198  1.00  0.00    -0.213 OA 
HETATM   18  C   UNL     1     -11.832  11.030  70.703  1.00  0.00    -0.333 A  
HETATM   19  H   UNL     1     -10.069  11.722  68.996  1.00  0.00     0.000 HD 
HETATM   20  C   UNL     1     -12.726  10.526  71.635  1.00  0.00    -0.445 A  
HETATM   21  O   UNL     1     -11.885  12.360  70.380  1.00  0.00    -0.505 OA 
HETATM   22  H   UNL     1     -12.521  12.930  70.796  1.00  0.00     0.000 HD 
HETATM   23  C   UNL     1     -12.696   9.184  71.976  1.00  0.00    -0.473 A  
HETATM   24  O   UNL     1     -13.639  11.353  72.225  1.00  0.00    -0.537 OA 
HETATM   25  H   UNL     1     -14.252  11.008  72.863  1.00  0.00     0.000 HD 
HETATM   26  C   UNL     1     -11.767   8.338  71.358  1.00  0.00    -0.327 A  
ENDBRANCH  14  15
ENDBRANCH  12  14
ENDBRANCH  11  12
ENDBRANCH   3   8
TORSDOF 5
ENDMDL
MODEL      281
REMARK 921   NORMALIZED FREE ENERGY PREDICTED BY IDOCK:   -3.16 KCAL/MOL
REMARK 922        TOTAL FREE ENERGY PREDICTED BY IDOCK:   -4.53 KCAL/MOL
REMARK 923 INTER-LIGAND FREE ENERGY PREDICTED BY IDOCK:   -3.79 KCAL/MOL
REMARK 924 INTRA-LIGAND FREE ENERGY PREDICTED BY IDOCK:   -0.74 KCAL/MOL
REMARK 927      BINDING AFFINITY PREDICTED BY RF-SCORE:    0.00 PKD
ROOT
HETATM    1  N   UNL     1      -7.056   6.275  66.883  1.00  0.00    -0.071 NA 
HETATM    2  H1  UNL     1      -6.460   6.732  67.573  1.00  0.00     0.000 HD 
HETATM    3  CA  UNL     1      -7.125   7.065  65.620  1.00  0.00    -0.068 C  
HETATM    4  H2  UNL     1      -6.759   5.314  66.708  1.00  0.00     0.000 HD 
ENDROOT
BRANCH   3   5
HETATM    5  C   UNL     1      -8.022   6.377  64.582  1.00  0.00    -0.118 C  
HETATM    6  H   UNL     1      -9.280   4.866  64.549  1.00  0.00     0.000 HD 
HETATM    7  O   UNL     1      -8.725   5.291  65.192  1.00  0.00    -0.149 OA 
ENDBRANCH   3   5
BRANCH   3   8
HETATM    8  C   UNL     1      -7.614   8.488  65.903  1.00  0.00    -0.085 C  
HETATM    9  O   UNL     1      -8.729   8.906  65.594  1.00  0.00    -0.160 OA 
HETATM   10  H   UNL     1      -5.732   8.902  66.729  1.00  0.00     0.000 HD 
HETATM   11  N   UNL     1      -6.645   9.291  66.492  1.00  0.00    -0.067 N  
BRANCH  11  12
HETATM   12  N   UNL     1      -6.930  10.644  66.762  1.00  0.00    -0.103 NA 
HETATM   13  H   UNL     1      -7.680  10.994  66.166  1.00  0.00     0.000 HD 
BRANCH  12  14
HETATM   14  C   UNL     1      -7.233  10.855  68.190  1.00  0.00    -0.083 C  
BRANCH  14  15
HETATM   15  C   UNL     1      -8.718  10.783  68.473  1.00  0.00    -0.149 A  
HETATM   16  C   UNL     1      -9.681  11.500  67.748  1.00  0.00    -0.174 A  
HETATM   17  O   UNL     1      -9.369  12.330  66.697  1.00  0.00    -0.218 OA 
HETATM   18  C   UNL     1     -11.033  11.393  68.065  1.00  0.00    -0.237 A  
HETATM   19  H   UNL     1     -10.021  12.815  66.206  1.00  0.00     0.000 HD 
HETATM   20  C   UNL     1     -11.449  10.596  69.119  1.00  0.00    -0.280 A  
HETATM   21  O   UNL     1     -11.971  12.068  67.328  1.00  0.00    -0.591 OA 
HETATM   22  H   UNL     1     -12.893  11.995  67.544  1.00  0.00     0.000 HD 
HETATM   23  C   UNL     1     -10.521   9.900  69.877  1.00  0.00    -0.309 A  
HETATM   24  O   UNL     1     -12.778  10.496  69.419  1.00  0.00    -0.692 OA 
HETATM   25  H   UNL     1     -13.063   9.949  70.142  1.00  0.00     0.000 HD 
HETATM   26  C   UNL     1      -9.161   9.995  69.556  1.00  0.00    -0.236 A  
ENDBRANCH  14  15
ENDBRANCH  12  14
ENDBRANCH  11  12
ENDBRANCH   3   8
TORSDOF 5
ENDMDL
MODEL      282
REMARK 921   NORMALIZED FREE ENERGY PREDICTED BY IDOCK:   -3.16 KCAL/MOL
REMARK 922        TOTAL FREE ENERGY PREDICTED BY IDOCK:   -4.53 KCAL/MOL
REMARK 923 INTER-LIGAND FREE ENERGY PREDICTED BY IDOCK:   -4.29 KCAL/MOL
REMARK 924 INTRA-LIGAND FREE ENERGY PREDICTED BY IDOCK:   -0.25 KCAL/MOL
REMARK 927      BINDING AFFINITY PREDICTED BY RF-SCORE:    0.00 PKD
ROOT
HETATM    1  N   UNL     1      -6.857   7.390  67.420  1.00  0.00    -0.075 NA 
HETATM    2  H1  UNL     1      -6.561   8.337  67.183  1.00  0.00     0.000 HD 
HETATM    3  CA  UNL     1      -8.126   7.031  66.724  1.00  0.00    -0.109 C  
HETATM    4  H2  UNL     1      -6.121   6.709  67.232  1.00  0.00     0.000 HD 
ENDROOT
BRANCH   3   5
HETATM    5  C   UNL     1      -8.572   5.606  67.079  1.00  0.00    -0.109 C  
HETATM    6  H   UNL     1      -9.492   4.123  66.172  1.00  0.00     0.000 HD 
HETATM    7  O   UNL     1      -9.216   5.005  65.952  1.00  0.00    -0.147 OA 
ENDBRANCH   3   5
BRANCH   3   8
HETATM    8  C   UNL     1      -9.226   8.043  67.054  1.00  0.00    -0.147 C  
HETATM    9  O   UNL     1     -10.426   7.774  67.068  1.00  0.00    -0.309 OA 
HETATM   10  H   UNL     1      -7.733   9.503  67.256  1.00  0.00     0.000 HD 
HETATM   11  N   UNL     1      -8.738   9.325  67.280  1.00  0.00    -0.127 N  
BRANCH  11  12
HETATM   12  N   UNL     1      -9.638  10.377  67.542  1.00  0.00    -0.155 NA 
HETATM   13  H   UNL     1      -9.872  10.431  68.533  1.00  0.00     0.000 HD 
BRANCH  12  14
HETATM   14  C   UNL     1      -9.122  11.663  67.038  1.00  0.00    -0.179 C  
BRANCH  14  15
HETATM   15  C   UNL     1      -9.946  12.836  67.524  1.00  0.00    -0.210 A  
HETATM   16  C   UNL     1      -9.966  14.086  66.889  1.00  0.00    -0.263 A  
HETATM   17  O   UNL     1      -9.247  14.364  65.750  1.00  0.00    -0.515 OA 
HETATM   18  C   UNL     1     -10.742  15.126  67.393  1.00  0.00    -0.286 A  
HETATM   19  H   UNL     1      -9.260  15.210  65.320  1.00  0.00     0.000 HD 
HETATM   20  C   UNL     1     -11.490  14.953  68.547  1.00  0.00    -0.315 A  
HETATM   21  O   UNL     1     -10.785  16.333  66.745  1.00  0.00    -0.293 OA 
HETATM   22  H   UNL     1     -11.315  17.043  67.089  1.00  0.00     0.000 HD 
HETATM   23  C   UNL     1     -11.468  13.741  69.217  1.00  0.00    -0.344 A  
HETATM   24  O   UNL     1     -12.251  15.979  69.031  1.00  0.00    -0.461 OA 
HETATM   25  H   UNL     1     -12.764  15.860  69.822  1.00  0.00     0.000 HD 
HETATM   26  C   UNL     1     -10.697  12.687  68.709  1.00  0.00    -0.240 A  
ENDBRANCH  14  15
ENDBRANCH  12  14
ENDBRANCH  11  12
ENDBRANCH   3   8
TORSDOF 5
ENDMDL
MODEL      283
REMARK 921   NORMALIZED FREE ENERGY PREDICTED BY IDOCK:   -3.15 KCAL/MOL
REMARK 922        TOTAL FREE ENERGY PREDICTED BY IDOCK:   -4.52 KCAL/MOL
REMARK 923 INTER-LIGAND FREE ENERGY PREDICTED BY IDOCK:   -4.23 KCAL/MOL
REMARK 924 INTRA-LIGAND FREE ENERGY PREDICTED BY IDOCK:   -0.29 KCAL/MOL
REMARK 927      BINDING AFFINITY PREDICTED BY RF-SCORE:    0.00 PKD
ROOT
HETATM    1  N   UNL     1      -8.955  12.032  65.249  1.00  0.00    -0.316 NA 
HETATM    2  H1  UNL     1      -8.387  11.411  65.825  1.00  0.00     0.000 HD 
HETATM    3  CA  UNL     1      -9.915  12.813  66.081  1.00  0.00    -0.266 C  
HETATM    4  H2  UNL     1      -8.376  12.643  64.673  1.00  0.00     0.000 HD 
ENDROOT
BRANCH   3   5
HETATM    5  C   UNL     1     -10.770  13.747  65.216  1.00  0.00    -0.339 C  
HETATM    6  H   UNL     1     -11.344  13.836  63.336  1.00  0.00     0.000 HD 
HETATM    7  O   UNL     1     -10.815  13.258  63.872  1.00  0.00    -0.331 OA 
ENDBRANCH   3   5
BRANCH   3   8
HETATM    8  C   UNL     1     -10.800  11.874  66.905  1.00  0.00    -0.263 C  
HETATM    9  O   UNL     1     -12.028  11.949  66.950  1.00  0.00    -0.614 OA 
HETATM   10  H   UNL     1      -9.056  10.931  67.588  1.00  0.00     0.000 HD 
HETATM   11  N   UNL     1     -10.074  10.956  67.654  1.00  0.00    -0.175 N  
BRANCH  11  12
HETATM   12  N   UNL     1     -10.750  10.060  68.505  1.00  0.00    -0.221 NA 
HETATM   13  H   UNL     1     -11.320   9.400  67.977  1.00  0.00     0.000 HD 
BRANCH  12  14
HETATM   14  C   UNL     1      -9.814   9.365  69.407  1.00  0.00    -0.178 C  
BRANCH  14  15
HETATM   15  C   UNL     1      -9.820   7.867  69.189  1.00  0.00    -0.174 A  
HETATM   16  C   UNL     1     -10.023   6.935  70.217  1.00  0.00    -0.179 A  
HETATM   17  O   UNL     1     -10.252   7.294  71.525  1.00  0.00    -0.194 OA 
HETATM   18  C   UNL     1     -10.010   5.569  69.949  1.00  0.00    -0.215 A  
HETATM   19  H   UNL     1     -10.390   6.662  72.221  1.00  0.00     0.000 HD 
HETATM   20  C   UNL     1      -9.771   5.104  68.666  1.00  0.00    -0.151 A  
HETATM   21  O   UNL     1     -10.247   4.666  70.952  1.00  0.00    -0.211 OA 
HETATM   22  H   UNL     1     -10.238   3.733  70.770  1.00  0.00     0.000 HD 
HETATM   23  C   UNL     1      -9.534   5.997  67.634  1.00  0.00    -0.112 A  
HETATM   24  O   UNL     1      -9.764   3.762  68.413  1.00  0.00    -0.131 OA 
HETATM   25  H   UNL     1      -9.599   3.443  67.533  1.00  0.00     0.000 HD 
HETATM   26  C   UNL     1      -9.555   7.373  67.895  1.00  0.00    -0.157 A  
ENDBRANCH  14  15
ENDBRANCH  12  14
ENDBRANCH  11  12
ENDBRANCH   3   8
TORSDOF 5
ENDMDL
MODEL      284
REMARK 921   NORMALIZED FREE ENERGY PREDICTED BY IDOCK:   -3.11 KCAL/MOL
REMARK 922        TOTAL FREE ENERGY PREDICTED BY IDOCK:   -4.47 KCAL/MOL
REMARK 923 INTER-LIGAND FREE ENERGY PREDICTED BY IDOCK:   -4.01 KCAL/MOL
REMARK 924 INTRA-LIGAND FREE ENERGY PREDICTED BY IDOCK:   -0.46 KCAL/MOL
REMARK 927      BINDING AFFINITY PREDICTED BY RF-SCORE:    0.00 PKD
ROOT
HETATM    1  N   UNL     1     -13.296  10.744  71.936  1.00  0.00    -0.426 NA 
HETATM    2  H1  UNL     1     -12.700  11.540  72.164  1.00  0.00     0.000 HD 
HETATM    3  CA  UNL     1     -12.527   9.467  71.966  1.00  0.00    -0.349 C  
HETATM    4  H2  UNL     1     -14.115  10.703  72.544  1.00  0.00     0.000 HD 
ENDROOT
BRANCH   3   5
HETATM    5  C   UNL     1     -13.423   8.270  71.625  1.00  0.00    -0.331 C  
HETATM    6  H   UNL     1     -13.215   6.319  71.472  1.00  0.00     0.000 HD 
HETATM    7  O   UNL     1     -12.660   7.060  71.684  1.00  0.00    -0.352 OA 
ENDBRANCH   3   5
BRANCH   3   8
HETATM    8  C   UNL     1     -11.329   9.538  71.015  1.00  0.00    -0.352 C  
HETATM    9  O   UNL     1     -11.423   9.733  69.804  1.00  0.00    -0.201 OA 
HETATM   10  H   UNL     1     -10.085   9.139  72.655  1.00  0.00     0.000 HD 
HETATM   11  N   UNL     1     -10.115   9.298  71.648  1.00  0.00    -0.267 N  
BRANCH  11  12
HETATM   12  N   UNL     1      -8.927   9.276  70.891  1.00  0.00    -0.235 NA 
HETATM   13  H   UNL     1      -8.481  10.193  70.868  1.00  0.00     0.000 HD 
BRANCH  12  14
HETATM   14  C   UNL     1      -8.001   8.236  71.374  1.00  0.00    -0.119 C  
BRANCH  14  15
HETATM   15  C   UNL     1      -8.719   6.943  71.700  1.00  0.00    -0.124 A  
HETATM   16  C   UNL     1      -9.073   6.560  73.001  1.00  0.00    -0.128 A  
HETATM   17  O   UNL     1      -8.815   7.331  74.110  1.00  0.00    -0.191 OA 
HETATM   18  C   UNL     1      -9.727   5.352  73.233  1.00  0.00    -0.150 A  
HETATM   19  H   UNL     1      -9.056   7.072  74.992  1.00  0.00     0.000 HD 
HETATM   20  C   UNL     1     -10.017   4.495  72.183  1.00  0.00    -0.183 A  
HETATM   21  O   UNL     1     -10.103   5.003  74.503  1.00  0.00    -0.202 OA 
HETATM   22  H   UNL     1     -10.550   4.179  74.661  1.00  0.00     0.000 HD 
HETATM   23  C   UNL     1      -9.651   4.828  70.889  1.00  0.00    -0.245 A  
HETATM   24  O   UNL     1     -10.662   3.315  72.421  1.00  0.00    -0.006 OA 
HETATM   25  H   UNL     1     -10.860   2.727  71.701  1.00  0.00     0.000 HD 
HETATM   26  C   UNL     1      -9.002   6.046  70.649  1.00  0.00    -0.150 A  
ENDBRANCH  14  15
ENDBRANCH  12  14
ENDBRANCH  11  12
ENDBRANCH   3   8
TORSDOF 5
ENDMDL
MODEL      285
REMARK 921   NORMALIZED FREE ENERGY PREDICTED BY IDOCK:   -3.07 KCAL/MOL
REMARK 922        TOTAL FREE ENERGY PREDICTED BY IDOCK:   -4.42 KCAL/MOL
REMARK 923 INTER-LIGAND FREE ENERGY PREDICTED BY IDOCK:   -4.09 KCAL/MOL
REMARK 924 INTRA-LIGAND FREE ENERGY PREDICTED BY IDOCK:   -0.32 KCAL/MOL
REMARK 927      BINDING AFFINITY PREDICTED BY RF-SCORE:    0.00 PKD
ROOT
HETATM    1  N   UNL     1     -10.811  14.913  71.056  1.00  0.00    -0.540 NA 
HETATM    2  H1  UNL     1     -11.139  14.403  71.877  1.00  0.00     0.000 HD 
HETATM    3  CA  UNL     1     -11.611  14.564  69.848  1.00  0.00    -0.287 C  
HETATM    4  H2  UNL     1     -10.801  15.920  71.220  1.00  0.00     0.000 HD 
ENDROOT
BRANCH   3   5
HETATM    5  C   UNL     1     -11.119  15.331  68.614  1.00  0.00    -0.279 C  
HETATM    6  H   UNL     1     -10.909  17.214  68.085  1.00  0.00     0.000 HD 
HETATM    7  O   UNL     1     -11.213  16.739  68.848  1.00  0.00    -0.250 OA 
ENDBRANCH   3   5
BRANCH   3   8
HETATM    8  C   UNL     1     -11.576  13.053  69.598  1.00  0.00    -0.253 C  
HETATM    9  O   UNL     1     -12.245  12.236  70.229  1.00  0.00    -0.319 OA 
HETATM   10  H   UNL     1     -10.123  13.395  68.125  1.00  0.00     0.000 HD 
HETATM   11  N   UNL     1     -10.659  12.683  68.621  1.00  0.00    -0.237 N  
BRANCH  11  12
HETATM   12  N   UNL     1     -10.475  11.319  68.320  1.00  0.00    -0.187 NA 
HETATM   13  H   UNL     1     -11.114  10.729  68.852  1.00  0.00     0.000 HD 
BRANCH  12  14
HETATM   14  C   UNL     1     -10.587  11.068  66.872  1.00  0.00    -0.258 C  
BRANCH  14  15
HETATM   15  C   UNL     1      -9.313  10.489  66.295  1.00  0.00    -0.202 A  
HETATM   16  C   UNL     1      -9.188  10.064  64.964  1.00  0.00    -0.225 A  
HETATM   17  O   UNL     1     -10.210  10.145  64.048  1.00  0.00    -0.461 OA 
HETATM   18  C   UNL     1      -7.988   9.532  64.498  1.00  0.00    -0.133 A  
HETATM   19  H   UNL     1     -10.125   9.857  63.147  1.00  0.00     0.000 HD 
HETATM   20  C   UNL     1      -6.902   9.391  65.348  1.00  0.00    -0.079 A  
HETATM   21  O   UNL     1      -7.862   9.154  63.188  1.00  0.00    -0.121 OA 
HETATM   22  H   UNL     1      -7.043   8.792  62.870  1.00  0.00     0.000 HD 
HETATM   23  C   UNL     1      -7.002   9.771  66.677  1.00  0.00    -0.085 A  
HETATM   24  O   UNL     1      -5.729   8.873  64.880  1.00  0.00    -0.056 OA 
HETATM   25  H   UNL     1      -4.984   8.776  65.463  1.00  0.00     0.000 HD 
HETATM   26  C   UNL     1      -8.204  10.315  67.149  1.00  0.00    -0.121 A  
ENDBRANCH  14  15
ENDBRANCH  12  14
ENDBRANCH  11  12
ENDBRANCH   3   8
TORSDOF 5
ENDMDL
MODEL      286
REMARK 921   NORMALIZED FREE ENERGY PREDICTED BY IDOCK:   -3.07 KCAL/MOL
REMARK 922        TOTAL FREE ENERGY PREDICTED BY IDOCK:   -4.42 KCAL/MOL
REMARK 923 INTER-LIGAND FREE ENERGY PREDICTED BY IDOCK:   -4.09 KCAL/MOL
REMARK 924 INTRA-LIGAND FREE ENERGY PREDICTED BY IDOCK:   -0.33 KCAL/MOL
REMARK 927      BINDING AFFINITY PREDICTED BY RF-SCORE:    0.00 PKD
ROOT
HETATM    1  N   UNL     1     -12.596   7.075  70.469  1.00  0.00    -0.593 NA 
HETATM    2  H1  UNL     1     -12.138   6.788  69.604  1.00  0.00     0.000 HD 
HETATM    3  CA  UNL     1     -11.972   8.309  71.027  1.00  0.00    -0.241 C  
HETATM    4  H2  UNL     1     -13.602   7.189  70.339  1.00  0.00     0.000 HD 
ENDROOT
BRANCH   3   5
HETATM    5  C   UNL     1     -12.662   8.741  72.327  1.00  0.00    -0.402 C  
HETATM    6  H   UNL     1     -14.495   9.154  72.910  1.00  0.00     0.000 HD 
HETATM    7  O   UNL     1     -14.068   8.886  72.106  1.00  0.00    -0.434 OA 
ENDBRANCH   3   5
BRANCH   3   8
HETATM    8  C   UNL     1     -10.472   8.098  71.251  1.00  0.00    -0.209 C  
HETATM    9  O   UNL     1      -9.895   8.337  72.311  1.00  0.00    -0.235 OA 
HETATM   10  H   UNL     1     -10.325   7.484  69.251  1.00  0.00     0.000 HD 
HETATM   11  N   UNL     1      -9.806   7.666  70.110  1.00  0.00    -0.184 N  
BRANCH  11  12
HETATM   12  N   UNL     1      -8.409   7.481  70.148  1.00  0.00    -0.133 NA 
HETATM   13  H   UNL     1      -8.128   6.921  70.952  1.00  0.00     0.000 HD 
BRANCH  12  14
HETATM   14  C   UNL     1      -7.910   6.905  68.886  1.00  0.00    -0.111 C  
BRANCH  14  15
HETATM   15  C   UNL     1      -7.975   7.896  67.743  1.00  0.00    -0.124 A  
HETATM   16  C   UNL     1      -8.479   7.582  66.473  1.00  0.00    -0.131 A  
HETATM   17  O   UNL     1      -8.978   6.343  66.145  1.00  0.00    -0.154 OA 
HETATM   18  C   UNL     1      -8.505   8.540  65.462  1.00  0.00    -0.167 A  
HETATM   19  H   UNL     1      -9.320   6.130  65.285  1.00  0.00     0.000 HD 
HETATM   20  C   UNL     1      -8.009   9.814  65.687  1.00  0.00    -0.117 A  
HETATM   21  O   UNL     1      -9.033   8.235  64.235  1.00  0.00    -0.319 OA 
HETATM   22  H   UNL     1      -9.051   8.889  63.546  1.00  0.00     0.000 HD 
HETATM   23  C   UNL     1      -7.474  10.148  66.920  1.00  0.00    -0.096 A  
HETATM   24  O   UNL     1      -8.042  10.747  64.690  1.00  0.00    -0.353 OA 
HETATM   25  H   UNL     1      -7.702  11.621  64.843  1.00  0.00     0.000 HD 
HETATM   26  C   UNL     1      -7.455   9.191  67.943  1.00  0.00    -0.084 A  
ENDBRANCH  14  15
ENDBRANCH  12  14
ENDBRANCH  11  12
ENDBRANCH   3   8
TORSDOF 5
ENDMDL
MODEL      287
REMARK 921   NORMALIZED FREE ENERGY PREDICTED BY IDOCK:   -3.06 KCAL/MOL
REMARK 922        TOTAL FREE ENERGY PREDICTED BY IDOCK:   -4.40 KCAL/MOL
REMARK 923 INTER-LIGAND FREE ENERGY PREDICTED BY IDOCK:   -3.78 KCAL/MOL
REMARK 924 INTRA-LIGAND FREE ENERGY PREDICTED BY IDOCK:   -0.62 KCAL/MOL
REMARK 927      BINDING AFFINITY PREDICTED BY RF-SCORE:    0.00 PKD
ROOT
HETATM    1  N   UNL     1      -9.550  11.360  67.085  1.00  0.00    -0.178 NA 
HETATM    2  H1  UNL     1      -8.635  10.918  67.183  1.00  0.00     0.000 HD 
HETATM    3  CA  UNL     1     -10.189  11.579  68.413  1.00  0.00    -0.205 C  
HETATM    4  H2  UNL     1      -9.492  12.226  66.548  1.00  0.00     0.000 HD 
ENDROOT
BRANCH   3   5
HETATM    5  C   UNL     1     -11.564  12.244  68.266  1.00  0.00    -0.331 C  
HETATM    6  H   UNL     1     -12.913  12.449  66.850  1.00  0.00     0.000 HD 
HETATM    7  O   UNL     1     -12.062  12.038  66.941  1.00  0.00    -0.608 OA 
ENDBRANCH   3   5
BRANCH   3   8
HETATM    8  C   UNL     1     -10.302  10.259  69.180  1.00  0.00    -0.223 C  
HETATM    9  O   UNL     1     -11.306   9.907  69.798  1.00  0.00    -0.239 OA 
HETATM   10  H   UNL     1      -8.318   9.849  68.641  1.00  0.00     0.000 HD 
HETATM   11  N   UNL     1      -9.128   9.516  69.164  1.00  0.00    -0.145 N  
BRANCH  11  12
HETATM   12  N   UNL     1      -9.062   8.301  69.875  1.00  0.00    -0.146 NA 
HETATM   13  H   UNL     1      -9.956   7.811  69.860  1.00  0.00     0.000 HD 
BRANCH  12  14
HETATM   14  C   UNL     1      -7.969   7.446  69.377  1.00  0.00    -0.124 C  
BRANCH  14  15
HETATM   15  C   UNL     1      -8.280   6.861  68.016  1.00  0.00    -0.115 A  
HETATM   16  C   UNL     1      -9.312   5.939  67.786  1.00  0.00    -0.106 A  
HETATM   17  O   UNL     1     -10.154   5.488  68.775  1.00  0.00    -0.161 OA 
HETATM   18  C   UNL     1      -9.541   5.434  66.508  1.00  0.00    -0.156 A  
HETATM   19  H   UNL     1     -10.853   4.864  68.619  1.00  0.00     0.000 HD 
HETATM   20  C   UNL     1      -8.736   5.813  65.446  1.00  0.00    -0.119 A  
HETATM   21  O   UNL     1     -10.575   4.563  66.285  1.00  0.00    -0.391 OA 
HETATM   22  H   UNL     1     -10.731   4.218  65.413  1.00  0.00     0.000 HD 
HETATM   23  C   UNL     1      -7.688   6.696  65.644  1.00  0.00    -0.095 A  
HETATM   24  O   UNL     1      -8.972   5.314  64.196  1.00  0.00    -0.340 OA 
HETATM   25  H   UNL     1      -8.420   5.574  63.467  1.00  0.00     0.000 HD 
HETATM   26  C   UNL     1      -7.459   7.216  66.925  1.00  0.00    -0.100 A  
ENDBRANCH  14  15
ENDBRANCH  12  14
ENDBRANCH  11  12
ENDBRANCH   3   8
TORSDOF 5
ENDMDL
MODEL      288
REMARK 921   NORMALIZED FREE ENERGY PREDICTED BY IDOCK:   -3.05 KCAL/MOL
REMARK 922        TOTAL FREE ENERGY PREDICTED BY IDOCK:   -4.39 KCAL/MOL
REMARK 923 INTER-LIGAND FREE ENERGY PREDICTED BY IDOCK:   -3.84 KCAL/MOL
REMARK 924 INTRA-LIGAND FREE ENERGY PREDICTED BY IDOCK:   -0.55 KCAL/MOL
REMARK 927      BINDING AFFINITY PREDICTED BY RF-SCORE:    0.00 PKD
ROOT
HETATM    1  N   UNL     1      -7.693   4.489  64.593  1.00  0.00    -0.079 NA 
HETATM    2  H1  UNL     1      -6.955   5.194  64.580  1.00  0.00     0.000 HD 
HETATM    3  CA  UNL     1      -8.962   5.044  65.143  1.00  0.00    -0.143 C  
HETATM    4  H2  UNL     1      -7.833   4.076  63.670  1.00  0.00     0.000 HD 
ENDROOT
BRANCH   3   5
HETATM    5  C   UNL     1     -10.070   3.983  65.163  1.00  0.00    -0.182 C  
HETATM    6  H   UNL     1     -12.031   3.961  65.316  1.00  0.00     0.000 HD 
HETATM    7  O   UNL     1     -11.345   4.617  65.303  1.00  0.00    -0.074 OA 
ENDBRANCH   3   5
BRANCH   3   8
HETATM    8  C   UNL     1      -8.735   5.619  66.544  1.00  0.00    -0.121 C  
HETATM    9  O   UNL     1      -8.229   4.989  67.472  1.00  0.00    -0.105 OA 
HETATM   10  H   UNL     1      -9.632   7.397  65.890  1.00  0.00     0.000 HD 
HETATM   11  N   UNL     1      -9.217   6.914  66.687  1.00  0.00    -0.153 N  
BRANCH  11  12
HETATM   12  N   UNL     1      -9.129   7.556  67.938  1.00  0.00    -0.131 NA 
HETATM   13  H   UNL     1      -8.508   8.365  67.901  1.00  0.00     0.000 HD 
BRANCH  12  14
HETATM   14  C   UNL     1     -10.462   7.922  68.449  1.00  0.00    -0.166 C  
BRANCH  14  15
HETATM   15  C   UNL     1     -10.549   7.793  69.955  1.00  0.00    -0.238 A  
HETATM   16  C   UNL     1      -9.671   8.437  70.840  1.00  0.00    -0.174 A  
HETATM   17  O   UNL     1      -8.651   9.260  70.423  1.00  0.00    -0.180 OA 
HETATM   18  C   UNL     1      -9.801   8.271  72.216  1.00  0.00    -0.294 A  
HETATM   19  H   UNL     1      -8.057   9.696  71.022  1.00  0.00     0.000 HD 
HETATM   20  C   UNL     1     -10.786   7.446  72.736  1.00  0.00    -0.326 A  
HETATM   21  O   UNL     1      -8.963   8.932  73.074  1.00  0.00    -0.218 OA 
HETATM   22  H   UNL     1      -9.052   8.819  74.014  1.00  0.00     0.000 HD 
HETATM   23  C   UNL     1     -11.650   6.771  71.890  1.00  0.00    -0.330 A  
HETATM   24  O   UNL     1     -10.908   7.294  74.088  1.00  0.00    -0.536 OA 
HETATM   25  H   UNL     1     -11.584   6.728  74.445  1.00  0.00     0.000 HD 
HETATM   26  C   UNL     1     -11.529   6.941  70.505  1.00  0.00    -0.390 A  
ENDBRANCH  14  15
ENDBRANCH  12  14
ENDBRANCH  11  12
ENDBRANCH   3   8
TORSDOF 5
ENDMDL
MODEL      289
REMARK 921   NORMALIZED FREE ENERGY PREDICTED BY IDOCK:   -3.04 KCAL/MOL
REMARK 922        TOTAL FREE ENERGY PREDICTED BY IDOCK:   -4.38 KCAL/MOL
REMARK 923 INTER-LIGAND FREE ENERGY PREDICTED BY IDOCK:   -4.41 KCAL/MOL
REMARK 924 INTRA-LIGAND FREE ENERGY PREDICTED BY IDOCK:    0.03 KCAL/MOL
REMARK 927      BINDING AFFINITY PREDICTED BY RF-SCORE:    0.00 PKD
ROOT
HETATM    1  N   UNL     1     -11.446   6.636  67.281  1.00  0.00    -0.749 NA 
HETATM    2  H1  UNL     1     -12.120   6.743  68.040  1.00  0.00     0.000 HD 
HETATM    3  CA  UNL     1     -10.122   6.182  67.795  1.00  0.00    -0.150 C  
HETATM    4  H2  UNL     1     -11.798   6.015  66.552  1.00  0.00     0.000 HD 
ENDROOT
BRANCH   3   5
HETATM    5  C   UNL     1      -9.108   6.021  66.655  1.00  0.00    -0.137 C  
HETATM    6  H   UNL     1      -7.459   6.916  66.065  1.00  0.00     0.000 HD 
HETATM    7  O   UNL     1      -8.086   7.016  66.771  1.00  0.00    -0.106 OA 
ENDBRANCH   3   5
BRANCH   3   8
HETATM    8  C   UNL     1      -9.597   7.153  68.856  1.00  0.00    -0.142 C  
HETATM    9  O   UNL     1      -8.422   7.207  69.217  1.00  0.00    -0.131 OA 
HETATM   10  H   UNL     1     -11.559   7.852  69.097  1.00  0.00     0.000 HD 
HETATM   11  N   UNL     1     -10.596   7.932  69.426  1.00  0.00    -0.223 N  
BRANCH  11  12
HETATM   12  N   UNL     1     -10.273   8.835  70.458  1.00  0.00    -0.194 NA 
HETATM   13  H   UNL     1      -9.295   9.120  70.413  1.00  0.00     0.000 HD 
BRANCH  12  14
HETATM   14  C   UNL     1     -11.176  10.000  70.455  1.00  0.00    -0.323 C  
BRANCH  14  15
HETATM   15  C   UNL     1     -10.918  10.917  69.278  1.00  0.00    -0.295 A  
HETATM   16  C   UNL     1      -9.636  11.208  68.789  1.00  0.00    -0.172 A  
HETATM   17  O   UNL     1      -8.487  10.676  69.324  1.00  0.00    -0.239 OA 
HETATM   18  C   UNL     1      -9.468  12.066  67.705  1.00  0.00    -0.185 A  
HETATM   19  H   UNL     1      -7.619  10.873  68.993  1.00  0.00     0.000 HD 
HETATM   20  C   UNL     1     -10.563  12.667  67.105  1.00  0.00    -0.236 A  
HETATM   21  O   UNL     1      -8.215  12.316  67.210  1.00  0.00    -0.167 OA 
HETATM   22  H   UNL     1      -8.100  12.901  66.470  1.00  0.00     0.000 HD 
HETATM   23  C   UNL     1     -11.840  12.427  67.584  1.00  0.00    -0.363 A  
HETATM   24  O   UNL     1     -10.387  13.504  66.040  1.00  0.00    -0.289 OA 
HETATM   25  H   UNL     1     -11.138  13.917  65.629  1.00  0.00     0.000 HD 
HETATM   26  C   UNL     1     -12.017  11.557  68.668  1.00  0.00    -0.312 A  
ENDBRANCH  14  15
ENDBRANCH  12  14
ENDBRANCH  11  12
ENDBRANCH   3   8
TORSDOF 5
ENDMDL
MODEL      290
REMARK 921   NORMALIZED FREE ENERGY PREDICTED BY IDOCK:   -3.03 KCAL/MOL
REMARK 922        TOTAL FREE ENERGY PREDICTED BY IDOCK:   -4.37 KCAL/MOL
REMARK 923 INTER-LIGAND FREE ENERGY PREDICTED BY IDOCK:   -3.70 KCAL/MOL
REMARK 924 INTRA-LIGAND FREE ENERGY PREDICTED BY IDOCK:   -0.66 KCAL/MOL
REMARK 927      BINDING AFFINITY PREDICTED BY RF-SCORE:    0.00 PKD
ROOT
HETATM    1  N   UNL     1      -7.493   6.967  72.834  1.00  0.00    -0.080 NA 
HETATM    2  H1  UNL     1      -7.249   7.815  72.320  1.00  0.00     0.000 HD 
HETATM    3  CA  UNL     1      -8.012   5.911  71.919  1.00  0.00    -0.107 C  
HETATM    4  H2  UNL     1      -6.708   6.628  73.391  1.00  0.00     0.000 HD 
ENDROOT
BRANCH   3   5
HETATM    5  C   UNL     1      -8.378   4.637  72.691  1.00  0.00    -0.114 C  
HETATM    6  H   UNL     1      -7.736   2.780  72.780  1.00  0.00     0.000 HD 
HETATM    7  O   UNL     1      -7.510   3.568  72.303  1.00  0.00    -0.054 OA 
ENDBRANCH   3   5
BRANCH   3   8
HETATM    8  C   UNL     1      -9.214   6.430  71.126  1.00  0.00    -0.156 C  
HETATM    9  O   UNL     1     -10.333   5.919  71.158  1.00  0.00    -0.204 OA 
HETATM   10  H   UNL     1      -7.960   7.900  70.310  1.00  0.00     0.000 HD 
HETATM   11  N   UNL     1      -8.903   7.510  70.307  1.00  0.00    -0.145 N  
BRANCH  11  12
HETATM   12  N   UNL     1      -9.896   8.062  69.474  1.00  0.00    -0.178 NA 
HETATM   13  H   UNL     1     -10.371   8.843  69.926  1.00  0.00     0.000 HD 
BRANCH  12  14
HETATM   14  C   UNL     1      -9.344   8.449  68.164  1.00  0.00    -0.133 C  
BRANCH  14  15
HETATM   15  C   UNL     1      -9.238   7.270  67.220  1.00  0.00    -0.148 A  
HETATM   16  C   UNL     1     -10.330   6.469  66.856  1.00  0.00    -0.243 A  
HETATM   17  O   UNL     1     -11.609   6.686  67.312  1.00  0.00    -0.747 OA 
HETATM   18  C   UNL     1     -10.163   5.394  65.987  1.00  0.00    -0.069 A  
HETATM   19  H   UNL     1     -12.349   6.144  67.065  1.00  0.00     0.000 HD 
HETATM   20  C   UNL     1      -8.910   5.081  65.485  1.00  0.00    -0.146 A  
HETATM   21  O   UNL     1     -11.242   4.639  65.607  1.00  0.00    -0.854 OA 
HETATM   22  H   UNL     1     -11.128   3.905  65.014  1.00  0.00     0.000 HD 
HETATM   23  C   UNL     1      -7.805   5.831  65.850  1.00  0.00    -0.101 A  
HETATM   24  O   UNL     1      -8.758   4.026  64.631  1.00  0.00    -0.116 OA 
HETATM   25  H   UNL     1      -7.899   3.811  64.287  1.00  0.00     0.000 HD 
HETATM   26  C   UNL     1      -7.968   6.921  66.716  1.00  0.00    -0.108 A  
ENDBRANCH  14  15
ENDBRANCH  12  14
ENDBRANCH  11  12
ENDBRANCH   3   8
TORSDOF 5
ENDMDL
MODEL      291
REMARK 921   NORMALIZED FREE ENERGY PREDICTED BY IDOCK:   -3.02 KCAL/MOL
REMARK 922        TOTAL FREE ENERGY PREDICTED BY IDOCK:   -4.35 KCAL/MOL
REMARK 923 INTER-LIGAND FREE ENERGY PREDICTED BY IDOCK:   -3.82 KCAL/MOL
REMARK 924 INTRA-LIGAND FREE ENERGY PREDICTED BY IDOCK:   -0.53 KCAL/MOL
REMARK 927      BINDING AFFINITY PREDICTED BY RF-SCORE:    0.00 PKD
ROOT
HETATM    1  N   UNL     1      -5.845  10.665  64.233  1.00  0.00    -0.355 NA 
HETATM    2  H1  UNL     1      -5.902  11.477  63.618  1.00  0.00     0.000 HD 
HETATM    3  CA  UNL     1      -6.894   9.660  63.901  1.00  0.00    -0.113 C  
HETATM    4  H2  UNL     1      -4.912  10.251  64.221  1.00  0.00     0.000 HD 
ENDROOT
BRANCH   3   5
HETATM    5  C   UNL     1      -6.808   8.438  64.825  1.00  0.00    -0.072 C  
HETATM    6  H   UNL     1      -8.040   7.065  65.507  1.00  0.00     0.000 HD 
HETATM    7  O   UNL     1      -8.094   7.821  64.934  1.00  0.00    -0.136 OA 
ENDBRANCH   3   5
BRANCH   3   8
HETATM    8  C   UNL     1      -8.286  10.294  63.966  1.00  0.00    -0.165 C  
HETATM    9  O   UNL     1      -9.068  10.336  63.017  1.00  0.00    -0.215 OA 
HETATM   10  H   UNL     1      -7.882  10.821  65.955  1.00  0.00     0.000 HD 
HETATM   11  N   UNL     1      -8.561  10.879  65.197  1.00  0.00    -0.130 N  
BRANCH  11  12
HETATM   12  N   UNL     1      -9.785  11.550  65.390  1.00  0.00    -0.229 NA 
HETATM   13  H   UNL     1     -10.027  12.125  64.584  1.00  0.00     0.000 HD 
BRANCH  12  14
HETATM   14  C   UNL     1     -10.867  10.608  65.728  1.00  0.00     0.060 C  
BRANCH  14  15
HETATM   15  C   UNL     1     -10.942  10.336  67.215  1.00  0.00    -0.277 A  
HETATM   16  C   UNL     1     -10.566   9.119  67.800  1.00  0.00    -0.227 A  
HETATM   17  O   UNL     1     -10.080   8.054  67.078  1.00  0.00    -0.222 OA 
HETATM   18  C   UNL     1     -10.666   8.931  69.177  1.00  0.00    -0.143 A  
HETATM   19  H   UNL     1      -9.825   7.229  67.475  1.00  0.00     0.000 HD 
HETATM   20  C   UNL     1     -11.161   9.938  69.991  1.00  0.00    -0.276 A  
HETATM   21  O   UNL     1     -10.262   7.752  69.745  1.00  0.00    -0.201 OA 
HETATM   22  H   UNL     1     -10.329   7.624  70.684  1.00  0.00     0.000 HD 
HETATM   23  C   UNL     1     -11.571  11.141  69.442  1.00  0.00    -0.388 A  
HETATM   24  O   UNL     1     -11.251   9.745  71.340  1.00  0.00    -0.366 OA 
HETATM   25  H   UNL     1     -11.591  10.435  71.898  1.00  0.00     0.000 HD 
HETATM   26  C   UNL     1     -11.464  11.339  68.059  1.00  0.00    -0.369 A  
ENDBRANCH  14  15
ENDBRANCH  12  14
ENDBRANCH  11  12
ENDBRANCH   3   8
TORSDOF 5
ENDMDL
MODEL      292
REMARK 921   NORMALIZED FREE ENERGY PREDICTED BY IDOCK:   -3.01 KCAL/MOL
REMARK 922        TOTAL FREE ENERGY PREDICTED BY IDOCK:   -4.34 KCAL/MOL
REMARK 923 INTER-LIGAND FREE ENERGY PREDICTED BY IDOCK:   -4.14 KCAL/MOL
REMARK 924 INTRA-LIGAND FREE ENERGY PREDICTED BY IDOCK:   -0.21 KCAL/MOL
REMARK 927      BINDING AFFINITY PREDICTED BY RF-SCORE:    0.00 PKD
ROOT
HETATM    1  N   UNL     1      -5.285  11.109  69.654  1.00  0.00    -0.041 NA 
HETATM    2  H1  UNL     1      -5.163  10.816  70.624  1.00  0.00     0.000 HD 
HETATM    3  CA  UNL     1      -6.712  11.425  69.361  1.00  0.00    -0.122 C  
HETATM    4  H2  UNL     1      -4.672  11.889  69.419  1.00  0.00     0.000 HD 
ENDROOT
BRANCH   3   5
HETATM    5  C   UNL     1      -6.895  11.866  67.903  1.00  0.00    -0.083 C  
HETATM    6  H   UNL     1      -5.832  12.812  66.545  1.00  0.00     0.000 HD 
HETATM    7  O   UNL     1      -5.718  12.539  67.448  1.00  0.00    -0.133 OA 
ENDBRANCH   3   5
BRANCH   3   8
HETATM    8  C   UNL     1      -7.606  10.225  69.683  1.00  0.00    -0.164 C  
HETATM    9  O   UNL     1      -7.584   9.618  70.753  1.00  0.00    -0.271 OA 
HETATM   10  H   UNL     1      -8.396  10.375  67.746  1.00  0.00     0.000 HD 
HETATM   11  N   UNL     1      -8.412   9.844  68.617  1.00  0.00    -0.111 N  
BRANCH  11  12
HETATM   12  N   UNL     1      -9.251   8.719  68.745  1.00  0.00    -0.141 NA 
HETATM   13  H   UNL     1      -9.485   8.536  69.721  1.00  0.00     0.000 HD 
BRANCH  12  14
HETATM   14  C   UNL     1     -10.462   8.855  67.916  1.00  0.00    -0.223 C  
BRANCH  14  15
HETATM   15  C   UNL     1     -10.340   9.982  66.912  1.00  0.00    -0.297 A  
HETATM   16  C   UNL     1      -9.551   9.908  65.756  1.00  0.00    -0.250 A  
HETATM   17  O   UNL     1      -8.820   8.796  65.412  1.00  0.00    -0.186 OA 
HETATM   18  C   UNL     1      -9.478  10.986  64.876  1.00  0.00    -0.233 A  
HETATM   19  H   UNL     1      -8.286   8.745  64.628  1.00  0.00     0.000 HD 
HETATM   20  C   UNL     1     -10.164  12.160  65.141  1.00  0.00    -0.278 A  
HETATM   21  O   UNL     1      -8.734  10.892  63.729  1.00  0.00    -0.322 OA 
HETATM   22  H   UNL     1      -8.684  11.627  63.129  1.00  0.00     0.000 HD 
HETATM   23  C   UNL     1     -10.927  12.278  66.291  1.00  0.00    -0.327 A  
HETATM   24  O   UNL     1     -10.088  13.209  64.270  1.00  0.00    -0.604 OA 
HETATM   25  H   UNL     1     -10.559  14.015  64.452  1.00  0.00     0.000 HD 
HETATM   26  C   UNL     1     -11.012  11.194  67.175  1.00  0.00    -0.350 A  
ENDBRANCH  14  15
ENDBRANCH  12  14
ENDBRANCH  11  12
ENDBRANCH   3   8
TORSDOF 5
ENDMDL
MODEL      293
REMARK 921   NORMALIZED FREE ENERGY PREDICTED BY IDOCK:   -3.00 KCAL/MOL
REMARK 922        TOTAL FREE ENERGY PREDICTED BY IDOCK:   -4.32 KCAL/MOL
REMARK 923 INTER-LIGAND FREE ENERGY PREDICTED BY IDOCK:   -3.81 KCAL/MOL
REMARK 924 INTRA-LIGAND FREE ENERGY PREDICTED BY IDOCK:   -0.51 KCAL/MOL
REMARK 927      BINDING AFFINITY PREDICTED BY RF-SCORE:    0.00 PKD
ROOT
HETATM    1  N   UNL     1      -7.536   3.995  64.140  1.00  0.00    -0.077 NA 
HETATM    2  H1  UNL     1      -7.067   4.899  64.202  1.00  0.00     0.000 HD 
HETATM    3  CA  UNL     1      -9.017   4.147  64.223  1.00  0.00    -0.144 C  
HETATM    4  H2  UNL     1      -7.258   3.485  63.302  1.00  0.00     0.000 HD 
ENDROOT
BRANCH   3   5
HETATM    5  C   UNL     1      -9.722   2.788  64.130  1.00  0.00    -0.151 C  
HETATM    6  H   UNL     1     -11.331   2.063  63.262  1.00  0.00     0.000 HD 
HETATM    7  O   UNL     1     -10.895   2.905  63.319  1.00  0.00    -0.229 OA 
ENDBRANCH   3   5
BRANCH   3   8
HETATM    8  C   UNL     1      -9.411   4.878  65.509  1.00  0.00    -0.145 C  
HETATM    9  O   UNL     1     -10.412   4.609  66.173  1.00  0.00    -0.289 OA 
HETATM   10  H   UNL     1      -7.739   6.114  65.245  1.00  0.00     0.000 HD 
HETATM   11  N   UNL     1      -8.556   5.926  65.826  1.00  0.00    -0.150 N  
BRANCH  11  12
HETATM   12  N   UNL     1      -8.822   6.726  66.955  1.00  0.00    -0.116 NA 
HETATM   13  H   UNL     1      -8.162   6.542  67.709  1.00  0.00     0.000 HD 
BRANCH  12  14
HETATM   14  C   UNL     1      -8.854   8.158  66.602  1.00  0.00    -0.143 C  
BRANCH  14  15
HETATM   15  C   UNL     1      -9.536   8.990  67.667  1.00  0.00    -0.183 A  
HETATM   16  C   UNL     1      -9.212   8.923  69.029  1.00  0.00    -0.140 A  
HETATM   17  O   UNL     1      -8.230   8.101  69.530  1.00  0.00    -0.117 OA 
HETATM   18  C   UNL     1      -9.884   9.713  69.959  1.00  0.00    -0.246 A  
HETATM   19  H   UNL     1      -8.010   8.056  70.453  1.00  0.00     0.000 HD 
HETATM   20  C   UNL     1     -10.903  10.561  69.558  1.00  0.00    -0.256 A  
HETATM   21  O   UNL     1      -9.535   9.668  71.284  1.00  0.00    -0.310 OA 
HETATM   22  H   UNL     1      -9.994  10.207  71.918  1.00  0.00     0.000 HD 
HETATM   23  C   UNL     1     -11.271  10.628  68.224  1.00  0.00    -0.362 A  
HETATM   24  O   UNL     1     -11.553  11.334  70.477  1.00  0.00    -0.440 OA 
HETATM   25  H   UNL     1     -12.252  11.916  70.202  1.00  0.00     0.000 HD 
HETATM   26  C   UNL     1     -10.592   9.843  67.283  1.00  0.00    -0.316 A  
ENDBRANCH  14  15
ENDBRANCH  12  14
ENDBRANCH  11  12
ENDBRANCH   3   8
TORSDOF 5
ENDMDL
MODEL      294
REMARK 921   NORMALIZED FREE ENERGY PREDICTED BY IDOCK:   -3.00 KCAL/MOL
REMARK 922        TOTAL FREE ENERGY PREDICTED BY IDOCK:   -4.32 KCAL/MOL
REMARK 923 INTER-LIGAND FREE ENERGY PREDICTED BY IDOCK:   -3.82 KCAL/MOL
REMARK 924 INTRA-LIGAND FREE ENERGY PREDICTED BY IDOCK:   -0.50 KCAL/MOL
REMARK 927      BINDING AFFINITY PREDICTED BY RF-SCORE:    0.00 PKD
ROOT
HETATM    1  N   UNL     1     -10.361  10.139  65.415  1.00  0.00    -0.201 NA 
HETATM    2  H1  UNL     1      -9.822   9.331  65.726  1.00  0.00     0.000 HD 
HETATM    3  CA  UNL     1     -10.406  11.196  66.465  1.00  0.00    -0.243 C  
HETATM    4  H2  UNL     1     -10.011  10.504  64.529  1.00  0.00     0.000 HD 
ENDROOT
BRANCH   3   5
HETATM    5  C   UNL     1     -11.217  12.411  65.996  1.00  0.00    -0.335 C  
HETATM    6  H   UNL     1     -12.429  12.839  64.507  1.00  0.00     0.000 HD 
HETATM    7  O   UNL     1     -11.927  12.087  64.797  1.00  0.00    -0.321 OA 
ENDBRANCH   3   5
BRANCH   3   8
HETATM    8  C   UNL     1     -10.975  10.634  67.770  1.00  0.00    -0.306 C  
HETATM    9  O   UNL     1     -12.080  10.930  68.223  1.00  0.00    -0.562 OA 
HETATM   10  H   UNL     1      -9.180   9.579  68.023  1.00  0.00     0.000 HD 
HETATM   11  N   UNL     1     -10.088   9.795  68.435  1.00  0.00    -0.160 N  
BRANCH  11  12
HETATM   12  N   UNL     1     -10.450   9.244  69.680  1.00  0.00    -0.216 NA 
HETATM   13  H   UNL     1     -11.124   8.487  69.572  1.00  0.00     0.000 HD 
BRANCH  12  14
HETATM   14  C   UNL     1      -9.264   8.808  70.440  1.00  0.00    -0.180 C  
BRANCH  14  15
HETATM   15  C   UNL     1      -9.536   7.560  71.252  1.00  0.00    -0.165 A  
HETATM   16  C   UNL     1      -9.929   6.338  70.686  1.00  0.00    -0.186 A  
HETATM   17  O   UNL     1     -10.092   6.152  69.334  1.00  0.00    -0.166 OA 
HETATM   18  C   UNL     1     -10.170   5.228  71.492  1.00  0.00    -0.212 A  
HETATM   19  H   UNL     1     -10.357   5.324  68.951  1.00  0.00     0.000 HD 
HETATM   20  C   UNL     1     -10.051   5.317  72.869  1.00  0.00    -0.173 A  
HETATM   21  O   UNL     1     -10.517   4.028  70.928  1.00  0.00     0.185 OA 
HETATM   22  H   UNL     1     -10.681   3.270  71.478  1.00  0.00     0.000 HD 
HETATM   23  C   UNL     1      -9.697   6.517  73.463  1.00  0.00    -0.197 A  
HETATM   24  O   UNL     1     -10.286   4.221  73.650  1.00  0.00    -0.149 OA 
HETATM   25  H   UNL     1     -10.204   4.282  74.594  1.00  0.00     0.000 HD 
HETATM   26  C   UNL     1      -9.443   7.635  72.657  1.00  0.00    -0.230 A  
ENDBRANCH  14  15
ENDBRANCH  12  14
ENDBRANCH  11  12
ENDBRANCH   3   8
TORSDOF 5
ENDMDL
MODEL      295
REMARK 921   NORMALIZED FREE ENERGY PREDICTED BY IDOCK:   -3.00 KCAL/MOL
REMARK 922        TOTAL FREE ENERGY PREDICTED BY IDOCK:   -4.32 KCAL/MOL
REMARK 923 INTER-LIGAND FREE ENERGY PREDICTED BY IDOCK:   -4.09 KCAL/MOL
REMARK 924 INTRA-LIGAND FREE ENERGY PREDICTED BY IDOCK:   -0.23 KCAL/MOL
REMARK 927      BINDING AFFINITY PREDICTED BY RF-SCORE:    0.00 PKD
ROOT
HETATM    1  N   UNL     1     -13.210   9.638  70.138  1.00  0.00    -0.040 NA 
HETATM    2  H1  UNL     1     -13.101   9.345  69.166  1.00  0.00     0.000 HD 
HETATM    3  CA  UNL     1     -12.799  11.060  70.321  1.00  0.00    -0.110 C  
HETATM    4  H2  UNL     1     -14.159   9.476  70.474  1.00  0.00     0.000 HD 
ENDROOT
BRANCH   3   5
HETATM    5  C   UNL     1     -12.963  11.502  71.781  1.00  0.00    -0.394 C  
HETATM    6  H   UNL     1     -13.286  13.187  72.742  1.00  0.00     0.000 HD 
HETATM    7  O   UNL     1     -13.185  12.914  71.839  1.00  0.00    -0.437 OA 
ENDBRANCH   3   5
BRANCH   3   8
HETATM    8  C   UNL     1     -11.358  11.269  69.848  1.00  0.00    -0.249 C  
HETATM    9  O   UNL     1     -10.488  10.400  69.888  1.00  0.00    -0.255 OA 
HETATM   10  H   UNL     1     -11.858  13.258  69.411  1.00  0.00     0.000 HD 
HETATM   11  N   UNL     1     -11.107  12.568  69.423  1.00  0.00    -0.141 N  
BRANCH  11  12
HETATM   12  N   UNL     1      -9.808  12.927  69.010  1.00  0.00    -0.387 NA 
HETATM   13  H   UNL     1      -9.146  12.166  69.156  1.00  0.00     0.000 HD 
BRANCH  12  14
HETATM   14  C   UNL     1      -9.799  13.391  67.611  1.00  0.00    -0.226 C  
BRANCH  14  15
HETATM   15  C   UNL     1      -9.052  14.698  67.450  1.00  0.00    -0.203 A  
HETATM   16  C   UNL     1      -9.376  15.662  66.485  1.00  0.00    -0.276 A  
HETATM   17  O   UNL     1     -10.416  15.519  65.596  1.00  0.00    -0.322 OA 
HETATM   18  C   UNL     1      -8.644  16.842  66.385  1.00  0.00    -0.293 A  
HETATM   19  H   UNL     1     -10.636  16.172  64.943  1.00  0.00     0.000 HD 
HETATM   20  C   UNL     1      -7.564  17.074  67.223  1.00  0.00    -0.165 A  
HETATM   21  O   UNL     1      -8.990  17.795  65.464  1.00  0.00    -0.135 OA 
HETATM   22  H   UNL     1      -8.490  18.601  65.397  1.00  0.00     0.000 HD 
HETATM   23  C   UNL     1      -7.197  16.128  68.166  1.00  0.00    -0.140 A  
HETATM   24  O   UNL     1      -6.855  18.236  67.120  1.00  0.00    -0.189 OA 
HETATM   25  H   UNL     1      -6.115  18.396  67.695  1.00  0.00     0.000 HD 
HETATM   26  C   UNL     1      -7.937  14.944  68.277  1.00  0.00    -0.130 A  
ENDBRANCH  14  15
ENDBRANCH  12  14
ENDBRANCH  11  12
ENDBRANCH   3   8
TORSDOF 5
ENDMDL
MODEL      296
REMARK 921   NORMALIZED FREE ENERGY PREDICTED BY IDOCK:   -3.00 KCAL/MOL
REMARK 922        TOTAL FREE ENERGY PREDICTED BY IDOCK:   -4.32 KCAL/MOL
REMARK 923 INTER-LIGAND FREE ENERGY PREDICTED BY IDOCK:   -3.82 KCAL/MOL
REMARK 924 INTRA-LIGAND FREE ENERGY PREDICTED BY IDOCK:   -0.49 KCAL/MOL
REMARK 927      BINDING AFFINITY PREDICTED BY RF-SCORE:    0.00 PKD
ROOT
HETATM    1  N   UNL     1     -11.370   7.120  73.119  1.00  0.00    -0.564 NA 
HETATM    2  H1  UNL     1     -11.306   7.710  73.949  1.00  0.00     0.000 HD 
HETATM    3  CA  UNL     1     -10.124   6.326  72.924  1.00  0.00    -0.183 C  
HETATM    4  H2  UNL     1     -12.196   6.521  73.148  1.00  0.00     0.000 HD 
ENDROOT
BRANCH   3   5
HETATM    5  C   UNL     1     -10.220   5.438  71.676  1.00  0.00    -0.209 C  
HETATM    6  H   UNL     1      -9.027   4.236  70.675  1.00  0.00     0.000 HD 
HETATM    7  O   UNL     1      -8.968   4.785  71.447  1.00  0.00    -0.128 OA 
ENDBRANCH   3   5
BRANCH   3   8
HETATM    8  C   UNL     1      -8.905   7.249  72.841  1.00  0.00    -0.132 C  
HETATM    9  O   UNL     1      -7.935   7.175  73.594  1.00  0.00    -0.105 OA 
HETATM   10  H   UNL     1      -9.853   8.254  71.264  1.00  0.00     0.000 HD 
HETATM   11  N   UNL     1      -9.028   8.229  71.864  1.00  0.00    -0.167 N  
BRANCH  11  12
HETATM   12  N   UNL     1      -8.008   9.188  71.706  1.00  0.00    -0.309 NA 
HETATM   13  H   UNL     1      -7.175   8.939  72.240  1.00  0.00     0.000 HD 
BRANCH  12  14
HETATM   14  C   UNL     1      -7.693   9.407  70.283  1.00  0.00    -0.144 C  
BRANCH  14  15
HETATM   15  C   UNL     1      -8.600   8.610  69.370  1.00  0.00    -0.127 A  
HETATM   16  C   UNL     1      -8.412   7.250  69.087  1.00  0.00    -0.133 A  
HETATM   17  O   UNL     1      -7.390   6.502  69.624  1.00  0.00    -0.079 OA 
HETATM   18  C   UNL     1      -9.280   6.576  68.232  1.00  0.00    -0.116 A  
HETATM   19  H   UNL     1      -7.263   5.580  69.432  1.00  0.00     0.000 HD 
HETATM   20  C   UNL     1     -10.332   7.244  67.625  1.00  0.00    -0.227 A  
HETATM   21  O   UNL     1      -9.112   5.238  67.989  1.00  0.00    -0.109 OA 
HETATM   22  H   UNL     1      -9.705   4.778  67.406  1.00  0.00     0.000 HD 
HETATM   23  C   UNL     1     -10.527   8.596  67.857  1.00  0.00    -0.269 A  
HETATM   24  O   UNL     1     -11.180   6.573  66.791  1.00  0.00    -0.661 OA 
HETATM   25  H   UNL     1     -11.901   7.032  66.375  1.00  0.00     0.000 HD 
HETATM   26  C   UNL     1      -9.662   9.277  68.725  1.00  0.00    -0.162 A  
ENDBRANCH  14  15
ENDBRANCH  12  14
ENDBRANCH  11  12
ENDBRANCH   3   8
TORSDOF 5
ENDMDL
MODEL      297
REMARK 921   NORMALIZED FREE ENERGY PREDICTED BY IDOCK:   -2.99 KCAL/MOL
REMARK 922        TOTAL FREE ENERGY PREDICTED BY IDOCK:   -4.32 KCAL/MOL
REMARK 923 INTER-LIGAND FREE ENERGY PREDICTED BY IDOCK:   -4.26 KCAL/MOL
REMARK 924 INTRA-LIGAND FREE ENERGY PREDICTED BY IDOCK:   -0.06 KCAL/MOL
REMARK 927      BINDING AFFINITY PREDICTED BY RF-SCORE:    0.00 PKD
ROOT
HETATM    1  N   UNL     1      -9.652   5.842  69.089  1.00  0.00    -0.130 NA 
HETATM    2  H1  UNL     1     -10.328   6.588  68.918  1.00  0.00     0.000 HD 
HETATM    3  CA  UNL     1     -10.191   4.832  70.043  1.00  0.00    -0.181 C  
HETATM    4  H2  UNL     1      -9.345   5.408  68.217  1.00  0.00     0.000 HD 
ENDROOT
BRANCH   3   5
HETATM    5  C   UNL     1      -9.176   3.711  70.299  1.00  0.00    -0.152 C  
HETATM    6  H   UNL     1      -9.211   1.749  70.447  1.00  0.00     0.000 HD 
HETATM    7  O   UNL     1      -9.840   2.443  70.289  1.00  0.00    -0.002 OA 
ENDBRANCH   3   5
BRANCH   3   8
HETATM    8  C   UNL     1     -10.605   5.500  71.357  1.00  0.00    -0.243 C  
HETATM    9  O   UNL     1     -10.187   5.160  72.463  1.00  0.00    -0.181 OA 
HETATM   10  H   UNL     1     -11.877   6.746  70.248  1.00  0.00     0.000 HD 
HETATM   11  N   UNL     1     -11.556   6.499  71.185  1.00  0.00    -0.322 N  
BRANCH  11  12
HETATM   12  N   UNL     1     -12.076   7.168  72.311  1.00  0.00    -0.468 NA 
HETATM   13  H   UNL     1     -11.738   6.755  73.180  1.00  0.00     0.000 HD 
BRANCH  12  14
HETATM   14  C   UNL     1     -11.792   8.614  72.254  1.00  0.00    -0.366 C  
BRANCH  14  15
HETATM   15  C   UNL     1     -10.529   8.916  71.477  1.00  0.00    -0.393 A  
HETATM   16  C   UNL     1     -10.522   9.527  70.215  1.00  0.00    -0.268 A  
HETATM   17  O   UNL     1     -11.667   9.926  69.565  1.00  0.00    -0.452 OA 
HETATM   18  C   UNL     1      -9.323   9.771  69.550  1.00  0.00    -0.213 A  
HETATM   19  H   UNL     1     -11.662  10.340  68.710  1.00  0.00     0.000 HD 
HETATM   20  C   UNL     1      -8.115   9.391  70.113  1.00  0.00    -0.157 A  
HETATM   21  O   UNL     1      -9.323  10.402  68.334  1.00  0.00    -0.141 OA 
HETATM   22  H   UNL     1      -8.505  10.569  67.881  1.00  0.00     0.000 HD 
HETATM   23  C   UNL     1      -8.088   8.755  71.344  1.00  0.00    -0.189 A  
HETATM   24  O   UNL     1      -6.945   9.638  69.454  1.00  0.00    -0.051 OA 
HETATM   25  H   UNL     1      -6.116   9.377  69.841  1.00  0.00     0.000 HD 
HETATM   26  C   UNL     1      -9.291   8.516  72.022  1.00  0.00    -0.353 A  
ENDBRANCH  14  15
ENDBRANCH  12  14
ENDBRANCH  11  12
ENDBRANCH   3   8
TORSDOF 5
ENDMDL
MODEL      298
REMARK 921   NORMALIZED FREE ENERGY PREDICTED BY IDOCK:   -2.98 KCAL/MOL
REMARK 922        TOTAL FREE ENERGY PREDICTED BY IDOCK:   -4.30 KCAL/MOL
REMARK 923 INTER-LIGAND FREE ENERGY PREDICTED BY IDOCK:   -3.82 KCAL/MOL
REMARK 924 INTRA-LIGAND FREE ENERGY PREDICTED BY IDOCK:   -0.48 KCAL/MOL
REMARK 927      BINDING AFFINITY PREDICTED BY RF-SCORE:    0.00 PKD
ROOT
HETATM    1  N   UNL     1      -7.370   3.244  66.196  1.00  0.00    -0.071 NA 
HETATM    2  H1  UNL     1      -7.749   2.840  65.338  1.00  0.00     0.000 HD 
HETATM    3  CA  UNL     1      -8.452   3.811  67.050  1.00  0.00    -0.104 C  
HETATM    4  H2  UNL     1      -6.803   2.568  66.708  1.00  0.00     0.000 HD 
ENDROOT
BRANCH   3   5
HETATM    5  C   UNL     1      -7.883   4.417  68.339  1.00  0.00    -0.079 C  
HETATM    6  H   UNL     1      -8.495   4.689  70.188  1.00  0.00     0.000 HD 
HETATM    7  O   UNL     1      -8.848   4.313  69.391  1.00  0.00    -0.083 OA 
ENDBRANCH   3   5
BRANCH   3   8
HETATM    8  C   UNL     1      -9.262   4.852  66.271  1.00  0.00    -0.142 C  
HETATM    9  O   UNL     1      -9.959   4.589  65.292  1.00  0.00    -0.187 OA 
HETATM   10  H   UNL     1      -8.492   6.319  67.557  1.00  0.00     0.000 HD 
HETATM   11  N   UNL     1      -9.082   6.147  66.743  1.00  0.00    -0.129 N  
BRANCH  11  12
HETATM   12  N   UNL     1      -9.721   7.220  66.091  1.00  0.00    -0.425 NA 
HETATM   13  H   UNL     1     -10.305   6.896  65.321  1.00  0.00     0.000 HD 
BRANCH  12  14
HETATM   14  C   UNL     1     -10.490   8.044  67.042  1.00  0.00    -0.340 C  
BRANCH  14  15
HETATM   15  C   UNL     1     -10.081   9.501  66.992  1.00  0.00    -0.297 A  
HETATM   16  C   UNL     1     -10.031  10.252  65.808  1.00  0.00    -0.271 A  
HETATM   17  O   UNL     1     -10.363   9.739  64.576  1.00  0.00    -0.242 OA 
HETATM   18  C   UNL     1      -9.639  11.588  65.831  1.00  0.00    -0.230 A  
HETATM   19  H   UNL     1     -10.330  10.248  63.775  1.00  0.00     0.000 HD 
HETATM   20  C   UNL     1      -9.266  12.193  67.021  1.00  0.00    -0.202 A  
HETATM   21  O   UNL     1      -9.628  12.325  64.676  1.00  0.00    -0.461 OA 
HETATM   22  H   UNL     1      -9.361  13.236  64.691  1.00  0.00     0.000 HD 
HETATM   23  C   UNL     1      -9.273  11.471  68.203  1.00  0.00    -0.181 A  
HETATM   24  O   UNL     1      -8.887  13.505  67.032  1.00  0.00    -0.219 OA 
HETATM   25  H   UNL     1      -8.632  13.920  67.848  1.00  0.00     0.000 HD 
HETATM   26  C   UNL     1      -9.676  10.129  68.188  1.00  0.00    -0.155 A  
ENDBRANCH  14  15
ENDBRANCH  12  14
ENDBRANCH  11  12
ENDBRANCH   3   8
TORSDOF 5
ENDMDL
MODEL      299
REMARK 921   NORMALIZED FREE ENERGY PREDICTED BY IDOCK:   -2.97 KCAL/MOL
REMARK 922        TOTAL FREE ENERGY PREDICTED BY IDOCK:   -4.29 KCAL/MOL
REMARK 923 INTER-LIGAND FREE ENERGY PREDICTED BY IDOCK:   -3.88 KCAL/MOL
REMARK 924 INTRA-LIGAND FREE ENERGY PREDICTED BY IDOCK:   -0.41 KCAL/MOL
REMARK 927      BINDING AFFINITY PREDICTED BY RF-SCORE:    0.00 PKD
ROOT
HETATM    1  N   UNL     1     -12.221  11.056  71.030  1.00  0.00    -0.361 NA 
HETATM    2  H1  UNL     1     -11.973  11.894  70.503  1.00  0.00     0.000 HD 
HETATM    3  CA  UNL     1     -11.210   9.978  70.837  1.00  0.00    -0.341 C  
HETATM    4  H2  UNL     1     -12.362  11.264  72.019  1.00  0.00     0.000 HD 
ENDROOT
BRANCH   3   5
HETATM    5  C   UNL     1     -11.581   8.718  71.630  1.00  0.00    -0.320 C  
HETATM    6  H   UNL     1     -10.707   7.536  72.937  1.00  0.00     0.000 HD 
HETATM    7  O   UNL     1     -10.477   8.316  72.447  1.00  0.00    -0.289 OA 
ENDBRANCH   3   5
BRANCH   3   8
HETATM    8  C   UNL     1     -11.046   9.654  69.349  1.00  0.00    -0.139 C  
HETATM    9  O   UNL     1     -11.139  10.489  68.450  1.00  0.00    -0.247 OA 
HETATM   10  H   UNL     1     -10.774   7.644  69.881  1.00  0.00     0.000 HD 
HETATM   11  N   UNL     1     -10.841   8.302  69.104  1.00  0.00    -0.092 N  
BRANCH  11  12
HETATM   12  N   UNL     1     -10.728   7.844  67.777  1.00  0.00    -0.465 NA 
HETATM   13  H   UNL     1     -10.968   8.574  67.107  1.00  0.00     0.000 HD 
BRANCH  12  14
HETATM   14  C   UNL     1      -9.387   7.289  67.513  1.00  0.00    -0.129 C  
BRANCH  14  15
HETATM   15  C   UNL     1      -9.398   5.776  67.461  1.00  0.00    -0.111 A  
HETATM   16  C   UNL     1      -9.361   4.961  68.602  1.00  0.00    -0.135 A  
HETATM   17  O   UNL     1      -9.324   5.459  69.883  1.00  0.00    -0.132 OA 
HETATM   18  C   UNL     1      -9.367   3.573  68.484  1.00  0.00    -0.166 A  
HETATM   19  H   UNL     1      -9.298   4.907  70.655  1.00  0.00     0.000 HD 
HETATM   20  C   UNL     1      -9.385   2.972  67.235  1.00  0.00    -0.160 A  
HETATM   21  O   UNL     1      -9.367   2.784  69.604  1.00  0.00    -0.140 OA 
HETATM   22  H   UNL     1      -9.371   1.838  69.523  1.00  0.00     0.000 HD 
HETATM   23  C   UNL     1      -9.390   3.747  66.087  1.00  0.00    -0.183 A  
HETATM   24  O   UNL     1      -9.394   1.611  67.130  1.00  0.00    -0.309 OA 
HETATM   25  H   UNL     1      -9.407   1.198  66.274  1.00  0.00     0.000 HD 
HETATM   26  C   UNL     1      -9.394   5.144  66.200  1.00  0.00    -0.160 A  
ENDBRANCH  14  15
ENDBRANCH  12  14
ENDBRANCH  11  12
ENDBRANCH   3   8
TORSDOF 5
ENDMDL
MODEL      300
REMARK 921   NORMALIZED FREE ENERGY PREDICTED BY IDOCK:   -2.95 KCAL/MOL
REMARK 922        TOTAL FREE ENERGY PREDICTED BY IDOCK:   -4.26 KCAL/MOL
REMARK 923 INTER-LIGAND FREE ENERGY PREDICTED BY IDOCK:   -3.96 KCAL/MOL
REMARK 924 INTRA-LIGAND FREE ENERGY PREDICTED BY IDOCK:   -0.30 KCAL/MOL
REMARK 927      BINDING AFFINITY PREDICTED BY RF-SCORE:    0.00 PKD
ROOT
HETATM    1  N   UNL     1      -7.898   2.895  66.330  1.00  0.00    -0.080 NA 
HETATM    2  H1  UNL     1      -7.891   2.771  65.317  1.00  0.00     0.000 HD 
HETATM    3  CA  UNL     1      -9.279   3.139  66.834  1.00  0.00    -0.163 C  
HETATM    4  H2  UNL     1      -7.459   2.106  66.806  1.00  0.00     0.000 HD 
ENDROOT
BRANCH   3   5
HETATM    5  C   UNL     1      -9.290   3.325  68.357  1.00  0.00    -0.180 C  
HETATM    6  H   UNL     1      -7.956   3.442  69.798  1.00  0.00     0.000 HD 
HETATM    7  O   UNL     1      -7.949   3.327  68.855  1.00  0.00    -0.057 OA 
ENDBRANCH   3   5
BRANCH   3   8
HETATM    8  C   UNL     1      -9.900   4.351  66.135  1.00  0.00    -0.231 C  
HETATM    9  O   UNL     1     -10.578   4.281  65.110  1.00  0.00    -0.253 OA 
HETATM   10  H   UNL     1      -9.001   5.569  67.586  1.00  0.00     0.000 HD 
HETATM   11  N   UNL     1      -9.570   5.559  66.739  1.00  0.00    -0.138 N  
BRANCH  11  12
HETATM   12  N   UNL     1     -10.024   6.767  66.174  1.00  0.00    -0.411 NA 
HETATM   13  H   UNL     1     -10.621   6.601  65.365  1.00  0.00     0.000 HD 
BRANCH  12  14
HETATM   14  C   UNL     1     -10.697   7.610  67.179  1.00  0.00    -0.290 C  
BRANCH  14  15
HETATM   15  C   UNL     1      -9.876   8.829  67.541  1.00  0.00    -0.232 A  
HETATM   16  C   UNL     1     -10.435  10.034  67.990  1.00  0.00    -0.218 A  
HETATM   17  O   UNL     1     -11.787  10.221  68.159  1.00  0.00    -0.737 OA 
HETATM   18  C   UNL     1      -9.623  11.122  68.300  1.00  0.00    -0.185 A  
HETATM   19  H   UNL     1     -12.166  11.037  68.463  1.00  0.00     0.000 HD 
HETATM   20  C   UNL     1      -8.248  11.041  68.147  1.00  0.00    -0.124 A  
HETATM   21  O   UNL     1     -10.174  12.284  68.773  1.00  0.00    -0.344 OA 
HETATM   22  H   UNL     1      -9.619  13.026  68.985  1.00  0.00     0.000 HD 
HETATM   23  C   UNL     1      -7.665   9.876  67.675  1.00  0.00    -0.091 A  
HETATM   24  O   UNL     1      -7.460  12.112  68.457  1.00  0.00    -0.108 OA 
HETATM   25  H   UNL     1      -6.517  12.057  68.352  1.00  0.00     0.000 HD 
HETATM   26  C   UNL     1      -8.477   8.775  67.371  1.00  0.00    -0.116 A  
ENDBRANCH  14  15
ENDBRANCH  12  14
ENDBRANCH  11  12
ENDBRANCH   3   8
TORSDOF 5
ENDMDL
MODEL      301
REMARK 921   NORMALIZED FREE ENERGY PREDICTED BY IDOCK:   -2.90 KCAL/MOL
REMARK 922        TOTAL FREE ENERGY PREDICTED BY IDOCK:   -4.19 KCAL/MOL
REMARK 923 INTER-LIGAND FREE ENERGY PREDICTED BY IDOCK:   -4.01 KCAL/MOL
REMARK 924 INTRA-LIGAND FREE ENERGY PREDICTED BY IDOCK:   -0.18 KCAL/MOL
REMARK 927      BINDING AFFINITY PREDICTED BY RF-SCORE:    0.00 PKD
ROOT
HETATM    1  N   UNL     1      -8.791   7.172  65.212  1.00  0.00    -0.370 NA 
HETATM    2  H1  UNL     1      -9.039   6.989  66.184  1.00  0.00     0.000 HD 
HETATM    3  CA  UNL     1      -8.133   8.502  65.063  1.00  0.00    -0.148 C  
HETATM    4  H2  UNL     1      -8.215   6.424  64.824  1.00  0.00     0.000 HD 
ENDROOT
BRANCH   3   5
HETATM    5  C   UNL     1      -7.760   8.778  63.601  1.00  0.00    -0.133 C  
HETATM    6  H   UNL     1      -7.884  10.291  62.350  1.00  0.00     0.000 HD 
HETATM    7  O   UNL     1      -8.114  10.120  63.255  1.00  0.00    -0.150 OA 
ENDBRANCH   3   5
BRANCH   3   8
HETATM    8  C   UNL     1      -9.034   9.611  65.613  1.00  0.00    -0.169 C  
HETATM    9  O   UNL     1     -10.242   9.688  65.394  1.00  0.00    -0.192 OA 
HETATM   10  H   UNL     1      -7.334  10.467  66.494  1.00  0.00     0.000 HD 
HETATM   11  N   UNL     1      -8.337  10.570  66.339  1.00  0.00    -0.139 N  
BRANCH  11  12
HETATM   12  N   UNL     1      -9.024  11.683  66.862  1.00  0.00    -0.184 NA 
HETATM   13  H   UNL     1      -9.552  11.437  67.699  1.00  0.00     0.000 HD 
BRANCH  12  14
HETATM   14  C   UNL     1      -8.108  12.810  67.113  1.00  0.00    -0.129 C  
BRANCH  14  15
HETATM   15  C   UNL     1      -8.851  14.075  67.486  1.00  0.00    -0.199 A  
HETATM   16  C   UNL     1      -9.539  14.872  66.560  1.00  0.00    -0.276 A  
HETATM   17  O   UNL     1      -9.616  14.573  65.220  1.00  0.00    -0.512 OA 
HETATM   18  C   UNL     1     -10.198  16.029  66.968  1.00  0.00    -0.282 A  
HETATM   19  H   UNL     1     -10.082  15.112  64.592  1.00  0.00     0.000 HD 
HETATM   20  C   UNL     1     -10.164  16.427  68.295  1.00  0.00    -0.255 A  
HETATM   21  O   UNL     1     -10.898  16.782  66.063  1.00  0.00    -0.182 OA 
HETATM   22  H   UNL     1     -11.348  17.571  66.342  1.00  0.00     0.000 HD 
HETATM   23  C   UNL     1      -9.467  15.681  69.231  1.00  0.00    -0.264 A  
HETATM   24  O   UNL     1     -10.817  17.561  68.686  1.00  0.00    -0.271 OA 
HETATM   25  H   UNL     1     -10.795  17.835  69.596  1.00  0.00     0.000 HD 
HETATM   26  C   UNL     1      -8.811  14.511  68.827  1.00  0.00    -0.153 A  
ENDBRANCH  14  15
ENDBRANCH  12  14
ENDBRANCH  11  12
ENDBRANCH   3   8
TORSDOF 5
ENDMDL
MODEL      302
REMARK 921   NORMALIZED FREE ENERGY PREDICTED BY IDOCK:   -2.87 KCAL/MOL
REMARK 922        TOTAL FREE ENERGY PREDICTED BY IDOCK:   -4.16 KCAL/MOL
REMARK 923 INTER-LIGAND FREE ENERGY PREDICTED BY IDOCK:   -3.83 KCAL/MOL
REMARK 924 INTRA-LIGAND FREE ENERGY PREDICTED BY IDOCK:   -0.34 KCAL/MOL
REMARK 927      BINDING AFFINITY PREDICTED BY RF-SCORE:    0.00 PKD
ROOT
HETATM    1  N   UNL     1     -13.451  16.069  69.590  1.00  0.00     0.496 NA 
HETATM    2  H1  UNL     1     -12.778  16.511  68.963  1.00  0.00     0.000 HD 
HETATM    3  CA  UNL     1     -12.785  15.548  70.817  1.00  0.00    -0.457 C  
HETATM    4  H2  UNL     1     -14.220  16.700  69.819  1.00  0.00     0.000 HD 
ENDROOT
BRANCH   3   5
HETATM    5  C   UNL     1     -13.796  14.884  71.760  1.00  0.00    -0.462 C  
HETATM    6  H   UNL     1     -14.079  13.096  72.531  1.00  0.00     0.000 HD 
HETATM    7  O   UNL     1     -13.453  13.507  71.948  1.00  0.00    -0.402 OA 
ENDBRANCH   3   5
BRANCH   3   8
HETATM    8  C   UNL     1     -11.664  14.572  70.447  1.00  0.00    -0.290 C  
HETATM    9  O   UNL     1     -10.754  14.250  71.210  1.00  0.00     1.124 OA 
HETATM   10  H   UNL     1     -12.510  14.425  68.534  1.00  0.00     0.000 HD 
HETATM   11  N   UNL     1     -11.739  14.129  69.132  1.00  0.00    -0.304 N  
BRANCH  11  12
HETATM   12  N   UNL     1     -10.743  13.267  68.630  1.00  0.00    -0.259 NA 
HETATM   13  H   UNL     1     -11.109  12.330  68.464  1.00  0.00     0.000 HD 
BRANCH  12  14
HETATM   14  C   UNL     1     -10.113  13.824  67.419  1.00  0.00    -0.244 C  
BRANCH  14  15
HETATM   15  C   UNL     1     -10.370  12.966  66.199  1.00  0.00    -0.286 A  
HETATM   16  C   UNL     1     -10.053  11.601  66.130  1.00  0.00    -0.224 A  
HETATM   17  O   UNL     1      -9.488  10.906  67.173  1.00  0.00    -0.159 OA 
HETATM   18  C   UNL     1     -10.310  10.870  64.973  1.00  0.00    -0.288 A  
HETATM   19  H   UNL     1      -9.273   9.981  67.126  1.00  0.00     0.000 HD 
HETATM   20  C   UNL     1     -10.861  11.484  63.859  1.00  0.00    -0.401 A  
HETATM   21  O   UNL     1     -10.031   9.529  64.926  1.00  0.00    -0.396 OA 
HETATM   22  H   UNL     1     -10.207   9.030  64.137  1.00  0.00     0.000 HD 
HETATM   23  C   UNL     1     -11.157  12.836  63.882  1.00  0.00    -0.477 A  
HETATM   24  O   UNL     1     -11.113  10.756  62.731  1.00  0.00    -0.447 OA 
HETATM   25  H   UNL     1     -11.491  11.177  61.967  1.00  0.00     0.000 HD 
HETATM   26  C   UNL     1     -10.910  13.575  65.047  1.00  0.00    -0.348 A  
ENDBRANCH  14  15
ENDBRANCH  12  14
ENDBRANCH  11  12
ENDBRANCH   3   8
TORSDOF 5
ENDMDL
MODEL      303
REMARK 921   NORMALIZED FREE ENERGY PREDICTED BY IDOCK:   -2.82 KCAL/MOL
REMARK 922        TOTAL FREE ENERGY PREDICTED BY IDOCK:   -4.10 KCAL/MOL
REMARK 923 INTER-LIGAND FREE ENERGY PREDICTED BY IDOCK:   -3.43 KCAL/MOL
REMARK 924 INTRA-LIGAND FREE ENERGY PREDICTED BY IDOCK:   -0.67 KCAL/MOL
REMARK 927      BINDING AFFINITY PREDICTED BY RF-SCORE:    0.00 PKD
ROOT
HETATM    1  N   UNL     1     -12.173  10.833  69.021  1.00  0.00    -0.761 NA 
HETATM    2  H1  UNL     1     -13.044  10.334  69.204  1.00  0.00     0.000 HD 
HETATM    3  CA  UNL     1     -11.062   9.886  68.719  1.00  0.00    -0.135 C  
HETATM    4  H2  UNL     1     -12.286  11.526  68.281  1.00  0.00     0.000 HD 
ENDROOT
BRANCH   3   5
HETATM    5  C   UNL     1      -9.752  10.636  68.444  1.00  0.00    -0.166 C  
HETATM    6  H   UNL     1      -8.129  10.343  67.371  1.00  0.00     0.000 HD 
HETATM    7  O   UNL     1      -8.940   9.879  67.541  1.00  0.00    -0.134 OA 
ENDBRANCH   3   5
BRANCH   3   8
HETATM    8  C   UNL     1     -10.884   8.883  69.862  1.00  0.00    -0.211 C  
HETATM    9  O   UNL     1     -10.686   9.203  71.034  1.00  0.00    -0.243 OA 
HETATM   10  H   UNL     1     -11.069   7.341  68.453  1.00  0.00     0.000 HD 
HETATM   11  N   UNL     1     -10.905   7.560  69.436  1.00  0.00    -0.195 N  
BRANCH  11  12
HETATM   12  N   UNL     1     -10.699   6.524  70.368  1.00  0.00    -0.238 NA 
HETATM   13  H   UNL     1     -11.396   5.787  70.268  1.00  0.00     0.000 HD 
BRANCH  12  14
HETATM   14  C   UNL     1      -9.328   5.989  70.281  1.00  0.00    -0.159 C  
BRANCH  14  15
HETATM   15  C   UNL     1      -9.021   5.434  68.907  1.00  0.00    -0.130 A  
HETATM   16  C   UNL     1      -8.306   6.140  67.928  1.00  0.00    -0.117 A  
HETATM   17  O   UNL     1      -7.802   7.404  68.129  1.00  0.00    -0.117 OA 
HETATM   18  C   UNL     1      -8.062   5.574  66.679  1.00  0.00    -0.105 A  
HETATM   19  H   UNL     1      -7.317   7.882  67.466  1.00  0.00     0.000 HD 
HETATM   20  C   UNL     1      -8.544   4.312  66.372  1.00  0.00    -0.112 A  
HETATM   21  O   UNL     1      -7.331   6.256  65.742  1.00  0.00    -0.076 OA 
HETATM   22  H   UNL     1      -7.165   5.870  64.890  1.00  0.00     0.000 HD 
HETATM   23  C   UNL     1      -9.282   3.600  67.304  1.00  0.00    -0.215 A  
HETATM   24  O   UNL     1      -8.297   3.764  65.146  1.00  0.00    -0.100 OA 
HETATM   25  H   UNL     1      -8.627   2.898  64.935  1.00  0.00     0.000 HD 
HETATM   26  C   UNL     1      -9.521   4.161  68.565  1.00  0.00    -0.216 A  
ENDBRANCH  14  15
ENDBRANCH  12  14
ENDBRANCH  11  12
ENDBRANCH   3   8
TORSDOF 5
ENDMDL
MODEL      304
REMARK 921   NORMALIZED FREE ENERGY PREDICTED BY IDOCK:   -2.77 KCAL/MOL
REMARK 922        TOTAL FREE ENERGY PREDICTED BY IDOCK:   -4.03 KCAL/MOL
REMARK 923 INTER-LIGAND FREE ENERGY PREDICTED BY IDOCK:   -3.89 KCAL/MOL
REMARK 924 INTRA-LIGAND FREE ENERGY PREDICTED BY IDOCK:   -0.14 KCAL/MOL
REMARK 927      BINDING AFFINITY PREDICTED BY RF-SCORE:    0.00 PKD
ROOT
HETATM    1  N   UNL     1      -9.174   8.233  72.532  1.00  0.00    -0.245 NA 
HETATM    2  H1  UNL     1     -10.124   8.375  72.875  1.00  0.00     0.000 HD 
HETATM    3  CA  UNL     1      -8.926   9.018  71.289  1.00  0.00    -0.211 C  
HETATM    4  H2  UNL     1      -8.481   8.440  73.251  1.00  0.00     0.000 HD 
ENDROOT
BRANCH   3   5
HETATM    5  C   UNL     1      -7.497   8.805  70.773  1.00  0.00    -0.087 C  
HETATM    6  H   UNL     1      -6.114   9.891  69.891  1.00  0.00     0.000 HD 
HETATM    7  O   UNL     1      -6.998  10.023  70.210  1.00  0.00    -0.128 OA 
ENDBRANCH   3   5
BRANCH   3   8
HETATM    8  C   UNL     1      -9.952   8.659  70.212  1.00  0.00    -0.186 C  
HETATM    9  O   UNL     1     -11.037   8.128  70.445  1.00  0.00    -0.253 OA 
HETATM   10  H   UNL     1      -8.601   9.374  68.777  1.00  0.00     0.000 HD 
HETATM   11  N   UNL     1      -9.510   8.936  68.923  1.00  0.00    -0.151 N  
BRANCH  11  12
HETATM   12  N   UNL     1     -10.325   8.608  67.822  1.00  0.00    -0.235 NA 
HETATM   13  H   UNL     1     -11.080   9.282  67.701  1.00  0.00     0.000 HD 
BRANCH  12  14
HETATM   14  C   UNL     1      -9.529   8.462  66.589  1.00  0.00    -0.205 C  
BRANCH  14  15
HETATM   15  C   UNL     1      -9.695   9.646  65.661  1.00  0.00    -0.363 A  
HETATM   16  C   UNL     1      -8.788   9.964  64.641  1.00  0.00    -0.204 A  
HETATM   17  O   UNL     1      -7.662   9.221  64.375  1.00  0.00    -0.110 OA 
HETATM   18  C   UNL     1      -8.997  11.074  63.825  1.00  0.00    -0.064 A  
HETATM   19  H   UNL     1      -7.047   9.437  63.683  1.00  0.00     0.000 HD 
HETATM   20  C   UNL     1     -10.094  11.898  64.024  1.00  0.00    -0.334 A  
HETATM   21  O   UNL     1      -8.126  11.357  62.807  1.00  0.00    -0.438 OA 
HETATM   22  H   UNL     1      -8.268  12.113  62.250  1.00  0.00     0.000 HD 
HETATM   23  C   UNL     1     -10.992  11.630  65.043  1.00  0.00    -0.334 A  
HETATM   24  O   UNL     1     -10.291  12.981  63.216  1.00  0.00    -0.368 OA 
HETATM   25  H   UNL     1     -11.043  13.546  63.352  1.00  0.00     0.000 HD 
HETATM   26  C   UNL     1     -10.792  10.510  65.861  1.00  0.00     0.025 A  
ENDBRANCH  14  15
ENDBRANCH  12  14
ENDBRANCH  11  12
ENDBRANCH   3   8
TORSDOF 5
ENDMDL
MODEL      305
REMARK 921   NORMALIZED FREE ENERGY PREDICTED BY IDOCK:   -2.69 KCAL/MOL
REMARK 922        TOTAL FREE ENERGY PREDICTED BY IDOCK:   -3.93 KCAL/MOL
REMARK 923 INTER-LIGAND FREE ENERGY PREDICTED BY IDOCK:   -4.78 KCAL/MOL
REMARK 924 INTRA-LIGAND FREE ENERGY PREDICTED BY IDOCK:    0.85 KCAL/MOL
REMARK 927      BINDING AFFINITY PREDICTED BY RF-SCORE:    0.00 PKD
ROOT
HETATM    1  N   UNL     1     -13.322  11.583  72.126  1.00  0.00    -0.562 NA 
HETATM    2  H1  UNL     1     -12.606  12.229  72.460  1.00  0.00     0.000 HD 
HETATM    3  CA  UNL     1     -12.802  10.187  72.062  1.00  0.00    -0.376 C  
HETATM    4  H2  UNL     1     -14.171  11.642  72.689  1.00  0.00     0.000 HD 
ENDROOT
BRANCH   3   5
HETATM    5  C   UNL     1     -13.879   9.216  71.561  1.00  0.00    -0.294 C  
HETATM    6  H   UNL     1     -14.115   7.265  71.458  1.00  0.00     0.000 HD 
HETATM    7  O   UNL     1     -13.449   7.866  71.768  1.00  0.00    -0.339 OA 
ENDBRANCH   3   5
BRANCH   3   8
HETATM    8  C   UNL     1     -11.554  10.118  71.179  1.00  0.00    -0.346 C  
HETATM    9  O   UNL     1     -10.566   9.431  71.437  1.00  0.00    -0.331 OA 
HETATM   10  H   UNL     1     -12.456  11.518  69.904  1.00  0.00     0.000 HD 
HETATM   11  N   UNL     1     -11.617  10.963  70.077  1.00  0.00    -0.312 N  
BRANCH  11  12
HETATM   12  N   UNL     1     -10.517  11.050  69.201  1.00  0.00    -0.269 NA 
HETATM   13  H   UNL     1     -10.140  11.996  69.166  1.00  0.00     0.000 HD 
BRANCH  12  14
HETATM   14  C   UNL     1      -9.475  10.066  69.549  1.00  0.00    -0.226 C  
BRANCH  14  15
HETATM   15  C   UNL     1      -9.080   9.213  68.362  1.00  0.00    -0.132 A  
HETATM   16  C   UNL     1      -9.855   8.149  67.879  1.00  0.00    -0.169 A  
HETATM   17  O   UNL     1     -11.061   7.785  68.431  1.00  0.00    -0.421 OA 
HETATM   18  C   UNL     1      -9.430   7.399  66.785  1.00  0.00    -0.176 A  
HETATM   19  H   UNL     1     -11.587   7.064  68.104  1.00  0.00     0.000 HD 
HETATM   20  C   UNL     1      -8.220   7.676  66.169  1.00  0.00    -0.124 A  
HETATM   21  O   UNL     1     -10.211   6.385  66.297  1.00  0.00    -0.411 OA 
HETATM   22  H   UNL     1      -9.921   5.874  65.551  1.00  0.00     0.000 HD 
HETATM   23  C   UNL     1      -7.414   8.699  66.641  1.00  0.00    -0.089 A  
HETATM   24  O   UNL     1      -7.814   6.936  65.095  1.00  0.00    -0.105 OA 
HETATM   25  H   UNL     1      -6.984   7.126  64.672  1.00  0.00     0.000 HD 
HETATM   26  C   UNL     1      -7.841   9.463  67.735  1.00  0.00    -0.095 A  
ENDBRANCH  14  15
ENDBRANCH  12  14
ENDBRANCH  11  12
ENDBRANCH   3   8
TORSDOF 5
ENDMDL
MODEL      306
REMARK 921   NORMALIZED FREE ENERGY PREDICTED BY IDOCK:   -2.69 KCAL/MOL
REMARK 922        TOTAL FREE ENERGY PREDICTED BY IDOCK:   -3.92 KCAL/MOL
REMARK 923 INTER-LIGAND FREE ENERGY PREDICTED BY IDOCK:   -3.27 KCAL/MOL
REMARK 924 INTRA-LIGAND FREE ENERGY PREDICTED BY IDOCK:   -0.65 KCAL/MOL
REMARK 927      BINDING AFFINITY PREDICTED BY RF-SCORE:    0.00 PKD
ROOT
HETATM    1  N   UNL     1     -10.610   9.721  69.210  1.00  0.00    -0.212 NA 
HETATM    2  H1  UNL     1     -10.615  10.627  68.741  1.00  0.00     0.000 HD 
HETATM    3  CA  UNL     1      -9.388   9.551  70.046  1.00  0.00    -0.234 C  
HETATM    4  H2  UNL     1     -11.461   9.576  69.755  1.00  0.00     0.000 HD 
ENDROOT
BRANCH   3   5
HETATM    5  C   UNL     1      -9.381   8.188  70.750  1.00  0.00    -0.158 C  
HETATM    6  H   UNL     1      -9.075   7.518  72.574  1.00  0.00     0.000 HD 
HETATM    7  O   UNL     1      -9.080   8.361  72.139  1.00  0.00    -0.195 OA 
ENDBRANCH   3   5
BRANCH   3   8
HETATM    8  C   UNL     1      -8.127   9.732  69.197  1.00  0.00    -0.107 C  
HETATM    9  O   UNL     1      -6.987   9.771  69.659  1.00  0.00    -0.061 OA 
HETATM   10  H   UNL     1      -9.361   9.875  67.508  1.00  0.00     0.000 HD 
HETATM   11  N   UNL     1      -8.399   9.912  67.846  1.00  0.00    -0.113 N  
BRANCH  11  12
HETATM   12  N   UNL     1      -7.340  10.145  66.947  1.00  0.00    -0.091 NA 
HETATM   13  H   UNL     1      -7.271   9.405  66.249  1.00  0.00     0.000 HD 
BRANCH  12  14
HETATM   14  C   UNL     1      -7.453  11.473  66.317  1.00  0.00     0.118 C  
BRANCH  14  15
HETATM   15  C   UNL     1      -8.644  11.561  65.387  1.00  0.00     0.247 A  
HETATM   16  C   UNL     1      -8.879  10.657  64.341  1.00  0.00    -0.173 A  
HETATM   17  O   UNL     1      -8.056   9.590  64.068  1.00  0.00    -0.133 OA 
HETATM   18  C   UNL     1      -9.993  10.799  63.517  1.00  0.00    -0.344 A  
HETATM   19  H   UNL     1      -8.215   8.977  63.360  1.00  0.00     0.000 HD 
HETATM   20  C   UNL     1     -10.875  11.852  63.699  1.00  0.00    -0.444 A  
HETATM   21  O   UNL     1     -10.236   9.889  62.521  1.00  0.00    -0.327 OA 
HETATM   22  H   UNL     1     -10.995   9.986  61.959  1.00  0.00     0.000 HD 
HETATM   23  C   UNL     1     -10.655  12.782  64.701  1.00  0.00    -0.371 A  
HETATM   24  O   UNL     1     -11.966  11.979  62.887  1.00  0.00    -0.644 OA 
HETATM   25  H   UNL     1     -12.571  12.702  63.011  1.00  0.00     0.000 HD 
HETATM   26  C   UNL     1      -9.542  12.638  65.540  1.00  0.00    -0.026 A  
ENDBRANCH  14  15
ENDBRANCH  12  14
ENDBRANCH  11  12
ENDBRANCH   3   8
TORSDOF 5
ENDMDL
MODEL      307
REMARK 921   NORMALIZED FREE ENERGY PREDICTED BY IDOCK:   -2.67 KCAL/MOL
REMARK 922        TOTAL FREE ENERGY PREDICTED BY IDOCK:   -3.90 KCAL/MOL
REMARK 923 INTER-LIGAND FREE ENERGY PREDICTED BY IDOCK:   -3.64 KCAL/MOL
REMARK 924 INTRA-LIGAND FREE ENERGY PREDICTED BY IDOCK:   -0.26 KCAL/MOL
REMARK 927      BINDING AFFINITY PREDICTED BY RF-SCORE:    0.00 PKD
ROOT
HETATM    1  N   UNL     1      -7.619   4.604  64.471  1.00  0.00    -0.072 NA 
HETATM    2  H1  UNL     1      -6.968   5.133  63.889  1.00  0.00     0.000 HD 
HETATM    3  CA  UNL     1      -8.731   5.469  64.959  1.00  0.00    -0.094 C  
HETATM    4  H2  UNL     1      -7.971   3.779  63.984  1.00  0.00     0.000 HD 
ENDROOT
BRANCH   3   5
HETATM    5  C   UNL     1      -9.711   4.675  65.833  1.00  0.00    -0.200 C  
HETATM    6  H   UNL     1     -10.105   2.780  66.187  1.00  0.00     0.000 HD 
HETATM    7  O   UNL     1      -9.499   3.272  65.646  1.00  0.00    -0.157 OA 
ENDBRANCH   3   5
BRANCH   3   8
HETATM    8  C   UNL     1      -8.179   6.676  65.721  1.00  0.00    -0.135 C  
HETATM    9  O   UNL     1      -7.384   6.594  66.656  1.00  0.00    -0.075 OA 
HETATM   10  H   UNL     1      -9.375   7.905  64.513  1.00  0.00     0.000 HD 
HETATM   11  N   UNL     1      -8.716   7.884  65.291  1.00  0.00    -0.065 N  
BRANCH  11  12
HETATM   12  N   UNL     1      -8.344   9.081  65.936  1.00  0.00    -0.119 NA 
HETATM   13  H   UNL     1      -7.335   9.133  66.074  1.00  0.00     0.000 HD 
BRANCH  12  14
HETATM   14  C   UNL     1      -8.853  10.261  65.215  1.00  0.00    -0.180 C  
BRANCH  14  15
HETATM   15  C   UNL     1      -9.526  11.249  66.144  1.00  0.00    -0.232 A  
HETATM   16  C   UNL     1      -9.989  12.507  65.733  1.00  0.00    -0.259 A  
HETATM   17  O   UNL     1      -9.889  12.961  64.439  1.00  0.00    -0.590 OA 
HETATM   18  C   UNL     1     -10.595  13.372  66.642  1.00  0.00    -0.282 A  
HETATM   19  H   UNL     1     -10.203  13.814  64.161  1.00  0.00     0.000 HD 
HETATM   20  C   UNL     1     -10.727  13.014  67.974  1.00  0.00    -0.232 A  
HETATM   21  O   UNL     1     -11.078  14.584  66.225  1.00  0.00    -0.320 OA 
HETATM   22  H   UNL     1     -11.491  15.174  66.845  1.00  0.00     0.000 HD 
HETATM   23  C   UNL     1     -10.251  11.793  68.420  1.00  0.00    -0.208 A  
HETATM   24  O   UNL     1     -11.326  13.869  68.856  1.00  0.00    -0.250 OA 
HETATM   25  H   UNL     1     -11.417  13.624  69.770  1.00  0.00     0.000 HD 
HETATM   26  C   UNL     1      -9.650  10.914  67.508  1.00  0.00    -0.171 A  
ENDBRANCH  14  15
ENDBRANCH  12  14
ENDBRANCH  11  12
ENDBRANCH   3   8
TORSDOF 5
ENDMDL
MODEL      308
REMARK 921   NORMALIZED FREE ENERGY PREDICTED BY IDOCK:   -2.65 KCAL/MOL
REMARK 922        TOTAL FREE ENERGY PREDICTED BY IDOCK:   -3.87 KCAL/MOL
REMARK 923 INTER-LIGAND FREE ENERGY PREDICTED BY IDOCK:   -3.37 KCAL/MOL
REMARK 924 INTRA-LIGAND FREE ENERGY PREDICTED BY IDOCK:   -0.50 KCAL/MOL
REMARK 927      BINDING AFFINITY PREDICTED BY RF-SCORE:    0.00 PKD
ROOT
HETATM    1  N   UNL     1      -9.883  12.855  64.771  1.00  0.00    -0.548 NA 
HETATM    2  H1  UNL     1      -8.933  12.785  64.406  1.00  0.00     0.000 HD 
HETATM    3  CA  UNL     1      -9.887  13.341  66.180  1.00  0.00    -0.280 C  
HETATM    4  H2  UNL     1     -10.473  13.434  64.173  1.00  0.00     0.000 HD 
ENDROOT
BRANCH   3   5
HETATM    5  C   UNL     1     -11.315  13.445  66.729  1.00  0.00    -0.325 C  
HETATM    6  H   UNL     1     -12.321  14.679  67.884  1.00  0.00     0.000 HD 
HETATM    7  O   UNL     1     -11.437  14.615  67.544  1.00  0.00    -0.332 OA 
ENDBRANCH   3   5
BRANCH   3   8
HETATM    8  C   UNL     1      -9.029  12.431  67.065  1.00  0.00    -0.209 C  
HETATM    9  O   UNL     1      -7.821  12.581  67.238  1.00  0.00    -0.165 OA 
HETATM   10  H   UNL     1     -10.745  11.283  67.436  1.00  0.00     0.000 HD 
HETATM   11  N   UNL     1      -9.743  11.370  67.609  1.00  0.00    -0.171 N  
BRANCH  11  12
HETATM   12  N   UNL     1      -9.076  10.415  68.402  1.00  0.00    -0.141 NA 
HETATM   13  H   UNL     1      -9.128  10.650  69.393  1.00  0.00     0.000 HD 
BRANCH  12  14
HETATM   14  C   UNL     1      -9.579   9.054  68.142  1.00  0.00    -0.148 C  
BRANCH  14  15
HETATM   15  C   UNL     1      -8.860   8.014  68.974  1.00  0.00    -0.145 A  
HETATM   16  C   UNL     1      -8.860   8.007  70.376  1.00  0.00    -0.141 A  
HETATM   17  O   UNL     1      -9.527   8.940  71.134  1.00  0.00    -0.216 OA 
HETATM   18  C   UNL     1      -8.171   7.023  71.081  1.00  0.00    -0.113 A  
HETATM   19  H   UNL     1      -9.528   8.935  72.084  1.00  0.00     0.000 HD 
HETATM   20  C   UNL     1      -7.452   6.047  70.409  1.00  0.00    -0.090 A  
HETATM   21  O   UNL     1      -8.207   7.001  72.451  1.00  0.00    -0.105 OA 
HETATM   22  H   UNL     1      -7.738   6.329  72.932  1.00  0.00     0.000 HD 
HETATM   23  C   UNL     1      -7.404   6.044  69.025  1.00  0.00    -0.085 A  
HETATM   24  O   UNL     1      -6.784   5.084  71.111  1.00  0.00    -0.036 OA 
HETATM   25  H   UNL     1      -6.291   4.415  70.650  1.00  0.00     0.000 HD 
HETATM   26  C   UNL     1      -8.103   7.025  68.310  1.00  0.00    -0.123 A  
ENDBRANCH  14  15
ENDBRANCH  12  14
ENDBRANCH  11  12
ENDBRANCH   3   8
TORSDOF 5
ENDMDL
MODEL      309
REMARK 921   NORMALIZED FREE ENERGY PREDICTED BY IDOCK:   -2.63 KCAL/MOL
REMARK 922        TOTAL FREE ENERGY PREDICTED BY IDOCK:   -3.85 KCAL/MOL
REMARK 923 INTER-LIGAND FREE ENERGY PREDICTED BY IDOCK:   -3.54 KCAL/MOL
REMARK 924 INTRA-LIGAND FREE ENERGY PREDICTED BY IDOCK:   -0.31 KCAL/MOL
REMARK 927      BINDING AFFINITY PREDICTED BY RF-SCORE:    0.00 PKD
ROOT
HETATM    1  N   UNL     1     -11.805  11.584  70.270  1.00  0.00    -0.410 NA 
HETATM    2  H1  UNL     1     -11.636  12.212  69.484  1.00  0.00     0.000 HD 
HETATM    3  CA  UNL     1     -10.793  10.489  70.314  1.00  0.00    -0.174 C  
HETATM    4  H2  UNL     1     -11.844  12.093  71.154  1.00  0.00     0.000 HD 
ENDROOT
BRANCH   3   5
HETATM    5  C   UNL     1     -11.046   9.545  71.496  1.00  0.00    -0.336 C  
HETATM    6  H   UNL     1     -12.529   9.153  72.727  1.00  0.00     0.000 HD 
HETATM    7  O   UNL     1     -12.373   9.737  71.995  1.00  0.00    -0.354 OA 
ENDBRANCH   3   5
BRANCH   3   8
HETATM    8  C   UNL     1     -10.782   9.715  68.993  1.00  0.00    -0.211 C  
HETATM    9  O   UNL     1     -10.930  10.236  67.888  1.00  0.00    -0.267 OA 
HETATM   10  H   UNL     1     -10.533   7.953  70.102  1.00  0.00     0.000 HD 
HETATM   11  N   UNL     1     -10.650   8.342  69.167  1.00  0.00    -0.199 N  
BRANCH  11  12
HETATM   12  N   UNL     1     -10.678   7.492  68.043  1.00  0.00    -0.412 NA 
HETATM   13  H   UNL     1     -10.985   7.987  67.207  1.00  0.00     0.000 HD 
BRANCH  12  14
HETATM   14  C   UNL     1      -9.376   6.834  67.835  1.00  0.00    -0.113 C  
BRANCH  14  15
HETATM   15  C   UNL     1      -9.485   5.632  66.921  1.00  0.00    -0.142 A  
HETATM   16  C   UNL     1      -8.404   4.797  66.605  1.00  0.00    -0.106 A  
HETATM   17  O   UNL     1      -7.138   4.982  67.109  1.00  0.00    -0.066 OA 
HETATM   18  C   UNL     1      -8.572   3.710  65.751  1.00  0.00    -0.114 A  
HETATM   19  H   UNL     1      -6.405   4.416  66.895  1.00  0.00     0.000 HD 
HETATM   20  C   UNL     1      -9.806   3.449  65.177  1.00  0.00    -0.041 A  
HETATM   21  O   UNL     1      -7.519   2.877  65.478  1.00  0.00    -0.070 OA 
HETATM   22  H   UNL     1      -7.633   2.135  64.895  1.00  0.00     0.000 HD 
HETATM   23  C   UNL     1     -10.887   4.273  65.441  1.00  0.00     0.019 A  
HETATM   24  O   UNL     1      -9.960   2.378  64.343  1.00  0.00    -0.306 OA 
HETATM   25  H   UNL     1     -10.806   2.198  63.950  1.00  0.00     0.000 HD 
HETATM   26  C   UNL     1     -10.727   5.362  66.308  1.00  0.00    -0.234 A  
ENDBRANCH  14  15
ENDBRANCH  12  14
ENDBRANCH  11  12
ENDBRANCH   3   8
TORSDOF 5
ENDMDL
MODEL      310
REMARK 921   NORMALIZED FREE ENERGY PREDICTED BY IDOCK:   -2.61 KCAL/MOL
REMARK 922        TOTAL FREE ENERGY PREDICTED BY IDOCK:   -3.83 KCAL/MOL
REMARK 923 INTER-LIGAND FREE ENERGY PREDICTED BY IDOCK:   -3.39 KCAL/MOL
REMARK 924 INTRA-LIGAND FREE ENERGY PREDICTED BY IDOCK:   -0.44 KCAL/MOL
REMARK 927      BINDING AFFINITY PREDICTED BY RF-SCORE:    0.00 PKD
ROOT
HETATM    1  N   UNL     1      -7.297   6.928  73.309  1.00  0.00    -0.075 NA 
HETATM    2  H1  UNL     1      -7.821   7.760  73.034  1.00  0.00     0.000 HD 
HETATM    3  CA  UNL     1      -6.625   6.301  72.136  1.00  0.00    -0.059 C  
HETATM    4  H2  UNL     1      -6.633   7.134  74.056  1.00  0.00     0.000 HD 
ENDROOT
BRANCH   3   5
HETATM    5  C   UNL     1      -5.836   5.052  72.549  1.00  0.00    -0.021 C  
HETATM    6  H   UNL     1      -6.249   3.189  73.030  1.00  0.00     0.000 HD 
HETATM    7  O   UNL     1      -6.737   3.963  72.775  1.00  0.00    -0.037 OA 
ENDBRANCH   3   5
BRANCH   3   8
HETATM    8  C   UNL     1      -7.647   5.964  71.047  1.00  0.00    -0.096 C  
HETATM    9  O   UNL     1      -7.346   5.610  69.908  1.00  0.00    -0.066 OA 
HETATM   10  H   UNL     1      -9.164   6.455  72.408  1.00  0.00     0.000 HD 
HETATM   11  N   UNL     1      -8.961   6.157  71.454  1.00  0.00    -0.143 N  
BRANCH  11  12
HETATM   12  N   UNL     1     -10.012   5.940  70.541  1.00  0.00    -0.182 NA 
HETATM   13  H   UNL     1     -10.391   4.997  70.624  1.00  0.00     0.000 HD 
BRANCH  12  14
HETATM   14  C   UNL     1     -11.067   6.960  70.683  1.00  0.00    -0.278 C  
BRANCH  14  15
HETATM   15  C   UNL     1     -10.884   8.107  69.713  1.00  0.00    -0.190 A  
HETATM   16  C   UNL     1     -10.993   9.457  70.078  1.00  0.00    -0.239 A  
HETATM   17  O   UNL     1     -11.266   9.870  71.361  1.00  0.00    -0.348 OA 
HETATM   18  C   UNL     1     -10.819  10.465  69.133  1.00  0.00    -0.236 A  
HETATM   19  H   UNL     1     -11.340  10.785  71.608  1.00  0.00     0.000 HD 
HETATM   20  C   UNL     1     -10.559  10.151  67.808  1.00  0.00    -0.256 A  
HETATM   21  O   UNL     1     -10.891  11.781  69.505  1.00  0.00    -0.442 OA 
HETATM   22  H   UNL     1     -10.772  12.469  68.860  1.00  0.00     0.000 HD 
HETATM   23  C   UNL     1     -10.476   8.828  67.407  1.00  0.00    -0.349 A  
HETATM   24  O   UNL     1     -10.386  11.148  66.890  1.00  0.00    -0.213 OA 
HETATM   25  H   UNL     1     -10.207  10.933  65.982  1.00  0.00     0.000 HD 
HETATM   26  C   UNL     1     -10.641   7.810  68.356  1.00  0.00    -0.157 A  
ENDBRANCH  14  15
ENDBRANCH  12  14
ENDBRANCH  11  12
ENDBRANCH   3   8
TORSDOF 5
ENDMDL
MODEL      311
REMARK 921   NORMALIZED FREE ENERGY PREDICTED BY IDOCK:   -2.53 KCAL/MOL
REMARK 922        TOTAL FREE ENERGY PREDICTED BY IDOCK:   -3.71 KCAL/MOL
REMARK 923 INTER-LIGAND FREE ENERGY PREDICTED BY IDOCK:   -3.42 KCAL/MOL
REMARK 924 INTRA-LIGAND FREE ENERGY PREDICTED BY IDOCK:   -0.29 KCAL/MOL
REMARK 927      BINDING AFFINITY PREDICTED BY RF-SCORE:    0.00 PKD
ROOT
HETATM    1  N   UNL     1     -11.608  14.515  71.954  1.00  0.00    -0.314 NA 
HETATM    2  H1  UNL     1     -11.822  14.026  72.824  1.00  0.00     0.000 HD 
HETATM    3  CA  UNL     1     -12.549  14.122  70.867  1.00  0.00    -0.363 C  
HETATM    4  H2  UNL     1     -11.591  15.527  72.088  1.00  0.00     0.000 HD 
ENDROOT
BRANCH   3   5
HETATM    5  C   UNL     1     -12.227  14.857  69.560  1.00  0.00    -0.233 C  
HETATM    6  H   UNL     1     -10.709  15.861  68.815  1.00  0.00     0.000 HD 
HETATM    7  O   UNL     1     -10.908  15.406  69.624  1.00  0.00    -0.246 OA 
ENDBRANCH   3   5
BRANCH   3   8
HETATM    8  C   UNL     1     -12.526  12.605  70.658  1.00  0.00    -0.239 C  
HETATM    9  O   UNL     1     -13.288  11.821  71.223  1.00  0.00    -0.107 OA 
HETATM   10  H   UNL     1     -10.898  12.873  69.364  1.00  0.00     0.000 HD 
HETATM   11  N   UNL     1     -11.509  12.187  69.808  1.00  0.00    -0.233 N  
BRANCH  11  12
HETATM   12  N   UNL     1     -11.328  10.812  69.562  1.00  0.00    -0.264 NA 
HETATM   13  H   UNL     1     -12.045  10.252  70.023  1.00  0.00     0.000 HD 
BRANCH  12  14
HETATM   14  C   UNL     1     -11.265  10.528  68.117  1.00  0.00    -0.293 C  
BRANCH  14  15
HETATM   15  C   UNL     1      -9.904  10.017  67.696  1.00  0.00    -0.194 A  
HETATM   16  C   UNL     1      -8.992   9.423  68.580  1.00  0.00    -0.132 A  
HETATM   17  O   UNL     1      -9.252   9.233  69.917  1.00  0.00    -0.166 OA 
HETATM   18  C   UNL     1      -7.751   8.980  68.129  1.00  0.00    -0.096 A  
HETATM   19  H   UNL     1      -8.635   8.831  70.516  1.00  0.00     0.000 HD 
HETATM   20  C   UNL     1      -7.385   9.141  66.802  1.00  0.00    -0.086 A  
HETATM   21  O   UNL     1      -6.881   8.367  68.991  1.00  0.00    -0.054 OA 
HETATM   22  H   UNL     1      -6.034   8.064  68.683  1.00  0.00     0.000 HD 
HETATM   23  C   UNL     1      -8.249   9.753  65.909  1.00  0.00    -0.117 A  
HETATM   24  O   UNL     1      -6.167   8.700  66.369  1.00  0.00    -0.058 OA 
HETATM   25  H   UNL     1      -5.916   8.810  65.459  1.00  0.00     0.000 HD 
HETATM   26  C   UNL     1      -9.502  10.192  66.356  1.00  0.00    -0.223 A  
ENDBRANCH  14  15
ENDBRANCH  12  14
ENDBRANCH  11  12
ENDBRANCH   3   8
TORSDOF 5
ENDMDL
MODEL      312
REMARK 921   NORMALIZED FREE ENERGY PREDICTED BY IDOCK:   -2.48 KCAL/MOL
REMARK 922        TOTAL FREE ENERGY PREDICTED BY IDOCK:   -3.66 KCAL/MOL
REMARK 923 INTER-LIGAND FREE ENERGY PREDICTED BY IDOCK:   -3.22 KCAL/MOL
REMARK 924 INTRA-LIGAND FREE ENERGY PREDICTED BY IDOCK:   -0.43 KCAL/MOL
REMARK 927      BINDING AFFINITY PREDICTED BY RF-SCORE:    0.00 PKD
ROOT
HETATM    1  N   UNL     1      -6.614  10.244  70.108  1.00  0.00    -0.123 NA 
HETATM    2  H1  UNL     1      -7.266  10.935  69.734  1.00  0.00     0.000 HD 
HETATM    3  CA  UNL     1      -6.126   9.328  69.037  1.00  0.00    -0.043 C  
HETATM    4  H2  UNL     1      -5.840  10.689  70.602  1.00  0.00     0.000 HD 
ENDROOT
BRANCH   3   5
HETATM    5  C   UNL     1      -5.146   8.290  69.598  1.00  0.00    -0.029 C  
HETATM    6  H   UNL     1      -4.600   7.645  71.375  1.00  0.00     0.000 HD 
HETATM    7  O   UNL     1      -5.207   8.287  71.028  1.00  0.00    -0.029 OA 
ENDBRANCH   3   5
BRANCH   3   8
HETATM    8  C   UNL     1      -7.303   8.642  68.339  1.00  0.00    -0.086 C  
HETATM    9  O   UNL     1      -8.090   9.220  67.590  1.00  0.00    -0.103 OA 
HETATM   10  H   UNL     1      -6.762   6.865  69.312  1.00  0.00     0.000 HD 
HETATM   11  N   UNL     1      -7.437   7.303  68.684  1.00  0.00    -0.100 N  
BRANCH  11  12
HETATM   12  N   UNL     1      -8.510   6.552  68.163  1.00  0.00    -0.116 NA 
HETATM   13  H   UNL     1      -8.283   6.161  67.249  1.00  0.00     0.000 HD 
BRANCH  12  14
HETATM   14  C   UNL     1      -8.942   5.505  69.106  1.00  0.00    -0.108 C  
BRANCH  14  15
HETATM   15  C   UNL     1     -10.036   5.992  70.033  1.00  0.00    -0.227 A  
HETATM   16  C   UNL     1     -10.286   5.435  71.295  1.00  0.00    -0.228 A  
HETATM   17  O   UNL     1      -9.552   4.398  71.821  1.00  0.00    -0.142 OA 
HETATM   18  C   UNL     1     -11.314   5.926  72.097  1.00  0.00    -0.288 A  
HETATM   19  H   UNL     1      -9.721   4.020  72.676  1.00  0.00     0.000 HD 
HETATM   20  C   UNL     1     -12.124   6.958  71.651  1.00  0.00    -0.353 A  
HETATM   21  O   UNL     1     -11.529   5.400  73.344  1.00  0.00    -0.490 OA 
HETATM   22  H   UNL     1     -12.230   5.736  73.891  1.00  0.00     0.000 HD 
HETATM   23  C   UNL     1     -11.924   7.510  70.396  1.00  0.00     0.004 A  
HETATM   24  O   UNL     1     -13.126   7.435  72.447  1.00  0.00    -0.489 OA 
HETATM   25  H   UNL     1     -13.682   8.143  72.141  1.00  0.00     0.000 HD 
HETATM   26  C   UNL     1     -10.886   7.026  69.589  1.00  0.00    -0.275 A  
ENDBRANCH  14  15
ENDBRANCH  12  14
ENDBRANCH  11  12
ENDBRANCH   3   8
TORSDOF 5
ENDMDL
MODEL      313
REMARK 921   NORMALIZED FREE ENERGY PREDICTED BY IDOCK:   -2.47 KCAL/MOL
REMARK 922        TOTAL FREE ENERGY PREDICTED BY IDOCK:   -3.64 KCAL/MOL
REMARK 923 INTER-LIGAND FREE ENERGY PREDICTED BY IDOCK:   -2.93 KCAL/MOL
REMARK 924 INTRA-LIGAND FREE ENERGY PREDICTED BY IDOCK:   -0.71 KCAL/MOL
REMARK 927      BINDING AFFINITY PREDICTED BY RF-SCORE:    0.00 PKD
ROOT
HETATM    1  N   UNL     1     -12.182   8.240  72.086  1.00  0.00    -0.344 NA 
HETATM    2  H1  UNL     1     -12.234   9.044  72.713  1.00  0.00     0.000 HD 
HETATM    3  CA  UNL     1     -10.923   7.471  72.297  1.00  0.00    -0.262 C  
HETATM    4  H2  UNL     1     -13.005   7.643  72.173  1.00  0.00     0.000 HD 
ENDROOT
BRANCH   3   5
HETATM    5  C   UNL     1     -10.845   6.262  71.355  1.00  0.00    -0.261 C  
HETATM    6  H   UNL     1     -10.609   4.317  71.533  1.00  0.00     0.000 HD 
HETATM    7  O   UNL     1     -10.658   5.065  72.116  1.00  0.00    -0.216 OA 
ENDBRANCH   3   5
BRANCH   3   8
HETATM    8  C   UNL     1      -9.702   8.378  72.120  1.00  0.00    -0.300 C  
HETATM    9  O   UNL     1      -8.856   8.570  72.993  1.00  0.00    -0.321 OA 
HETATM   10  H   UNL     1     -10.399   8.833  70.196  1.00  0.00     0.000 HD 
HETATM   11  N   UNL     1      -9.674   9.020  70.888  1.00  0.00    -0.240 N  
BRANCH  11  12
HETATM   12  N   UNL     1      -8.638   9.931  70.601  1.00  0.00    -0.369 NA 
HETATM   13  H   UNL     1      -8.057  10.106  71.420  1.00  0.00     0.000 HD 
BRANCH  12  14
HETATM   14  C   UNL     1      -7.831   9.481  69.452  1.00  0.00    -0.097 C  
BRANCH  14  15
HETATM   15  C   UNL     1      -7.466   8.016  69.552  1.00  0.00    -0.092 A  
HETATM   16  C   UNL     1      -6.630   7.492  70.549  1.00  0.00    -0.042 A  
HETATM   17  O   UNL     1      -6.071   8.259  71.543  1.00  0.00    -0.035 OA 
HETATM   18  C   UNL     1      -6.328   6.132  70.580  1.00  0.00    -0.036 A  
HETATM   19  H   UNL     1      -5.506   7.904  72.219  1.00  0.00     0.000 HD 
HETATM   20  C   UNL     1      -6.828   5.277  69.611  1.00  0.00    -0.056 A  
HETATM   21  O   UNL     1      -5.541   5.622  71.579  1.00  0.00    -0.018 OA 
HETATM   22  H   UNL     1      -5.335   4.695  71.600  1.00  0.00     0.000 HD 
HETATM   23  C   UNL     1      -7.630   5.767  68.593  1.00  0.00    -0.089 A  
HETATM   24  O   UNL     1      -6.529   3.945  69.653  1.00  0.00    -0.031 OA 
HETATM   25  H   UNL     1      -6.871   3.358  68.988  1.00  0.00     0.000 HD 
HETATM   26  C   UNL     1      -7.945   7.132  68.562  1.00  0.00    -0.124 A  
ENDBRANCH  14  15
ENDBRANCH  12  14
ENDBRANCH  11  12
ENDBRANCH   3   8
TORSDOF 5
ENDMDL
MODEL      314
REMARK 921   NORMALIZED FREE ENERGY PREDICTED BY IDOCK:   -2.44 KCAL/MOL
REMARK 922        TOTAL FREE ENERGY PREDICTED BY IDOCK:   -3.60 KCAL/MOL
REMARK 923 INTER-LIGAND FREE ENERGY PREDICTED BY IDOCK:   -3.12 KCAL/MOL
REMARK 924 INTRA-LIGAND FREE ENERGY PREDICTED BY IDOCK:   -0.48 KCAL/MOL
REMARK 927      BINDING AFFINITY PREDICTED BY RF-SCORE:    0.00 PKD
ROOT
HETATM    1  N   UNL     1      -6.928   6.499  73.924  1.00  0.00    -0.081 NA 
HETATM    2  H1  UNL     1      -7.087   7.504  74.005  1.00  0.00     0.000 HD 
HETATM    3  CA  UNL     1      -6.854   6.078  72.496  1.00  0.00    -0.074 C  
HETATM    4  H2  UNL     1      -6.101   6.207  74.444  1.00  0.00     0.000 HD 
ENDROOT
BRANCH   3   5
HETATM    5  C   UNL     1      -6.616   4.567  72.373  1.00  0.00    -0.041 C  
HETATM    6  H   UNL     1      -6.926   2.972  73.481  1.00  0.00     0.000 HD 
HETATM    7  O   UNL     1      -7.074   3.906  73.557  1.00  0.00    -0.058 OA 
ENDBRANCH   3   5
BRANCH   3   8
HETATM    8  C   UNL     1      -8.125   6.490  71.747  1.00  0.00    -0.104 C  
HETATM    9  O   UNL     1      -8.952   5.693  71.305  1.00  0.00    -0.137 OA 
HETATM   10  H   UNL     1      -7.514   8.486  71.938  1.00  0.00     0.000 HD 
HETATM   11  N   UNL     1      -8.225   7.863  71.557  1.00  0.00    -0.103 N  
BRANCH  11  12
HETATM   12  N   UNL     1      -9.315   8.388  70.834  1.00  0.00    -0.158 NA 
HETATM   13  H   UNL     1      -9.763   9.153  71.338  1.00  0.00     0.000 HD 
BRANCH  12  14
HETATM   14  C   UNL     1      -8.911   8.799  69.477  1.00  0.00    -0.145 C  
BRANCH  14  15
HETATM   15  C   UNL     1      -9.410   7.836  68.420  1.00  0.00    -0.143 A  
HETATM   16  C   UNL     1      -8.775   7.643  67.185  1.00  0.00    -0.125 A  
HETATM   17  O   UNL     1      -7.625   8.303  66.818  1.00  0.00    -0.088 OA 
HETATM   18  C   UNL     1      -9.291   6.746  66.253  1.00  0.00    -0.100 A  
HETATM   19  H   UNL     1      -7.195   8.172  65.982  1.00  0.00     0.000 HD 
HETATM   20  C   UNL     1     -10.456   6.045  66.520  1.00  0.00    -0.163 A  
HETATM   21  O   UNL     1      -8.643   6.536  65.064  1.00  0.00    -0.318 OA 
HETATM   22  H   UNL     1      -8.995   5.923  64.429  1.00  0.00     0.000 HD 
HETATM   23  C   UNL     1     -11.127   6.235  67.717  1.00  0.00    -0.361 A  
HETATM   24  O   UNL     1     -10.951   5.164  65.601  1.00  0.00    -0.699 OA 
HETATM   25  H   UNL     1     -11.750   4.683  65.784  1.00  0.00     0.000 HD 
HETATM   26  C   UNL     1     -10.607   7.130  68.662  1.00  0.00    -0.217 A  
ENDBRANCH  14  15
ENDBRANCH  12  14
ENDBRANCH  11  12
ENDBRANCH   3   8
TORSDOF 5
ENDMDL
MODEL      315
REMARK 921   NORMALIZED FREE ENERGY PREDICTED BY IDOCK:   -2.31 KCAL/MOL
REMARK 922        TOTAL FREE ENERGY PREDICTED BY IDOCK:   -3.43 KCAL/MOL
REMARK 923 INTER-LIGAND FREE ENERGY PREDICTED BY IDOCK:   -2.78 KCAL/MOL
REMARK 924 INTRA-LIGAND FREE ENERGY PREDICTED BY IDOCK:   -0.65 KCAL/MOL
REMARK 927      BINDING AFFINITY PREDICTED BY RF-SCORE:    0.00 PKD
ROOT
HETATM    1  N   UNL     1      -5.210   4.496  71.622  1.00  0.00    -0.003 NA 
HETATM    2  H1  UNL     1      -5.105   4.226  70.643  1.00  0.00     0.000 HD 
HETATM    3  CA  UNL     1      -6.454   5.289  71.834  1.00  0.00    -0.040 C  
HETATM    4  H2  UNL     1      -5.172   3.685  72.240  1.00  0.00     0.000 HD 
ENDROOT
BRANCH   3   5
HETATM    5  C   UNL     1      -6.612   5.694  73.305  1.00  0.00    -0.069 C  
HETATM    6  H   UNL     1      -5.458   5.799  74.895  1.00  0.00     0.000 HD 
HETATM    7  O   UNL     1      -5.361   5.549  73.985  1.00  0.00    -0.022 OA 
ENDBRANCH   3   5
BRANCH   3   8
HETATM    8  C   UNL     1      -6.467   6.522  70.927  1.00  0.00    -0.049 C  
HETATM    9  O   UNL     1      -6.480   7.680  71.341  1.00  0.00    -0.038 OA 
HETATM   10  H   UNL     1      -6.515   5.229  69.277  1.00  0.00     0.000 HD 
HETATM   11  N   UNL     1      -6.525   6.204  69.575  1.00  0.00    -0.041 N  
BRANCH  11  12
HETATM   12  N   UNL     1      -6.599   7.237  68.619  1.00  0.00    -0.043 NA 
HETATM   13  H   UNL     1      -5.748   7.289  68.059  1.00  0.00     0.000 HD 
BRANCH  12  14
HETATM   14  C   UNL     1      -7.797   7.099  67.770  1.00  0.00    -0.114 C  
BRANCH  14  15
HETATM   15  C   UNL     1      -9.074   7.122  68.582  1.00  0.00    -0.133 A  
HETATM   16  C   UNL     1      -9.538   8.256  69.265  1.00  0.00    -0.164 A  
HETATM   17  O   UNL     1      -8.882   9.464  69.252  1.00  0.00    -0.137 OA 
HETATM   18  C   UNL     1     -10.720   8.208  70.000  1.00  0.00    -0.243 A  
HETATM   19  H   UNL     1      -9.196  10.232  69.714  1.00  0.00     0.000 HD 
HETATM   20  C   UNL     1     -11.446   7.031  70.091  1.00  0.00    -0.256 A  
HETATM   21  O   UNL     1     -11.185   9.330  70.634  1.00  0.00    -0.248 OA 
HETATM   22  H   UNL     1     -11.992   9.297  71.136  1.00  0.00     0.000 HD 
HETATM   23  C   UNL     1     -10.999   5.885  69.456  1.00  0.00    -0.438 A  
HETATM   24  O   UNL     1     -12.605   6.996  70.812  1.00  0.00    -0.567 OA 
HETATM   25  H   UNL     1     -13.104   6.189  70.874  1.00  0.00     0.000 HD 
HETATM   26  C   UNL     1      -9.816   5.929  68.706  1.00  0.00    -0.177 A  
ENDBRANCH  14  15
ENDBRANCH  12  14
ENDBRANCH  11  12
ENDBRANCH   3   8
TORSDOF 5
ENDMDL
MODEL      316
REMARK 921   NORMALIZED FREE ENERGY PREDICTED BY IDOCK:   -2.31 KCAL/MOL
REMARK 922        TOTAL FREE ENERGY PREDICTED BY IDOCK:   -3.43 KCAL/MOL
REMARK 923 INTER-LIGAND FREE ENERGY PREDICTED BY IDOCK:   -2.90 KCAL/MOL
REMARK 924 INTRA-LIGAND FREE ENERGY PREDICTED BY IDOCK:   -0.53 KCAL/MOL
REMARK 927      BINDING AFFINITY PREDICTED BY RF-SCORE:    0.00 PKD
ROOT
HETATM    1  N   UNL     1      -9.049   8.288  72.602  1.00  0.00    -0.239 NA 
HETATM    2  H1  UNL     1     -10.065   8.301  72.513  1.00  0.00     0.000 HD 
HETATM    3  CA  UNL     1      -8.395   8.929  71.426  1.00  0.00    -0.135 C  
HETATM    4  H2  UNL     1      -8.744   8.713  73.478  1.00  0.00     0.000 HD 
ENDROOT
BRANCH   3   5
HETATM    5  C   UNL     1      -6.867   8.910  71.560  1.00  0.00    -0.075 C  
HETATM    6  H   UNL     1      -5.403  10.221  71.475  1.00  0.00     0.000 HD 
HETATM    7  O   UNL     1      -6.349  10.233  71.393  1.00  0.00    -0.315 OA 
ENDBRANCH   3   5
BRANCH   3   8
HETATM    8  C   UNL     1      -8.836   8.246  70.128  1.00  0.00    -0.141 C  
HETATM    9  O   UNL     1      -9.873   7.594  70.011  1.00  0.00    -0.179 OA 
HETATM   10  H   UNL     1      -7.062   8.929  69.242  1.00  0.00     0.000 HD 
HETATM   11  N   UNL     1      -7.911   8.381  69.099  1.00  0.00    -0.103 N  
BRANCH  11  12
HETATM   12  N   UNL     1      -8.152   7.759  67.859  1.00  0.00    -0.124 NA 
HETATM   13  H   UNL     1      -8.859   8.259  67.320  1.00  0.00     0.000 HD 
BRANCH  12  14
HETATM   14  C   UNL     1      -6.906   7.591  67.090  1.00  0.00    -0.071 C  
BRANCH  14  15
HETATM   15  C   UNL     1      -6.858   8.497  65.878  1.00  0.00    -0.064 A  
HETATM   16  C   UNL     1      -7.823   8.481  64.861  1.00  0.00    -0.119 A  
HETATM   17  O   UNL     1      -8.917   7.647  64.872  1.00  0.00    -0.345 OA 
HETATM   18  C   UNL     1      -7.716   9.337  63.767  1.00  0.00    -0.117 A  
HETATM   19  H   UNL     1      -9.570   7.636  64.183  1.00  0.00     0.000 HD 
HETATM   20  C   UNL     1      -6.641  10.204  63.654  1.00  0.00    -0.122 A  
HETATM   21  O   UNL     1      -8.683   9.341  62.796  1.00  0.00    -0.217 OA 
HETATM   22  H   UNL     1      -8.610   9.926  62.051  1.00  0.00     0.000 HD 
HETATM   23  C   UNL     1      -5.654  10.222  64.625  1.00  0.00    -0.132 A  
HETATM   24  O   UNL     1      -6.548  11.042  62.580  1.00  0.00    -0.351 OA 
HETATM   25  H   UNL     1      -5.811  11.637  62.501  1.00  0.00     0.000 HD 
HETATM   26  C   UNL     1      -5.761   9.370  65.731  1.00  0.00    -0.053 A  
ENDBRANCH  14  15
ENDBRANCH  12  14
ENDBRANCH  11  12
ENDBRANCH   3   8
TORSDOF 5
ENDMDL
MODEL      317
REMARK 921   NORMALIZED FREE ENERGY PREDICTED BY IDOCK:   -2.26 KCAL/MOL
REMARK 922        TOTAL FREE ENERGY PREDICTED BY IDOCK:   -3.36 KCAL/MOL
REMARK 923 INTER-LIGAND FREE ENERGY PREDICTED BY IDOCK:   -2.81 KCAL/MOL
REMARK 924 INTRA-LIGAND FREE ENERGY PREDICTED BY IDOCK:   -0.56 KCAL/MOL
REMARK 927      BINDING AFFINITY PREDICTED BY RF-SCORE:    0.00 PKD
ROOT
HETATM    1  N   UNL     1     -12.179   8.701  72.288  1.00  0.00    -0.379 NA 
HETATM    2  H1  UNL     1     -12.283   8.696  73.303  1.00  0.00     0.000 HD 
HETATM    3  CA  UNL     1     -11.433   7.500  71.817  1.00  0.00    -0.260 C  
HETATM    4  H2  UNL     1     -13.080   8.791  71.819  1.00  0.00     0.000 HD 
ENDROOT
BRANCH   3   5
HETATM    5  C   UNL     1     -11.275   7.506  70.291  1.00  0.00    -0.236 C  
HETATM    6  H   UNL     1     -11.612   6.257  68.808  1.00  0.00     0.000 HD 
HETATM    7  O   UNL     1     -11.709   6.253  69.753  1.00  0.00    -0.403 OA 
ENDBRANCH   3   5
BRANCH   3   8
HETATM    8  C   UNL     1     -10.067   7.411  72.503  1.00  0.00    -0.192 C  
HETATM    9  O   UNL     1      -9.564   8.325  73.155  1.00  0.00    -0.255 OA 
HETATM   10  H   UNL     1      -9.869   5.477  71.716  1.00  0.00     0.000 HD 
HETATM   11  N   UNL     1      -9.414   6.207  72.265  1.00  0.00    -0.150 N  
BRANCH  11  12
HETATM   12  N   UNL     1      -8.122   6.000  72.788  1.00  0.00    -0.107 NA 
HETATM   13  H   UNL     1      -8.110   5.237  73.464  1.00  0.00     0.000 HD 
BRANCH  12  14
HETATM   14  C   UNL     1      -7.137   5.784  71.712  1.00  0.00    -0.082 C  
BRANCH  14  15
HETATM   15  C   UNL     1      -7.176   6.887  70.676  1.00  0.00    -0.069 A  
HETATM   16  C   UNL     1      -7.730   6.729  69.397  1.00  0.00    -0.105 A  
HETATM   17  O   UNL     1      -8.304   5.557  68.964  1.00  0.00    -0.100 OA 
HETATM   18  C   UNL     1      -7.728   7.783  68.487  1.00  0.00    -0.118 A  
HETATM   19  H   UNL     1      -8.679   5.450  68.098  1.00  0.00     0.000 HD 
HETATM   20  C   UNL     1      -7.156   9.001  68.820  1.00  0.00    -0.070 A  
HETATM   21  O   UNL     1      -8.304   7.632  67.253  1.00  0.00    -0.113 OA 
HETATM   22  H   UNL     1      -8.303   8.351  66.632  1.00  0.00     0.000 HD 
HETATM   23  C   UNL     1      -6.572   9.181  70.063  1.00  0.00    -0.045 A  
HETATM   24  O   UNL     1      -7.163  10.029  67.922  1.00  0.00    -0.085 OA 
HETATM   25  H   UNL     1      -6.771  10.864  68.150  1.00  0.00     0.000 HD 
HETATM   26  C   UNL     1      -6.580   8.127  70.986  1.00  0.00    -0.038 A  
ENDBRANCH  14  15
ENDBRANCH  12  14
ENDBRANCH  11  12
ENDBRANCH   3   8
TORSDOF 5
ENDMDL
MODEL      318
REMARK 921   NORMALIZED FREE ENERGY PREDICTED BY IDOCK:   -2.15 KCAL/MOL
REMARK 922        TOTAL FREE ENERGY PREDICTED BY IDOCK:   -3.23 KCAL/MOL
REMARK 923 INTER-LIGAND FREE ENERGY PREDICTED BY IDOCK:   -2.94 KCAL/MOL
REMARK 924 INTRA-LIGAND FREE ENERGY PREDICTED BY IDOCK:   -0.28 KCAL/MOL
REMARK 927      BINDING AFFINITY PREDICTED BY RF-SCORE:    0.00 PKD
ROOT
HETATM    1  N   UNL     1     -12.147   9.418  70.793  1.00  0.00    -0.431 NA 
HETATM    2  H1  UNL     1     -11.758  10.325  71.054  1.00  0.00     0.000 HD 
HETATM    3  CA  UNL     1     -11.283   8.301  71.270  1.00  0.00    -0.259 C  
HETATM    4  H2  UNL     1     -13.108   9.315  71.120  1.00  0.00     0.000 HD 
ENDROOT
BRANCH   3   5
HETATM    5  C   UNL     1     -11.868   6.938  70.878  1.00  0.00    -0.376 C  
HETATM    6  H   UNL     1     -11.373   5.455  69.685  1.00  0.00     0.000 HD 
HETATM    7  O   UNL     1     -11.011   6.298  69.928  1.00  0.00    -0.296 OA 
ENDBRANCH   3   5
BRANCH   3   8
HETATM    8  C   UNL     1      -9.858   8.456  70.732  1.00  0.00    -0.182 C  
HETATM    9  O   UNL     1      -8.852   8.072  71.328  1.00  0.00    -0.129 OA 
HETATM   10  H   UNL     1     -10.663   9.440  69.064  1.00  0.00     0.000 HD 
HETATM   11  N   UNL     1      -9.803   9.136  69.521  1.00  0.00    -0.172 N  
BRANCH  11  12
HETATM   12  N   UNL     1      -8.553   9.404  68.929  1.00  0.00    -0.128 NA 
HETATM   13  H   UNL     1      -7.802   8.898  69.396  1.00  0.00     0.000 HD 
BRANCH  12  14
HETATM   14  C   UNL     1      -8.574   9.124  67.481  1.00  0.00    -0.116 C  
BRANCH  14  15
HETATM   15  C   UNL     1      -7.781   7.884  67.130  1.00  0.00    -0.101 A  
HETATM   16  C   UNL     1      -7.867   7.234  65.890  1.00  0.00    -0.106 A  
HETATM   17  O   UNL     1      -8.672   7.671  64.865  1.00  0.00    -0.369 OA 
HETATM   18  C   UNL     1      -7.113   6.091  65.634  1.00  0.00    -0.073 A  
HETATM   19  H   UNL     1      -8.730   7.231  64.025  1.00  0.00     0.000 HD 
HETATM   20  C   UNL     1      -6.283   5.561  66.609  1.00  0.00    -0.034 A  
HETATM   21  O   UNL     1      -7.174   5.484  64.407  1.00  0.00    -0.052 OA 
HETATM   22  H   UNL     1      -6.660   4.704  64.232  1.00  0.00     0.000 HD 
HETATM   23  C   UNL     1      -6.200   6.159  67.855  1.00  0.00    -0.032 A  
HETATM   24  O   UNL     1      -5.546   4.442  66.346  1.00  0.00    -0.013 OA 
HETATM   25  H   UNL     1      -4.977   4.078  67.014  1.00  0.00     0.000 HD 
HETATM   26  C   UNL     1      -6.948   7.314  68.116  1.00  0.00    -0.076 A  
ENDBRANCH  14  15
ENDBRANCH  12  14
ENDBRANCH  11  12
ENDBRANCH   3   8
TORSDOF 5
ENDMDL
MODEL      319
REMARK 921   NORMALIZED FREE ENERGY PREDICTED BY IDOCK:   -2.13 KCAL/MOL
REMARK 922        TOTAL FREE ENERGY PREDICTED BY IDOCK:   -3.20 KCAL/MOL
REMARK 923 INTER-LIGAND FREE ENERGY PREDICTED BY IDOCK:   -3.05 KCAL/MOL
REMARK 924 INTRA-LIGAND FREE ENERGY PREDICTED BY IDOCK:   -0.15 KCAL/MOL
REMARK 927      BINDING AFFINITY PREDICTED BY RF-SCORE:    0.00 PKD
ROOT
HETATM    1  N   UNL     1      -6.941  10.067  70.009  1.00  0.00    -0.117 NA 
HETATM    2  H1  UNL     1      -7.451  10.947  69.925  1.00  0.00     0.000 HD 
HETATM    3  CA  UNL     1      -6.957   9.308  68.726  1.00  0.00    -0.061 C  
HETATM    4  H2  UNL     1      -5.989  10.216  70.345  1.00  0.00     0.000 HD 
ENDROOT
BRANCH   3   5
HETATM    5  C   UNL     1      -6.190   7.985  68.853  1.00  0.00    -0.040 C  
HETATM    6  H   UNL     1      -5.920   6.610  70.233  1.00  0.00     0.000 HD 
HETATM    7  O   UNL     1      -6.395   7.429  70.155  1.00  0.00    -0.033 OA 
ENDBRANCH   3   5
BRANCH   3   8
HETATM    8  C   UNL     1      -8.396   9.060  68.266  1.00  0.00    -0.121 C  
HETATM    9  O   UNL     1      -9.133   9.934  67.810  1.00  0.00    -0.131 OA 
HETATM   10  H   UNL     1      -8.173   7.061  68.858  1.00  0.00     0.000 HD 
HETATM   11  N   UNL     1      -8.817   7.752  68.473  1.00  0.00    -0.131 N  
BRANCH  11  12
HETATM   12  N   UNL     1     -10.139   7.386  68.149  1.00  0.00    -0.173 NA 
HETATM   13  H   UNL     1     -10.375   7.646  67.192  1.00  0.00     0.000 HD 
BRANCH  12  14
HETATM   14  C   UNL     1     -10.374   5.951  68.394  1.00  0.00    -0.210 C  
BRANCH  14  15
HETATM   15  C   UNL     1     -10.374   5.618  69.871  1.00  0.00    -0.347 A  
HETATM   16  C   UNL     1      -9.674   4.535  70.421  1.00  0.00    -0.217 A  
HETATM   17  O   UNL     1      -8.906   3.675  69.671  1.00  0.00    -0.074 OA 
HETATM   18  C   UNL     1      -9.721   4.280  71.789  1.00  0.00    -0.169 A  
HETATM   19  H   UNL     1      -8.431   2.942  70.044  1.00  0.00     0.000 HD 
HETATM   20  C   UNL     1     -10.481   5.078  72.629  1.00  0.00    -0.209 A  
HETATM   21  O   UNL     1      -9.004   3.242  72.324  1.00  0.00    -0.091 OA 
HETATM   22  H   UNL     1      -9.036   3.068  73.258  1.00  0.00     0.000 HD 
HETATM   23  C   UNL     1     -11.211   6.137  72.114  1.00  0.00    -0.335 A  
HETATM   24  O   UNL     1     -10.518   4.822  73.970  1.00  0.00    -0.225 OA 
HETATM   25  H   UNL     1     -11.039   5.369  74.546  1.00  0.00     0.000 HD 
HETATM   26  C   UNL     1     -11.159   6.404  70.739  1.00  0.00    -0.365 A  
ENDBRANCH  14  15
ENDBRANCH  12  14
ENDBRANCH  11  12
ENDBRANCH   3   8
TORSDOF 5
ENDMDL
MODEL      320
REMARK 921   NORMALIZED FREE ENERGY PREDICTED BY IDOCK:   -2.05 KCAL/MOL
REMARK 922        TOTAL FREE ENERGY PREDICTED BY IDOCK:   -3.09 KCAL/MOL
REMARK 923 INTER-LIGAND FREE ENERGY PREDICTED BY IDOCK:   -2.65 KCAL/MOL
REMARK 924 INTRA-LIGAND FREE ENERGY PREDICTED BY IDOCK:   -0.44 KCAL/MOL
REMARK 927      BINDING AFFINITY PREDICTED BY RF-SCORE:    0.00 PKD
ROOT
HETATM    1  N   UNL     1     -12.167   8.667  72.354  1.00  0.00    -0.372 NA 
HETATM    2  H1  UNL     1     -12.373   8.714  73.352  1.00  0.00     0.000 HD 
HETATM    3  CA  UNL     1     -11.453   7.404  72.010  1.00  0.00    -0.273 C  
HETATM    4  H2  UNL     1     -13.009   8.787  71.791  1.00  0.00     0.000 HD 
ENDROOT
BRANCH   3   5
HETATM    5  C   UNL     1     -11.143   7.333  70.509  1.00  0.00    -0.267 C  
HETATM    6  H   UNL     1     -11.463   6.068  69.037  1.00  0.00     0.000 HD 
HETATM    7  O   UNL     1     -11.655   6.112  69.965  1.00  0.00    -0.392 OA 
ENDBRANCH   3   5
BRANCH   3   8
HETATM    8  C   UNL     1     -10.172   7.268  72.836  1.00  0.00    -0.244 C  
HETATM    9  O   UNL     1      -9.403   8.199  73.073  1.00  0.00    -0.251 OA 
HETATM   10  H   UNL     1     -10.588   5.221  73.026  1.00  0.00     0.000 HD 
HETATM   11  N   UNL     1      -9.924   5.964  73.247  1.00  0.00    -0.174 N  
BRANCH  11  12
HETATM   12  N   UNL     1      -8.750   5.672  73.971  1.00  0.00    -0.120 NA 
HETATM   13  H   UNL     1      -8.856   5.896  74.960  1.00  0.00     0.000 HD 
BRANCH  12  14
HETATM   14  C   UNL     1      -8.332   4.272  73.775  1.00  0.00    -0.093 C  
BRANCH  14  15
HETATM   15  C   UNL     1      -7.698   4.053  72.418  1.00  0.00    -0.080 A  
HETATM   16  C   UNL     1      -8.349   3.417  71.352  1.00  0.00    -0.067 A  
HETATM   17  O   UNL     1      -9.637   2.941  71.431  1.00  0.00    -0.137 OA 
HETATM   18  C   UNL     1      -7.705   3.241  70.130  1.00  0.00    -0.043 A  
HETATM   19  H   UNL     1     -10.078   2.510  70.709  1.00  0.00     0.000 HD 
HETATM   20  C   UNL     1      -6.399   3.669  69.953  1.00  0.00    -0.028 A  
HETATM   21  O   UNL     1      -8.361   2.652  69.081  1.00  0.00    -0.057 OA 
HETATM   22  H   UNL     1      -7.922   2.532  68.247  1.00  0.00     0.000 HD 
HETATM   23  C   UNL     1      -5.715   4.272  70.996  1.00  0.00    -0.012 A  
HETATM   24  O   UNL     1      -5.778   3.495  68.749  1.00  0.00    -0.020 OA 
HETATM   25  H   UNL     1      -4.882   3.789  68.628  1.00  0.00     0.000 HD 
HETATM   26  C   UNL     1      -6.362   4.461  72.225  1.00  0.00    -0.022 A  
ENDBRANCH  14  15
ENDBRANCH  12  14
ENDBRANCH  11  12
ENDBRANCH   3   8
TORSDOF 5
ENDMDL
MODEL      321
REMARK 921   NORMALIZED FREE ENERGY PREDICTED BY IDOCK:   -2.04 KCAL/MOL
REMARK 922        TOTAL FREE ENERGY PREDICTED BY IDOCK:   -3.08 KCAL/MOL
REMARK 923 INTER-LIGAND FREE ENERGY PREDICTED BY IDOCK:   -2.57 KCAL/MOL
REMARK 924 INTRA-LIGAND FREE ENERGY PREDICTED BY IDOCK:   -0.51 KCAL/MOL
REMARK 927      BINDING AFFINITY PREDICTED BY RF-SCORE:    0.00 PKD
ROOT
HETATM    1  N   UNL     1      -5.198   4.507  71.651  1.00  0.00    -0.003 NA 
HETATM    2  H1  UNL     1      -4.993   4.339  70.666  1.00  0.00     0.000 HD 
HETATM    3  CA  UNL     1      -6.319   5.476  71.813  1.00  0.00    -0.043 C  
HETATM    4  H2  UNL     1      -5.381   3.635  72.149  1.00  0.00     0.000 HD 
ENDROOT
BRANCH   3   5
HETATM    5  C   UNL     1      -6.627   5.727  73.294  1.00  0.00    -0.073 C  
HETATM    6  H   UNL     1      -8.086   5.310  74.547  1.00  0.00     0.000 HD 
HETATM    7  O   UNL     1      -7.895   5.154  73.630  1.00  0.00    -0.101 OA 
ENDBRANCH   3   5
BRANCH   3   8
HETATM    8  C   UNL     1      -6.002   6.790  71.093  1.00  0.00    -0.036 C  
HETATM    9  O   UNL     1      -5.912   7.879  71.658  1.00  0.00    -0.035 OA 
HETATM   10  H   UNL     1      -5.971   5.720  69.290  1.00  0.00     0.000 HD 
HETATM   11  N   UNL     1      -5.886   6.643  69.716  1.00  0.00    -0.018 N  
BRANCH  11  12
HETATM   12  N   UNL     1      -5.650   7.776  68.912  1.00  0.00    -0.026 NA 
HETATM   13  H   UNL     1      -4.708   7.768  68.522  1.00  0.00     0.000 HD 
BRANCH  12  14
HETATM   14  C   UNL     1      -6.671   7.908  67.857  1.00  0.00    -0.068 C  
BRANCH  14  15
HETATM   15  C   UNL     1      -8.041   8.212  68.426  1.00  0.00    -0.128 A  
HETATM   16  C   UNL     1      -9.102   7.295  68.426  1.00  0.00    -0.135 A  
HETATM   17  O   UNL     1      -8.996   6.021  67.918  1.00  0.00    -0.120 OA 
HETATM   18  C   UNL     1     -10.340   7.642  68.960  1.00  0.00    -0.213 A  
HETATM   19  H   UNL     1      -9.715   5.400  67.918  1.00  0.00     0.000 HD 
HETATM   20  C   UNL     1     -10.554   8.908  69.480  1.00  0.00    -0.228 A  
HETATM   21  O   UNL     1     -11.360   6.727  68.989  1.00  0.00    -0.517 OA 
HETATM   22  H   UNL     1     -12.205   6.964  69.354  1.00  0.00     0.000 HD 
HETATM   23  C   UNL     1      -9.538   9.849  69.467  1.00  0.00    -0.242 A  
HETATM   24  O   UNL     1     -11.771   9.236  70.005  1.00  0.00    -0.458 OA 
HETATM   25  H   UNL     1     -11.918  10.105  70.362  1.00  0.00     0.000 HD 
HETATM   26  C   UNL     1      -8.286   9.503  68.940  1.00  0.00    -0.121 A  
ENDBRANCH  14  15
ENDBRANCH  12  14
ENDBRANCH  11  12
ENDBRANCH   3   8
TORSDOF 5
ENDMDL
MODEL      322
REMARK 921   NORMALIZED FREE ENERGY PREDICTED BY IDOCK:   -2.01 KCAL/MOL
REMARK 922        TOTAL FREE ENERGY PREDICTED BY IDOCK:   -3.05 KCAL/MOL
REMARK 923 INTER-LIGAND FREE ENERGY PREDICTED BY IDOCK:   -2.78 KCAL/MOL
REMARK 924 INTRA-LIGAND FREE ENERGY PREDICTED BY IDOCK:   -0.27 KCAL/MOL
REMARK 927      BINDING AFFINITY PREDICTED BY RF-SCORE:    0.00 PKD
ROOT
HETATM    1  N   UNL     1      -5.233   5.443  71.227  1.00  0.00    -0.008 NA 
HETATM    2  H1  UNL     1      -5.248   5.414  70.207  1.00  0.00     0.000 HD 
HETATM    3  CA  UNL     1      -6.488   6.038  71.769  1.00  0.00    -0.053 C  
HETATM    4  H2  UNL     1      -5.053   4.521  71.626  1.00  0.00     0.000 HD 
ENDROOT
BRANCH   3   5
HETATM    5  C   UNL     1      -6.467   6.082  73.302  1.00  0.00    -0.069 C  
HETATM    6  H   UNL     1      -5.465   5.201  74.748  1.00  0.00     0.000 HD 
HETATM    7  O   UNL     1      -5.478   5.174  73.799  1.00  0.00    -0.017 OA 
ENDBRANCH   3   5
BRANCH   3   8
HETATM    8  C   UNL     1      -6.714   7.437  71.188  1.00  0.00    -0.047 C  
HETATM    9  O   UNL     1      -6.686   8.471  71.855  1.00  0.00    -0.072 OA 
HETATM   10  H   UNL     1      -7.036   6.540  69.320  1.00  0.00     0.000 HD 
HETATM   11  N   UNL     1      -7.020   7.422  69.833  1.00  0.00    -0.058 N  
BRANCH  11  12
HETATM   12  N   UNL     1      -7.308   8.632  69.170  1.00  0.00    -0.074 NA 
HETATM   13  H   UNL     1      -6.762   8.730  68.315  1.00  0.00     0.000 HD 
BRANCH  12  14
HETATM   14  C   UNL     1      -8.752   8.770  68.908  1.00  0.00    -0.134 C  
BRANCH  14  15
HETATM   15  C   UNL     1      -9.118  10.169  68.460  1.00  0.00    -0.134 A  
HETATM   16  C   UNL     1     -10.324  10.488  67.820  1.00  0.00    -0.212 A  
HETATM   17  O   UNL     1     -11.301   9.559  67.549  1.00  0.00    -0.365 OA 
HETATM   18  C   UNL     1     -10.596  11.796  67.427  1.00  0.00    -0.224 A  
HETATM   19  H   UNL     1     -12.118   9.775  67.115  1.00  0.00     0.000 HD 
HETATM   20  C   UNL     1      -9.667  12.803  67.639  1.00  0.00    -0.205 A  
HETATM   21  O   UNL     1     -11.792  12.106  66.835  1.00  0.00    -0.555 OA 
HETATM   22  H   UNL     1     -11.977  12.998  66.567  1.00  0.00     0.000 HD 
HETATM   23  C   UNL     1      -8.452  12.517  68.239  1.00  0.00    -0.165 A  
HETATM   24  O   UNL     1      -9.945  14.083  67.253  1.00  0.00    -0.236 OA 
HETATM   25  H   UNL     1      -9.308  14.774  67.399  1.00  0.00     0.000 HD 
HETATM   26  C   UNL     1      -8.178  11.204  68.646  1.00  0.00    -0.152 A  
ENDBRANCH  14  15
ENDBRANCH  12  14
ENDBRANCH  11  12
ENDBRANCH   3   8
TORSDOF 5
ENDMDL
MODEL      323
REMARK 921   NORMALIZED FREE ENERGY PREDICTED BY IDOCK:   -2.00 KCAL/MOL
REMARK 922        TOTAL FREE ENERGY PREDICTED BY IDOCK:   -3.04 KCAL/MOL
REMARK 923 INTER-LIGAND FREE ENERGY PREDICTED BY IDOCK:   -2.76 KCAL/MOL
REMARK 924 INTRA-LIGAND FREE ENERGY PREDICTED BY IDOCK:   -0.27 KCAL/MOL
REMARK 927      BINDING AFFINITY PREDICTED BY RF-SCORE:    0.00 PKD
ROOT
HETATM    1  N   UNL     1      -6.943  10.021  70.010  1.00  0.00    -0.117 NA 
HETATM    2  H1  UNL     1      -7.384  10.927  69.848  1.00  0.00     0.000 HD 
HETATM    3  CA  UNL     1      -6.855   9.230  68.750  1.00  0.00    -0.060 C  
HETATM    4  H2  UNL     1      -6.029  10.124  70.452  1.00  0.00     0.000 HD 
ENDROOT
BRANCH   3   5
HETATM    5  C   UNL     1      -6.191   7.868  68.993  1.00  0.00    -0.039 C  
HETATM    6  H   UNL     1      -6.293   6.444  70.346  1.00  0.00     0.000 HD 
HETATM    7  O   UNL     1      -6.704   7.286  70.195  1.00  0.00    -0.052 OA 
ENDBRANCH   3   5
BRANCH   3   8
HETATM    8  C   UNL     1      -8.243   9.053  68.128  1.00  0.00    -0.113 C  
HETATM    9  O   UNL     1      -8.858   9.951  67.554  1.00  0.00    -0.128 OA 
HETATM   10  H   UNL     1      -8.230   7.072  68.816  1.00  0.00     0.000 HD 
HETATM   11  N   UNL     1      -8.775   7.785  68.331  1.00  0.00    -0.128 N  
BRANCH  11  12
HETATM   12  N   UNL     1     -10.071   7.490  67.863  1.00  0.00    -0.173 NA 
HETATM   13  H   UNL     1     -10.179   7.740  66.880  1.00  0.00     0.000 HD 
BRANCH  12  14
HETATM   14  C   UNL     1     -10.420   6.078  68.103  1.00  0.00    -0.236 C  
BRANCH  14  15
HETATM   15  C   UNL     1     -10.774   5.819  69.552  1.00  0.00    -0.408 A  
HETATM   16  C   UNL     1     -11.777   6.516  70.241  1.00  0.00    -0.366 A  
HETATM   17  O   UNL     1     -12.547   7.497  69.662  1.00  0.00     0.720 OA 
HETATM   18  C   UNL     1     -12.049   6.233  71.577  1.00  0.00    -0.123 A  
HETATM   19  H   UNL     1     -13.226   7.969  70.128  1.00  0.00     0.000 HD 
HETATM   20  C   UNL     1     -11.316   5.273  72.257  1.00  0.00    -0.066 A  
HETATM   21  O   UNL     1     -13.055   6.893  72.233  1.00  0.00    -0.533 OA 
HETATM   22  H   UNL     1     -13.240   6.699  73.144  1.00  0.00     0.000 HD 
HETATM   23  C   UNL     1     -10.297   4.588  71.616  1.00  0.00    -0.160 A  
HETATM   24  O   UNL     1     -11.593   5.000  73.567  1.00  0.00    -0.462 OA 
HETATM   25  H   UNL     1     -11.091   4.342  74.033  1.00  0.00     0.000 HD 
HETATM   26  C   UNL     1     -10.026   4.862  70.269  1.00  0.00    -0.321 A  
ENDBRANCH  14  15
ENDBRANCH  12  14
ENDBRANCH  11  12
ENDBRANCH   3   8
TORSDOF 5
ENDMDL
MODEL      324
REMARK 921   NORMALIZED FREE ENERGY PREDICTED BY IDOCK:   -1.96 KCAL/MOL
REMARK 922        TOTAL FREE ENERGY PREDICTED BY IDOCK:   -2.98 KCAL/MOL
REMARK 923 INTER-LIGAND FREE ENERGY PREDICTED BY IDOCK:   -2.50 KCAL/MOL
REMARK 924 INTRA-LIGAND FREE ENERGY PREDICTED BY IDOCK:   -0.48 KCAL/MOL
REMARK 927      BINDING AFFINITY PREDICTED BY RF-SCORE:    0.00 PKD
ROOT
HETATM    1  N   UNL     1      -5.448   4.855  70.478  1.00  0.00    -0.007 NA 
HETATM    2  H1  UNL     1      -5.149   4.835  69.502  1.00  0.00     0.000 HD 
HETATM    3  CA  UNL     1      -6.876   5.263  70.598  1.00  0.00    -0.051 C  
HETATM    4  H2  UNL     1      -5.272   3.963  70.941  1.00  0.00     0.000 HD 
ENDROOT
BRANCH   3   5
HETATM    5  C   UNL     1      -7.325   5.293  72.065  1.00  0.00    -0.088 C  
HETATM    6  H   UNL     1      -6.701   4.537  73.771  1.00  0.00     0.000 HD 
HETATM    7  O   UNL     1      -6.423   4.519  72.863  1.00  0.00    -0.038 OA 
ENDBRANCH   3   5
BRANCH   3   8
HETATM    8  C   UNL     1      -7.104   6.624  69.933  1.00  0.00    -0.068 C  
HETATM    9  O   UNL     1      -7.474   7.630  70.535  1.00  0.00    -0.076 OA 
HETATM   10  H   UNL     1      -6.609   5.738  68.098  1.00  0.00     0.000 HD 
HETATM   11  N   UNL     1      -6.912   6.597  68.557  1.00  0.00    -0.077 N  
BRANCH  11  12
HETATM   12  N   UNL     1      -7.140   7.763  67.799  1.00  0.00    -0.080 NA 
HETATM   13  H   UNL     1      -6.474   7.845  67.031  1.00  0.00     0.000 HD 
BRANCH  12  14
HETATM   14  C   UNL     1      -8.531   7.827  67.316  1.00  0.00    -0.118 C  
BRANCH  14  15
HETATM   15  C   UNL     1      -9.129   9.207  67.488  1.00  0.00    -0.137 A  
HETATM   16  C   UNL     1      -8.503  10.240  68.200  1.00  0.00    -0.123 A  
HETATM   17  O   UNL     1      -7.274  10.103  68.801  1.00  0.00    -0.075 OA 
HETATM   18  C   UNL     1      -9.111  11.487  68.326  1.00  0.00    -0.185 A  
HETATM   19  H   UNL     1      -6.849  10.803  69.283  1.00  0.00     0.000 HD 
HETATM   20  C   UNL     1     -10.359  11.721  67.771  1.00  0.00    -0.194 A  
HETATM   21  O   UNL     1      -8.475  12.502  68.991  1.00  0.00    -0.335 OA 
HETATM   22  H   UNL     1      -8.891  13.352  69.077  1.00  0.00     0.000 HD 
HETATM   23  C   UNL     1     -11.020  10.713  67.089  1.00  0.00    -0.312 A  
HETATM   24  O   UNL     1     -10.945  12.948  67.897  1.00  0.00    -0.227 OA 
HETATM   25  H   UNL     1     -11.801  13.109  67.516  1.00  0.00     0.000 HD 
HETATM   26  C   UNL     1     -10.408   9.460  66.951  1.00  0.00    -0.308 A  
ENDBRANCH  14  15
ENDBRANCH  12  14
ENDBRANCH  11  12
ENDBRANCH   3   8
TORSDOF 5
ENDMDL
MODEL      325
REMARK 921   NORMALIZED FREE ENERGY PREDICTED BY IDOCK:   -1.75 KCAL/MOL
REMARK 922        TOTAL FREE ENERGY PREDICTED BY IDOCK:   -2.71 KCAL/MOL
REMARK 923 INTER-LIGAND FREE ENERGY PREDICTED BY IDOCK:   -2.55 KCAL/MOL
REMARK 924 INTRA-LIGAND FREE ENERGY PREDICTED BY IDOCK:   -0.16 KCAL/MOL
REMARK 927      BINDING AFFINITY PREDICTED BY RF-SCORE:    0.00 PKD
ROOT
HETATM    1  N   UNL     1     -10.491   7.388  71.601  1.00  0.00    -0.198 NA 
HETATM    2  H1  UNL     1     -10.319   8.160  72.246  1.00  0.00     0.000 HD 
HETATM    3  CA  UNL     1      -9.475   6.310  71.766  1.00  0.00    -0.150 C  
HETATM    4  H2  UNL     1     -11.441   7.026  71.696  1.00  0.00     0.000 HD 
ENDROOT
BRANCH   3   5
HETATM    5  C   UNL     1      -9.734   5.148  70.798  1.00  0.00    -0.190 C  
HETATM    6  H   UNL     1      -8.664   3.762  69.902  1.00  0.00     0.000 HD 
HETATM    7  O   UNL     1      -8.504   4.481  70.501  1.00  0.00    -0.079 OA 
ENDBRANCH   3   5
BRANCH   3   8
HETATM    8  C   UNL     1      -8.062   6.869  71.579  1.00  0.00    -0.109 C  
HETATM    9  O   UNL     1      -7.093   6.530  72.257  1.00  0.00    -0.075 OA 
HETATM   10  H   UNL     1      -8.821   8.104  70.064  1.00  0.00     0.000 HD 
HETATM   11  N   UNL     1      -7.991   7.853  70.600  1.00  0.00    -0.095 N  
BRANCH  11  12
HETATM   12  N   UNL     1      -6.764   8.500  70.352  1.00  0.00    -0.036 NA 
HETATM   13  H   UNL     1      -5.999   8.060  70.861  1.00  0.00     0.000 HD 
BRANCH  12  14
HETATM   14  C   UNL     1      -6.479   8.575  68.907  1.00  0.00    -0.049 C  
BRANCH  14  15
HETATM   15  C   UNL     1      -7.594   9.256  68.142  1.00  0.00    -0.084 A  
HETATM   16  C   UNL     1      -8.082   8.797  66.911  1.00  0.00    -0.101 A  
HETATM   17  O   UNL     1      -7.604   7.670  66.283  1.00  0.00    -0.084 OA 
HETATM   18  C   UNL     1      -9.107   9.475  66.255  1.00  0.00    -0.163 A  
HETATM   19  H   UNL     1      -7.935   7.359  65.450  1.00  0.00     0.000 HD 
HETATM   20  C   UNL     1      -9.646  10.631  66.796  1.00  0.00    -0.169 A  
HETATM   21  O   UNL     1      -9.604   8.998  65.071  1.00  0.00    -0.438 OA 
HETATM   22  H   UNL     1     -10.303   9.461  64.624  1.00  0.00     0.000 HD 
HETATM   23  C   UNL     1      -9.164  11.131  67.995  1.00  0.00    -0.159 A  
HETATM   24  O   UNL     1     -10.653  11.287  66.147  1.00  0.00    -0.251 OA 
HETATM   25  H   UNL     1     -11.022  12.080  66.518  1.00  0.00     0.000 HD 
HETATM   26  C   UNL     1      -8.140  10.448  68.664  1.00  0.00    -0.118 A  
ENDBRANCH  14  15
ENDBRANCH  12  14
ENDBRANCH  11  12
ENDBRANCH   3   8
TORSDOF 5
ENDMDL
MODEL      326
REMARK 921   NORMALIZED FREE ENERGY PREDICTED BY IDOCK:   -0.67 KCAL/MOL
REMARK 922        TOTAL FREE ENERGY PREDICTED BY IDOCK:   -1.31 KCAL/MOL
REMARK 923 INTER-LIGAND FREE ENERGY PREDICTED BY IDOCK:   -1.59 KCAL/MOL
REMARK 924 INTRA-LIGAND FREE ENERGY PREDICTED BY IDOCK:    0.28 KCAL/MOL
REMARK 927      BINDING AFFINITY PREDICTED BY RF-SCORE:    0.00 PKD
ROOT
HETATM    1  N   UNL     1     -12.633  16.663  69.857  1.00  0.00     0.593 NA 
HETATM    2  H1  UNL     1     -11.672  16.956  69.680  1.00  0.00     0.000 HD 
HETATM    3  CA  UNL     1     -12.751  15.955  71.163  1.00  0.00    -0.291 C  
HETATM    4  H2  UNL     1     -13.281  17.449  69.797  1.00  0.00     0.000 HD 
ENDROOT
BRANCH   3   5
HETATM    5  C   UNL     1     -14.196  15.515  71.430  1.00  0.00    -0.286 C  
HETATM    6  H   UNL     1     -15.262  13.877  71.204  1.00  0.00     0.000 HD 
HETATM    7  O   UNL     1     -14.367  14.149  71.039  1.00  0.00     0.027 OA 
ENDBRANCH   3   5
BRANCH   3   8
HETATM    8  C   UNL     1     -11.800  14.756  71.212  1.00  0.00    -0.335 C  
HETATM    9  O   UNL     1     -11.157  14.428  72.209  1.00  0.00     1.001 OA 
HETATM   10  H   UNL     1     -12.234  14.411  69.190  1.00  0.00     0.000 HD 
HETATM   11  N   UNL     1     -11.683  14.102  69.991  1.00  0.00    -0.289 N  
BRANCH  11  12
HETATM   12  N   UNL     1     -10.801  13.011  69.867  1.00  0.00    -0.139 NA 
HETATM   13  H   UNL     1     -11.299  12.150  69.644  1.00  0.00     0.000 HD 
BRANCH  12  14
HETATM   14  C   UNL     1      -9.737  13.289  68.885  1.00  0.00     0.149 C  
BRANCH  14  15
HETATM   15  C   UNL     1      -9.915  14.638  68.222  1.00  0.00    -0.222 A  
HETATM   16  C   UNL     1      -9.489  15.846  68.793  1.00  0.00    -0.221 A  
HETATM   17  O   UNL     1      -8.853  15.920  70.011  1.00  0.00     0.186 OA 
HETATM   18  C   UNL     1      -9.690  17.055  68.132  1.00  0.00    -0.268 A  
HETATM   19  H   UNL     1      -8.565  16.738  70.398  1.00  0.00     0.000 HD 
HETATM   20  C   UNL     1     -10.337  17.089  66.907  1.00  0.00    -0.303 A  
HETATM   21  O   UNL     1      -9.237  18.226  68.680  1.00  0.00    -0.313 OA 
HETATM   22  H   UNL     1      -9.374  19.051  68.229  1.00  0.00     0.000 HD 
HETATM   23  C   UNL     1     -10.800  15.918  66.329  1.00  0.00    -0.200 A  
HETATM   24  O   UNL     1     -10.526  18.279  66.265  1.00  0.00    -0.399 OA 
HETATM   25  H   UNL     1     -10.969  18.303  65.425  1.00  0.00     0.000 HD 
HETATM   26  C   UNL     1     -10.592  14.698  66.986  1.00  0.00    -0.280 A  
ENDBRANCH  14  15
ENDBRANCH  12  14
ENDBRANCH  11  12
ENDBRANCH   3   8
TORSDOF 5
ENDMDL
MODEL      327
REMARK 921   NORMALIZED FREE ENERGY PREDICTED BY IDOCK:    1.80 KCAL/MOL
REMARK 922        TOTAL FREE ENERGY PREDICTED BY IDOCK:    1.87 KCAL/MOL
REMARK 923 INTER-LIGAND FREE ENERGY PREDICTED BY IDOCK:    1.66 KCAL/MOL
REMARK 924 INTRA-LIGAND FREE ENERGY PREDICTED BY IDOCK:    0.21 KCAL/MOL
REMARK 927      BINDING AFFINITY PREDICTED BY RF-SCORE:    0.00 PKD
ROOT
HETATM    1  N   UNL     1     -12.620  16.682  69.880  1.00  0.00     0.593 NA 
HETATM    2  H1  UNL     1     -11.660  17.003  69.747  1.00  0.00     0.000 HD 
HETATM    3  CA  UNL     1     -12.784  15.997  71.193  1.00  0.00    -0.054 C  
HETATM    4  H2  UNL     1     -13.288  17.445  69.768  1.00  0.00     0.000 HD 
ENDROOT
BRANCH   3   5
HETATM    5  C   UNL     1     -14.227  15.516  71.393  1.00  0.00    -0.286 C  
HETATM    6  H   UNL     1     -15.284  13.922  70.933  1.00  0.00     0.000 HD 
HETATM    7  O   UNL     1     -14.391  14.219  70.809  1.00  0.00     0.280 OA 
ENDBRANCH   3   5
BRANCH   3   8
HETATM    8  C   UNL     1     -11.800  14.831  71.319  1.00  0.00    -0.335 C  
HETATM    9  O   UNL     1     -11.224  14.526  72.362  1.00  0.00     0.531 OA 
HETATM   10  H   UNL     1     -12.067  14.470  69.270  1.00  0.00     0.000 HD 
HETATM   11  N   UNL     1     -11.569  14.181  70.112  1.00  0.00    -0.252 N  
BRANCH  11  12
HETATM   12  N   UNL     1     -10.643  13.120  70.059  1.00  0.00     0.387 NA 
HETATM   13  H   UNL     1     -10.977  12.306  70.574  1.00  0.00     0.000 HD 
BRANCH  12  14
HETATM   14  C   UNL     1     -10.299  12.776  68.667  1.00  0.00    -0.179 C  
BRANCH  14  15
HETATM   15  C   UNL     1     -11.070  13.612  67.668  1.00  0.00    -0.293 A  
HETATM   16  C   UNL     1     -10.707  14.918  67.307  1.00  0.00    -0.294 A  
HETATM   17  O   UNL     1      -9.604  15.562  67.816  1.00  0.00    -0.208 OA 
HETATM   18  C   UNL     1     -11.465  15.636  66.385  1.00  0.00     0.180 A  
HETATM   19  H   UNL     1      -9.358  16.446  67.571  1.00  0.00     0.000 HD 
HETATM   20  C   UNL     1     -12.606  15.082  65.827  1.00  0.00     0.469 A  
HETATM   21  O   UNL     1     -11.083  16.897  66.009  1.00  0.00     0.070 OA 
HETATM   22  H   UNL     1     -11.600  17.387  65.380  1.00  0.00     0.000 HD 
HETATM   23  C   UNL     1     -13.011  13.807  66.186  1.00  0.00     0.013 A  
HETATM   24  O   UNL     1     -13.340  15.793  64.921  1.00  0.00     1.240 OA 
HETATM   25  H   UNL     1     -14.123  15.414  64.538  1.00  0.00     0.000 HD 
HETATM   26  C   UNL     1     -12.247  13.076  67.106  1.00  0.00    -0.200 A  
ENDBRANCH  14  15
ENDBRANCH  12  14
ENDBRANCH  11  12
ENDBRANCH   3   8
TORSDOF 5
ENDMDL
