MODEL        1
REMARK 921   NORMALIZED FREE ENERGY PREDICTED BY IDOCK:   -6.99 KCAL/MOL
REMARK 922        TOTAL FREE ENERGY PREDICTED BY IDOCK:   -9.67 KCAL/MOL
REMARK 923 INTER-LIGAND FREE ENERGY PREDICTED BY IDOCK:   -9.03 KCAL/MOL
REMARK 924 INTRA-LIGAND FREE ENERGY PREDICTED BY IDOCK:   -0.65 KCAL/MOL
REMARK 927      BINDING AFFINITY PREDICTED BY RF-SCORE:    0.00 PKD
ROOT
HETATM    1  N   UNL     1     -12.108  15.971  72.300  1.00  0.00    -0.487 N  
HETATM    2  S   UNL     1     -13.323  14.871  71.941  1.00  0.00    -0.404 S  
HETATM    3  H1  UNL     1     -11.959  16.484  71.431  1.00  0.00     0.000 HD 
HETATM    4  H2  UNL     1     -11.626  16.100  73.189  1.00  0.00     0.000 HD 
HETATM    5  O   UNL     1     -13.534  14.146  73.173  1.00  0.00    -0.619 OA 
HETATM    6  O   UNL     1     -14.387  15.595  71.292  1.00  0.00    -0.521 OA 
ENDROOT
BRANCH   2   7
HETATM    7  C   UNL     1     -12.562  13.787  70.776  1.00  0.00    -0.340 A  
HETATM    8  C   UNL     1     -12.470  12.429  71.100  1.00  0.00    -0.323 A  
HETATM    9  C   UNL     1     -11.892  11.543  70.185  1.00  0.00    -0.356 A  
HETATM   10  C   UNL     1     -11.405  11.956  68.953  1.00  0.00    -0.278 A  
HETATM   11  N   UNL     1     -10.787  11.125  68.008  1.00  0.00    -0.207 NA 
HETATM   12  C   UNL     1     -11.513  13.320  68.645  1.00  0.00    -0.339 A  
HETATM   13  C   UNL     1     -10.753   9.839  68.129  1.00  0.00    -0.233 C  
HETATM   14  C   UNL     1     -12.087  14.237  69.542  1.00  0.00    -0.330 A  
HETATM   15  N   UNL     1     -11.335   9.138  69.189  1.00  0.00    -0.398 N  
HETATM   16  O   UNL     1     -10.720   9.682  71.540  1.00  0.00    -0.301 OA 
HETATM   17 CL   UNL     1     -12.147  15.887  69.037  1.00  0.00    -0.253 Cl 
HETATM   18  S   UNL     1     -11.800   9.855  70.599  1.00  0.00    -0.302 S  
HETATM   19  H   UNL     1     -11.479   8.133  69.086  1.00  0.00     0.000 HD 
HETATM   20  O   UNL     1     -13.140   9.391  70.880  1.00  0.00    -0.199 OA 
BRANCH  13  21
HETATM   21  C   UNL     1     -10.047   8.979  67.099  1.00  0.00    -0.243 C  
BRANCH  21  22
HETATM   22  S   UNL     1      -8.835   9.948  66.141  1.00  0.00    -0.148 SA 
BRANCH  22  23
HETATM   23  C   UNL     1      -9.681  10.095  64.527  1.00  0.00    -0.293 C  
BRANCH  23  24
HETATM   24  C   UNL     1     -10.356  11.438  64.405  1.00  0.00    -0.375 A  
HETATM   25  C   UNL     1      -9.960  12.503  65.230  1.00  0.00    -0.226 A  
HETATM   26  C   UNL     1     -10.635  13.723  65.186  1.00  0.00    -0.385 A  
HETATM   27  C   UNL     1     -11.708  13.895  64.314  1.00  0.00    -0.406 A  
HETATM   28  C   UNL     1     -12.096  12.853  63.473  1.00  0.00    -0.633 A  
HETATM   29  C   UNL     1     -11.424  11.630  63.517  1.00  0.00    -0.427 A  
ENDBRANCH  23  24
ENDBRANCH  22  23
ENDBRANCH  21  22
ENDBRANCH  13  21
ENDBRANCH   2   7
TORSDOF 5
ENDMDL
MODEL        2
REMARK 921   NORMALIZED FREE ENERGY PREDICTED BY IDOCK:   -6.98 KCAL/MOL
REMARK 922        TOTAL FREE ENERGY PREDICTED BY IDOCK:   -9.67 KCAL/MOL
REMARK 923 INTER-LIGAND FREE ENERGY PREDICTED BY IDOCK:   -9.30 KCAL/MOL
REMARK 924 INTRA-LIGAND FREE ENERGY PREDICTED BY IDOCK:   -0.37 KCAL/MOL
REMARK 927      BINDING AFFINITY PREDICTED BY RF-SCORE:    0.00 PKD
ROOT
HETATM    1  N   UNL     1     -10.696  18.388  67.070  1.00  0.00    -0.350 N  
HETATM    2  S   UNL     1     -10.251  17.110  66.079  1.00  0.00    -0.268 S  
HETATM    3  H1  UNL     1     -10.081  18.312  67.880  1.00  0.00     0.000 HD 
HETATM    4  H2  UNL     1     -11.419  19.086  66.900  1.00  0.00     0.000 HD 
HETATM    5  O   UNL     1     -11.121  17.218  64.930  1.00  0.00    -0.807 OA 
HETATM    6  O   UNL     1      -8.816  17.137  65.951  1.00  0.00    -0.520 OA 
ENDROOT
BRANCH   2   7
HETATM    7  C   UNL     1     -10.725  15.687  67.009  1.00  0.00    -0.314 A  
HETATM    8  C   UNL     1     -11.148  15.873  68.329  1.00  0.00    -0.345 A  
HETATM    9  C   UNL     1     -11.551  14.766  69.083  1.00  0.00    -0.303 A  
HETATM   10  C   UNL     1     -11.555  13.477  68.570  1.00  0.00    -0.333 A  
HETATM   11  N   UNL     1     -11.916  12.325  69.282  1.00  0.00    -0.283 NA 
HETATM   12  C   UNL     1     -11.134  13.313  67.243  1.00  0.00    -0.301 A  
HETATM   13  C   UNL     1     -12.442  12.371  70.462  1.00  0.00    -0.187 C  
HETATM   14  C   UNL     1     -10.722  14.404  66.459  1.00  0.00    -0.306 A  
HETATM   15  N   UNL     1     -12.725  13.558  71.145  1.00  0.00    -0.354 N  
HETATM   16  O   UNL     1     -10.926  15.233  71.546  1.00  0.00    -0.305 OA 
HETATM   17 CL   UNL     1     -10.220  14.056  64.843  1.00  0.00    -0.422 Cl 
HETATM   18  S   UNL     1     -12.089  15.018  70.719  1.00  0.00    -0.355 S  
HETATM   19  H   UNL     1     -13.355  13.519  71.946  1.00  0.00     0.000 HD 
HETATM   20  O   UNL     1     -13.187  15.957  70.688  1.00  0.00    -0.447 OA 
BRANCH  13  21
HETATM   21  C   UNL     1     -12.789  11.099  71.210  1.00  0.00    -0.412 C  
BRANCH  21  22
HETATM   22  S   UNL     1     -11.572   9.782  70.885  1.00  0.00    -0.389 SA 
BRANCH  22  23
HETATM   23  C   UNL     1     -12.318   8.369  71.774  1.00  0.00    -0.331 C  
BRANCH  23  24
HETATM   24  C   UNL     1     -11.619   7.085  71.405  1.00  0.00    -0.329 A  
HETATM   25  C   UNL     1     -11.219   6.187  72.408  1.00  0.00    -0.329 A  
HETATM   26  C   UNL     1     -10.496   5.039  72.085  1.00  0.00    -0.274 A  
HETATM   27  C   UNL     1     -10.170   4.771  70.757  1.00  0.00    -0.246 A  
HETATM   28  C   UNL     1     -10.582   5.642  69.750  1.00  0.00    -0.400 A  
HETATM   29  C   UNL     1     -11.304   6.793  70.071  1.00  0.00    -0.396 A  
ENDBRANCH  23  24
ENDBRANCH  22  23
ENDBRANCH  21  22
ENDBRANCH  13  21
ENDBRANCH   2   7
TORSDOF 5
ENDMDL
MODEL        3
REMARK 921   NORMALIZED FREE ENERGY PREDICTED BY IDOCK:   -6.83 KCAL/MOL
REMARK 922        TOTAL FREE ENERGY PREDICTED BY IDOCK:   -9.48 KCAL/MOL
REMARK 923 INTER-LIGAND FREE ENERGY PREDICTED BY IDOCK:   -8.61 KCAL/MOL
REMARK 924 INTRA-LIGAND FREE ENERGY PREDICTED BY IDOCK:   -0.87 KCAL/MOL
REMARK 927      BINDING AFFINITY PREDICTED BY RF-SCORE:    0.00 PKD
ROOT
HETATM    1  N   UNL     1     -14.025  16.027  73.224  1.00  0.00    -0.693 N  
HETATM    2  S   UNL     1     -12.362  15.810  73.201  1.00  0.00    -0.542 S  
HETATM    3  H1  UNL     1     -14.410  15.089  73.117  1.00  0.00     0.000 HD 
HETATM    4  H2  UNL     1     -14.538  16.903  73.324  1.00  0.00     0.000 HD 
HETATM    5  O   UNL     1     -11.818  17.140  73.354  1.00  0.00    -0.164 OA 
HETATM    6  O   UNL     1     -12.049  14.749  74.125  1.00  0.00    -0.510 OA 
ENDROOT
BRANCH   2   7
HETATM    7  C   UNL     1     -12.044  15.260  71.555  1.00  0.00    -0.359 A  
HETATM    8  C   UNL     1     -11.288  16.086  70.717  1.00  0.00    -0.427 A  
HETATM    9  C   UNL     1     -11.001  15.665  69.415  1.00  0.00    -0.283 A  
HETATM   10  C   UNL     1     -11.435  14.446  68.913  1.00  0.00    -0.289 A  
HETATM   11  N   UNL     1     -11.209  13.982  67.610  1.00  0.00    -0.286 NA 
HETATM   12  C   UNL     1     -12.186  13.630  69.771  1.00  0.00    -0.350 A  
HETATM   13  C   UNL     1     -10.423  14.587  66.781  1.00  0.00    -0.270 C  
HETATM   14  C   UNL     1     -12.492  14.024  71.085  1.00  0.00    -0.371 A  
HETATM   15  N   UNL     1      -9.704  15.746  67.091  1.00  0.00    -0.222 N  
HETATM   16  O   UNL     1     -10.890  17.772  67.924  1.00  0.00    -0.365 OA 
HETATM   17 CL   UNL     1     -13.433  12.924  72.028  1.00  0.00    -0.598 Cl 
HETATM   18  S   UNL     1     -10.045  16.699  68.392  1.00  0.00    -0.285 S  
HETATM   19  H   UNL     1      -8.932  16.016  66.482  1.00  0.00     0.000 HD 
HETATM   20  O   UNL     1      -8.791  16.953  69.062  1.00  0.00    -0.247 OA 
BRANCH  13  21
HETATM   21  C   UNL     1     -10.231  14.068  65.370  1.00  0.00    -0.347 C  
BRANCH  21  22
HETATM   22  S   UNL     1     -11.336  12.660  65.022  1.00  0.00    -0.322 SA 
BRANCH  22  23
HETATM   23  C   UNL     1     -10.192  11.245  65.206  1.00  0.00    -0.274 C  
BRANCH  23  24
HETATM   24  C   UNL     1     -10.003  10.905  66.663  1.00  0.00    -0.250 A  
HETATM   25  C   UNL     1     -11.115  10.608  67.468  1.00  0.00    -0.367 A  
HETATM   26  C   UNL     1     -10.960  10.377  68.834  1.00  0.00    -0.289 A  
HETATM   27  C   UNL     1      -9.692  10.434  69.412  1.00  0.00    -0.222 A  
HETATM   28  C   UNL     1      -8.578  10.704  68.620  1.00  0.00    -0.144 A  
HETATM   29  C   UNL     1      -8.731  10.938  67.252  1.00  0.00    -0.131 A  
ENDBRANCH  23  24
ENDBRANCH  22  23
ENDBRANCH  21  22
ENDBRANCH  13  21
ENDBRANCH   2   7
TORSDOF 5
ENDMDL
MODEL        4
REMARK 921   NORMALIZED FREE ENERGY PREDICTED BY IDOCK:   -6.81 KCAL/MOL
REMARK 922        TOTAL FREE ENERGY PREDICTED BY IDOCK:   -9.44 KCAL/MOL
REMARK 923 INTER-LIGAND FREE ENERGY PREDICTED BY IDOCK:   -8.86 KCAL/MOL
REMARK 924 INTRA-LIGAND FREE ENERGY PREDICTED BY IDOCK:   -0.58 KCAL/MOL
REMARK 927      BINDING AFFINITY PREDICTED BY RF-SCORE:    0.00 PKD
ROOT
HETATM    1  N   UNL     1     -11.163   7.052  73.364  1.00  0.00    -0.535 N  
HETATM    2  S   UNL     1     -11.763   6.822  71.815  1.00  0.00    -0.328 S  
HETATM    3  H1  UNL     1     -11.834   7.676  73.811  1.00  0.00     0.000 HD 
HETATM    4  H2  UNL     1     -10.316   6.654  73.770  1.00  0.00     0.000 HD 
HETATM    5  O   UNL     1     -10.813   5.936  71.182  1.00  0.00    -0.257 OA 
HETATM    6  O   UNL     1     -13.158   6.481  71.935  1.00  0.00    -0.236 OA 
ENDROOT
BRANCH   2   7
HETATM    7  C   UNL     1     -11.617   8.419  71.079  1.00  0.00    -0.275 A  
HETATM    8  C   UNL     1     -10.578   8.632  70.167  1.00  0.00    -0.235 A  
HETATM    9  C   UNL     1     -10.451   9.882  69.551  1.00  0.00    -0.241 A  
HETATM   10  C   UNL     1     -11.326  10.929  69.803  1.00  0.00    -0.301 A  
HETATM   11  N   UNL     1     -11.233  12.211  69.244  1.00  0.00    -0.245 NA 
HETATM   12  C   UNL     1     -12.364  10.692  70.715  1.00  0.00    -0.472 A  
HETATM   13  C   UNL     1     -10.402  12.501  68.299  1.00  0.00    -0.236 C  
HETATM   14  C   UNL     1     -12.518   9.449  71.353  1.00  0.00    -0.352 A  
HETATM   15  N   UNL     1      -9.524  11.578  67.720  1.00  0.00    -0.164 N  
HETATM   16  O   UNL     1      -7.934  10.297  69.145  1.00  0.00    -0.112 OA 
HETATM   17 CL   UNL     1     -13.836   9.300  72.460  1.00  0.00    -0.496 Cl 
HETATM   18  S   UNL     1      -9.162  10.124  68.407  1.00  0.00    -0.136 S  
HETATM   19  H   UNL     1      -9.087  11.816  66.830  1.00  0.00     0.000 HD 
HETATM   20  O   UNL     1      -9.294   9.128  67.368  1.00  0.00    -0.132 OA 
BRANCH  13  21
HETATM   21  C   UNL     1     -10.314  13.909  67.744  1.00  0.00    -0.240 C  
BRANCH  21  22
HETATM   22  S   UNL     1     -10.141  15.141  69.076  1.00  0.00    -0.252 SA 
BRANCH  22  23
HETATM   23  C   UNL     1     -11.878  15.659  69.320  1.00  0.00    -0.363 C  
BRANCH  23  24
HETATM   24  C   UNL     1     -12.310  15.407  70.742  1.00  0.00    -0.447 A  
HETATM   25  C   UNL     1     -11.765  16.167  71.790  1.00  0.00    -0.568 A  
HETATM   26  C   UNL     1     -12.093  15.885  73.116  1.00  0.00    -0.611 A  
HETATM   27  C   UNL     1     -12.971  14.844  73.410  1.00  0.00    -0.597 A  
HETATM   28  C   UNL     1     -13.537  14.097  72.378  1.00  0.00    -0.632 A  
HETATM   29  C   UNL     1     -13.209  14.376  71.050  1.00  0.00    -0.395 A  
ENDBRANCH  23  24
ENDBRANCH  22  23
ENDBRANCH  21  22
ENDBRANCH  13  21
ENDBRANCH   2   7
TORSDOF 5
ENDMDL
MODEL        5
REMARK 921   NORMALIZED FREE ENERGY PREDICTED BY IDOCK:   -6.79 KCAL/MOL
REMARK 922        TOTAL FREE ENERGY PREDICTED BY IDOCK:   -9.42 KCAL/MOL
REMARK 923 INTER-LIGAND FREE ENERGY PREDICTED BY IDOCK:   -8.48 KCAL/MOL
REMARK 924 INTRA-LIGAND FREE ENERGY PREDICTED BY IDOCK:   -0.95 KCAL/MOL
REMARK 927      BINDING AFFINITY PREDICTED BY RF-SCORE:    0.00 PKD
ROOT
HETATM    1  N   UNL     1     -13.758   9.299  70.731  1.00  0.00    -0.494 N  
HETATM    2  S   UNL     1     -12.556  10.069  71.612  1.00  0.00    -0.434 S  
HETATM    3  H1  UNL     1     -13.286   8.959  69.893  1.00  0.00     0.000 HD 
HETATM    4  H2  UNL     1     -14.741   9.193  70.977  1.00  0.00     0.000 HD 
HETATM    5  O   UNL     1     -13.225  10.550  72.799  1.00  0.00     0.292 OA 
HETATM    6  O   UNL     1     -11.428   9.174  71.683  1.00  0.00    -0.333 OA 
ENDROOT
BRANCH   2   7
HETATM    7  C   UNL     1     -12.135  11.455  70.605  1.00  0.00    -0.372 A  
HETATM    8  C   UNL     1     -12.342  12.737  71.126  1.00  0.00    -0.247 A  
HETATM    9  C   UNL     1     -11.997  13.854  70.359  1.00  0.00    -0.323 A  
HETATM   10  C   UNL     1     -11.444  13.744  69.091  1.00  0.00    -0.298 A  
HETATM   11  N   UNL     1     -11.107  14.823  68.261  1.00  0.00    -0.263 NA 
HETATM   12  C   UNL     1     -11.238  12.452  68.590  1.00  0.00    -0.314 A  
HETATM   13  C   UNL     1     -11.131  16.049  68.668  1.00  0.00    -0.349 C  
HETATM   14  C   UNL     1     -11.576  11.308  69.334  1.00  0.00    -0.321 A  
HETATM   15  N   UNL     1     -11.473  16.434  69.968  1.00  0.00    -0.390 N  
HETATM   16  O   UNL     1     -13.656  15.744  70.947  1.00  0.00    -0.538 OA 
HETATM   17 CL   UNL     1     -11.276   9.778  68.591  1.00  0.00    -0.132 Cl 
HETATM   18  S   UNL     1     -12.248  15.440  71.030  1.00  0.00    -0.417 S  
HETATM   19  H   UNL     1     -11.231  17.377  70.275  1.00  0.00     0.000 HD 
HETATM   20  O   UNL     1     -11.522  15.517  72.278  1.00  0.00    -0.433 OA 
BRANCH  13  21
HETATM   21  C   UNL     1     -10.788  17.188  67.728  1.00  0.00    -0.270 C  
BRANCH  21  22
HETATM   22  S   UNL     1      -9.759  16.616  66.336  1.00  0.00    -0.303 SA 
BRANCH  22  23
HETATM   23  C   UNL     1     -11.028  16.249  65.072  1.00  0.00    -0.298 C  
BRANCH  23  24
HETATM   24  C   UNL     1     -11.232  14.761  64.945  1.00  0.00    -0.411 A  
HETATM   25  C   UNL     1     -12.531  14.228  64.900  1.00  0.00    -0.403 A  
HETATM   26  C   UNL     1     -12.731  12.848  64.870  1.00  0.00    -0.474 A  
HETATM   27  C   UNL     1     -11.637  11.985  64.878  1.00  0.00    -0.332 A  
HETATM   28  C   UNL     1     -10.343  12.501  64.898  1.00  0.00    -0.323 A  
HETATM   29  C   UNL     1     -10.140  13.882  64.931  1.00  0.00    -0.294 A  
ENDBRANCH  23  24
ENDBRANCH  22  23
ENDBRANCH  21  22
ENDBRANCH  13  21
ENDBRANCH   2   7
TORSDOF 5
ENDMDL
MODEL        6
REMARK 921   NORMALIZED FREE ENERGY PREDICTED BY IDOCK:   -6.77 KCAL/MOL
REMARK 922        TOTAL FREE ENERGY PREDICTED BY IDOCK:   -9.40 KCAL/MOL
REMARK 923 INTER-LIGAND FREE ENERGY PREDICTED BY IDOCK:   -8.21 KCAL/MOL
REMARK 924 INTRA-LIGAND FREE ENERGY PREDICTED BY IDOCK:   -1.19 KCAL/MOL
REMARK 927      BINDING AFFINITY PREDICTED BY RF-SCORE:    0.00 PKD
ROOT
HETATM    1  N   UNL     1     -11.487  16.475  70.328  1.00  0.00    -0.429 N  
HETATM    2  S   UNL     1     -12.382  15.443  71.302  1.00  0.00    -0.427 S  
HETATM    3  H1  UNL     1     -11.967  16.462  69.429  1.00  0.00     0.000 HD 
HETATM    4  H2  UNL     1     -10.650  17.000  70.580  1.00  0.00     0.000 HD 
HETATM    5  O   UNL     1     -11.702  15.462  72.577  1.00  0.00    -0.424 OA 
HETATM    6  O   UNL     1     -13.768  15.815  71.172  1.00  0.00    -0.560 OA 
ENDROOT
BRANCH   2   7
HETATM    7  C   UNL     1     -12.133  13.862  70.558  1.00  0.00    -0.356 A  
HETATM    8  C   UNL     1     -11.358  13.795  69.395  1.00  0.00    -0.306 A  
HETATM    9  C   UNL     1     -11.125  12.552  68.796  1.00  0.00    -0.270 A  
HETATM   10  C   UNL     1     -11.631  11.369  69.316  1.00  0.00    -0.317 A  
HETATM   11  N   UNL     1     -11.460  10.099  68.746  1.00  0.00    -0.115 NA 
HETATM   12  C   UNL     1     -12.399  11.458  70.485  1.00  0.00    -0.439 A  
HETATM   13  C   UNL     1     -10.667   9.883  67.749  1.00  0.00    -0.277 C  
HETATM   14  C   UNL     1     -12.653  12.691  71.110  1.00  0.00    -0.258 A  
HETATM   15  N   UNL     1      -9.884  10.873  67.145  1.00  0.00    -0.181 N  
HETATM   16  O   UNL     1     -10.948  12.938  66.248  1.00  0.00    -0.275 OA 
HETATM   17 CL   UNL     1     -13.623  12.654  72.539  1.00  0.00    -0.485 Cl 
HETATM   18  S   UNL     1     -10.146  12.486  67.360  1.00  0.00    -0.211 S  
HETATM   19  H   UNL     1      -9.115  10.582  66.542  1.00  0.00     0.000 HD 
HETATM   20  O   UNL     1      -8.863  13.078  67.666  1.00  0.00    -0.169 OA 
BRANCH  13  21
HETATM   21  C   UNL     1     -10.536   8.499  67.145  1.00  0.00    -0.299 C  
BRANCH  21  22
HETATM   22  S   UNL     1      -9.112   7.600  67.842  1.00  0.00    -0.133 SA 
BRANCH  22  23
HETATM   23  C   UNL     1      -9.946   6.342  68.874  1.00  0.00    -0.153 C  
BRANCH  23  24
HETATM   24  C   UNL     1     -10.537   6.978  70.107  1.00  0.00    -0.249 A  
HETATM   25  C   UNL     1     -11.870   6.716  70.465  1.00  0.00    -0.430 A  
HETATM   26  C   UNL     1     -12.452   7.366  71.553  1.00  0.00    -0.394 A  
HETATM   27  C   UNL     1     -11.708   8.279  72.299  1.00  0.00    -0.453 A  
HETATM   28  C   UNL     1     -10.378   8.530  71.968  1.00  0.00    -0.408 A  
HETATM   29  C   UNL     1      -9.794   7.883  70.877  1.00  0.00    -0.192 A  
ENDBRANCH  23  24
ENDBRANCH  22  23
ENDBRANCH  21  22
ENDBRANCH  13  21
ENDBRANCH   2   7
TORSDOF 5
ENDMDL
MODEL        7
REMARK 921   NORMALIZED FREE ENERGY PREDICTED BY IDOCK:   -6.75 KCAL/MOL
REMARK 922        TOTAL FREE ENERGY PREDICTED BY IDOCK:   -9.37 KCAL/MOL
REMARK 923 INTER-LIGAND FREE ENERGY PREDICTED BY IDOCK:   -9.02 KCAL/MOL
REMARK 924 INTRA-LIGAND FREE ENERGY PREDICTED BY IDOCK:   -0.35 KCAL/MOL
REMARK 927      BINDING AFFINITY PREDICTED BY RF-SCORE:    0.00 PKD
ROOT
HETATM    1  N   UNL     1     -10.862  19.546  67.233  1.00  0.00    -0.491 N  
HETATM    2  S   UNL     1     -10.157  18.697  65.970  1.00  0.00    -0.210 S  
HETATM    3  H1  UNL     1     -10.215  19.432  68.013  1.00  0.00     0.000 HD 
HETATM    4  H2  UNL     1     -11.741  20.062  67.223  1.00  0.00     0.000 HD 
HETATM    5  O   UNL     1     -11.073  18.859  64.864  1.00  0.00    -0.364 OA 
HETATM    6  O   UNL     1      -8.779  19.111  65.884  1.00  0.00    -0.450 OA 
ENDROOT
BRANCH   2   7
HETATM    7  C   UNL     1     -10.227  17.020  66.515  1.00  0.00    -0.320 A  
HETATM    8  C   UNL     1     -11.004  16.119  65.780  1.00  0.00    -0.104 A  
HETATM    9  C   UNL     1     -11.060  14.779  66.176  1.00  0.00    -0.339 A  
HETATM   10  C   UNL     1     -10.364  14.297  67.276  1.00  0.00    -0.260 A  
HETATM   11  N   UNL     1     -10.404  12.975  67.741  1.00  0.00    -0.222 NA 
HETATM   12  C   UNL     1      -9.586  15.215  67.994  1.00  0.00    -0.204 A  
HETATM   13  C   UNL     1     -10.979  12.023  67.085  1.00  0.00    -0.270 C  
HETATM   14  C   UNL     1      -9.509  16.569  67.624  1.00  0.00    -0.225 A  
HETATM   15  N   UNL     1     -11.602  12.194  65.844  1.00  0.00    -0.384 N  
HETATM   16  O   UNL     1     -13.407  13.887  65.571  1.00  0.00    -0.662 OA 
HETATM   17 CL   UNL     1      -8.520  17.590  68.605  1.00  0.00    -0.276 Cl 
HETATM   18  S   UNL     1     -12.019  13.669  65.240  1.00  0.00    -0.401 S  
HETATM   19  H   UNL     1     -11.808  11.365  65.287  1.00  0.00     0.000 HD 
HETATM   20  O   UNL     1     -11.545  13.709  63.875  1.00  0.00    -0.356 OA 
BRANCH  13  21
HETATM   21  C   UNL     1     -11.026  10.613  67.640  1.00  0.00    -0.310 C  
BRANCH  21  22
HETATM   22  S   UNL     1     -10.571  10.577  69.406  1.00  0.00    -0.246 SA 
BRANCH  22  23
HETATM   23  C   UNL     1     -12.214  10.645  70.206  1.00  0.00    -0.334 C  
BRANCH  23  24
HETATM   24  C   UNL     1     -12.418  11.978  70.880  1.00  0.00    -0.384 A  
HETATM   25  C   UNL     1     -13.274  12.084  71.989  1.00  0.00    -0.481 A  
HETATM   26  C   UNL     1     -13.537  13.326  72.566  1.00  0.00    -0.637 A  
HETATM   27  C   UNL     1     -12.944  14.476  72.046  1.00  0.00    -0.417 A  
HETATM   28  C   UNL     1     -12.075  14.381  70.960  1.00  0.00    -0.417 A  
HETATM   29  C   UNL     1     -11.812  13.139  70.379  1.00  0.00    -0.259 A  
ENDBRANCH  23  24
ENDBRANCH  22  23
ENDBRANCH  21  22
ENDBRANCH  13  21
ENDBRANCH   2   7
TORSDOF 5
ENDMDL
MODEL        8
REMARK 921   NORMALIZED FREE ENERGY PREDICTED BY IDOCK:   -6.71 KCAL/MOL
REMARK 922        TOTAL FREE ENERGY PREDICTED BY IDOCK:   -9.32 KCAL/MOL
REMARK 923 INTER-LIGAND FREE ENERGY PREDICTED BY IDOCK:   -9.00 KCAL/MOL
REMARK 924 INTRA-LIGAND FREE ENERGY PREDICTED BY IDOCK:   -0.31 KCAL/MOL
REMARK 927      BINDING AFFINITY PREDICTED BY RF-SCORE:    0.00 PKD
ROOT
HETATM    1  N   UNL     1     -14.073  16.192  73.391  1.00  0.00    -0.592 N  
HETATM    2  S   UNL     1     -12.436  15.838  73.296  1.00  0.00    -0.572 S  
HETATM    3  H1  UNL     1     -14.539  15.291  73.277  1.00  0.00     0.000 HD 
HETATM    4  H2  UNL     1     -14.507  17.104  73.531  1.00  0.00     0.000 HD 
HETATM    5  O   UNL     1     -11.777  17.114  73.458  1.00  0.00    -0.117 OA 
HETATM    6  O   UNL     1     -12.179  14.730  74.182  1.00  0.00    -0.533 OA 
ENDROOT
BRANCH   2   7
HETATM    7  C   UNL     1     -12.228  15.308  71.626  1.00  0.00    -0.365 A  
HETATM    8  C   UNL     1     -11.445  16.095  70.776  1.00  0.00    -0.408 A  
HETATM    9  C   UNL     1     -11.244  15.687  69.454  1.00  0.00    -0.313 A  
HETATM   10  C   UNL     1     -11.789  14.518  68.944  1.00  0.00    -0.324 A  
HETATM   11  N   UNL     1     -11.652  14.072  67.622  1.00  0.00    -0.333 NA 
HETATM   12  C   UNL     1     -12.565  13.739  69.814  1.00  0.00    -0.083 A  
HETATM   13  C   UNL     1     -10.857  14.637  66.775  1.00  0.00    -0.312 C  
HETATM   14  C   UNL     1     -12.788  14.122  71.148  1.00  0.00    -0.360 A  
HETATM   15  N   UNL     1     -10.040  15.730  67.080  1.00  0.00    -0.247 N  
HETATM   16  O   UNL     1     -11.032  17.817  68.007  1.00  0.00    -0.297 OA 
HETATM   17 CL   UNL     1     -13.771  13.072  72.106  1.00  0.00    -0.587 Cl 
HETATM   18  S   UNL     1     -10.254  16.672  68.416  1.00  0.00    -0.303 S  
HETATM   19  H   UNL     1      -9.274  15.956  66.445  1.00  0.00     0.000 HD 
HETATM   20  O   UNL     1      -8.958  16.814  69.038  1.00  0.00    -0.257 OA 
BRANCH  13  21
HETATM   21  C   UNL     1     -10.762  14.140  65.346  1.00  0.00    -0.342 C  
BRANCH  21  22
HETATM   22  S   UNL     1     -11.882  12.731  65.054  1.00  0.00    -0.407 SA 
BRANCH  22  23
HETATM   23  C   UNL     1     -11.151  11.992  63.550  1.00  0.00    -0.443 C  
BRANCH  23  24
HETATM   24  C   UNL     1     -10.137  10.938  63.919  1.00  0.00    -0.422 A  
HETATM   25  C   UNL     1      -9.302  10.388  62.933  1.00  0.00    -0.342 A  
HETATM   26  C   UNL     1      -8.421   9.353  63.246  1.00  0.00    -0.202 A  
HETATM   27  C   UNL     1      -8.361   8.859  64.548  1.00  0.00    -0.178 A  
HETATM   28  C   UNL     1      -9.168   9.412  65.541  1.00  0.00    -0.292 A  
HETATM   29  C   UNL     1     -10.053  10.447  65.229  1.00  0.00    -0.370 A  
ENDBRANCH  23  24
ENDBRANCH  22  23
ENDBRANCH  21  22
ENDBRANCH  13  21
ENDBRANCH   2   7
TORSDOF 5
ENDMDL
MODEL        9
REMARK 921   NORMALIZED FREE ENERGY PREDICTED BY IDOCK:   -6.65 KCAL/MOL
REMARK 922        TOTAL FREE ENERGY PREDICTED BY IDOCK:   -9.25 KCAL/MOL
REMARK 923 INTER-LIGAND FREE ENERGY PREDICTED BY IDOCK:   -8.69 KCAL/MOL
REMARK 924 INTRA-LIGAND FREE ENERGY PREDICTED BY IDOCK:   -0.56 KCAL/MOL
REMARK 927      BINDING AFFINITY PREDICTED BY RF-SCORE:    0.00 PKD
ROOT
HETATM    1  N   UNL     1      -9.658   9.881  62.829  1.00  0.00    -0.548 N  
HETATM    2  S   UNL     1      -8.507   9.765  64.044  1.00  0.00    -0.200 S  
HETATM    3  H1  UNL     1      -9.480  10.785  62.390  1.00  0.00     0.000 HD 
HETATM    4  H2  UNL     1     -10.375   9.200  62.582  1.00  0.00     0.000 HD 
HETATM    5  O   UNL     1      -8.760   8.485  64.665  1.00  0.00    -0.118 OA 
HETATM    6  O   UNL     1      -7.229  10.092  63.465  1.00  0.00    -0.131 OA 
ENDROOT
BRANCH   2   7
HETATM    7  C   UNL     1      -8.976  11.037  65.173  1.00  0.00    -0.145 A  
HETATM    8  C   UNL     1     -10.104  11.807  64.869  1.00  0.00    -0.298 A  
HETATM    9  C   UNL     1     -10.512  12.808  65.757  1.00  0.00    -0.276 A  
HETATM   10  C   UNL     1      -9.842  13.068  66.944  1.00  0.00    -0.240 A  
HETATM   11  N   UNL     1     -10.182  14.076  67.859  1.00  0.00    -0.236 NA 
HETATM   12  C   UNL     1      -8.719  12.281  67.234  1.00  0.00    -0.188 A  
HETATM   13  C   UNL     1     -11.267  14.769  67.760  1.00  0.00    -0.313 C  
HETATM   14  C   UNL     1      -8.282  11.269  66.362  1.00  0.00    -0.150 A  
HETATM   15  N   UNL     1     -12.223  14.585  66.756  1.00  0.00    -0.474 N  
HETATM   16  O   UNL     1     -11.563  14.708  64.358  1.00  0.00    -0.367 OA 
HETATM   17 CL   UNL     1      -6.878  10.383  66.840  1.00  0.00    -0.084 Cl 
HETATM   18  S   UNL     1     -11.926  13.745  65.370  1.00  0.00    -0.404 S  
HETATM   19  H   UNL     1     -13.150  14.992  66.888  1.00  0.00     0.000 HD 
HETATM   20  O   UNL     1     -13.032  12.832  65.192  1.00  0.00    -0.768 OA 
BRANCH  13  21
HETATM   21  C   UNL     1     -11.580  15.870  68.754  1.00  0.00    -0.386 C  
BRANCH  21  22
HETATM   22  S   UNL     1     -11.188  15.360  70.460  1.00  0.00    -0.353 SA 
BRANCH  22  23
HETATM   23  C   UNL     1     -12.768  14.605  70.986  1.00  0.00    -0.339 C  
BRANCH  23  24
HETATM   24  C   UNL     1     -12.659  13.101  70.991  1.00  0.00    -0.397 A  
HETATM   25  C   UNL     1     -13.319  12.350  71.977  1.00  0.00    -0.511 A  
HETATM   26  C   UNL     1     -13.155  10.966  72.043  1.00  0.00    -0.462 A  
HETATM   27  C   UNL     1     -12.335  10.317  71.121  1.00  0.00    -0.501 A  
HETATM   28  C   UNL     1     -11.694  11.048  70.123  1.00  0.00    -0.442 A  
HETATM   29  C   UNL     1     -11.854  12.434  70.057  1.00  0.00    -0.363 A  
ENDBRANCH  23  24
ENDBRANCH  22  23
ENDBRANCH  21  22
ENDBRANCH  13  21
ENDBRANCH   2   7
TORSDOF 5
ENDMDL
MODEL       10
REMARK 921   NORMALIZED FREE ENERGY PREDICTED BY IDOCK:   -6.62 KCAL/MOL
REMARK 922        TOTAL FREE ENERGY PREDICTED BY IDOCK:   -9.20 KCAL/MOL
REMARK 923 INTER-LIGAND FREE ENERGY PREDICTED BY IDOCK:   -8.42 KCAL/MOL
REMARK 924 INTRA-LIGAND FREE ENERGY PREDICTED BY IDOCK:   -0.79 KCAL/MOL
REMARK 927      BINDING AFFINITY PREDICTED BY RF-SCORE:    0.00 PKD
ROOT
HETATM    1  N   UNL     1     -11.395  11.527  63.193  1.00  0.00    -0.848 N  
HETATM    2  S   UNL     1     -11.971  12.573  64.371  1.00  0.00    -0.430 S  
HETATM    3  H1  UNL     1     -11.796  10.621  63.434  1.00  0.00     0.000 HD 
HETATM    4  H2  UNL     1     -10.782  11.748  62.409  1.00  0.00     0.000 HD 
HETATM    5  O   UNL     1     -11.404  13.857  64.029  1.00  0.00    -0.270 OA 
HETATM    6  O   UNL     1     -13.395  12.372  64.473  1.00  0.00    -0.800 OA 
ENDROOT
BRANCH   2   7
HETATM    7  C   UNL     1     -11.195  11.993  65.846  1.00  0.00    -0.337 A  
HETATM    8  C   UNL     1     -10.465  10.802  65.783  1.00  0.00    -0.256 A  
HETATM    9  C   UNL     1      -9.820  10.330  66.932  1.00  0.00    -0.197 A  
HETATM   10  C   UNL     1      -9.870  11.005  68.143  1.00  0.00    -0.176 A  
HETATM   11  N   UNL     1      -9.274  10.569  69.335  1.00  0.00    -0.155 NA 
HETATM   12  C   UNL     1     -10.601  12.200  68.183  1.00  0.00    -0.236 A  
HETATM   13  C   UNL     1      -8.471   9.557  69.383  1.00  0.00    -0.146 C  
HETATM   14  C   UNL     1     -11.262  12.700  67.048  1.00  0.00    -0.300 A  
HETATM   15  N   UNL     1      -8.096   8.804  68.267  1.00  0.00    -0.113 N  
HETATM   16  O   UNL     1      -9.831   7.749  66.825  1.00  0.00    -0.207 OA 
HETATM   17 CL   UNL     1     -12.133  14.179  67.243  1.00  0.00    -0.448 Cl 
HETATM   18  S   UNL     1      -8.903   8.855  66.830  1.00  0.00    -0.129 S  
HETATM   19  H   UNL     1      -7.283   8.192  68.345  1.00  0.00     0.000 HD 
HETATM   20  O   UNL     1      -7.906   9.019  65.798  1.00  0.00    -0.096 OA 
BRANCH  13  21
HETATM   21  C   UNL     1      -7.873   9.101  70.699  1.00  0.00    -0.146 C  
BRANCH  21  22
HETATM   22  S   UNL     1      -9.168   8.629  71.893  1.00  0.00    -0.256 SA 
BRANCH  22  23
HETATM   23  C   UNL     1     -10.324   7.697  70.826  1.00  0.00    -0.203 C  
BRANCH  23  24
HETATM   24  C   UNL     1     -11.750   8.084  71.127  1.00  0.00    -0.307 A  
HETATM   25  C   UNL     1     -12.079   9.428  71.371  1.00  0.00    -0.442 A  
HETATM   26  C   UNL     1     -13.377   9.785  71.736  1.00  0.00    -0.506 A  
HETATM   27  C   UNL     1     -14.362   8.806  71.855  1.00  0.00    -0.441 A  
HETATM   28  C   UNL     1     -14.053   7.472  71.593  1.00  0.00    -0.562 A  
HETATM   29  C   UNL     1     -12.754   7.112  71.231  1.00  0.00    -0.412 A  
ENDBRANCH  23  24
ENDBRANCH  22  23
ENDBRANCH  21  22
ENDBRANCH  13  21
ENDBRANCH   2   7
TORSDOF 5
ENDMDL
MODEL       11
REMARK 921   NORMALIZED FREE ENERGY PREDICTED BY IDOCK:   -6.60 KCAL/MOL
REMARK 922        TOTAL FREE ENERGY PREDICTED BY IDOCK:   -9.18 KCAL/MOL
REMARK 923 INTER-LIGAND FREE ENERGY PREDICTED BY IDOCK:   -8.57 KCAL/MOL
REMARK 924 INTRA-LIGAND FREE ENERGY PREDICTED BY IDOCK:   -0.61 KCAL/MOL
REMARK 927      BINDING AFFINITY PREDICTED BY RF-SCORE:    0.00 PKD
ROOT
HETATM    1  N   UNL     1     -13.938  15.527  71.141  1.00  0.00    -0.778 N  
HETATM    2  S   UNL     1     -13.170  14.254  71.920  1.00  0.00    -0.407 S  
HETATM    3  H1  UNL     1     -14.742  15.100  70.681  1.00  0.00     0.000 HD 
HETATM    4  H2  UNL     1     -13.664  16.508  71.132  1.00  0.00     0.000 HD 
HETATM    5  O   UNL     1     -12.032  14.860  72.573  1.00  0.00    -0.329 OA 
HETATM    6  O   UNL     1     -14.172  13.526  72.656  1.00  0.00    -0.751 OA 
ENDROOT
BRANCH   2   7
HETATM    7  C   UNL     1     -12.585  13.255  70.588  1.00  0.00    -0.231 A  
HETATM    8  C   UNL     1     -12.136  13.896  69.429  1.00  0.00    -0.384 A  
HETATM    9  C   UNL     1     -11.646  13.129  68.367  1.00  0.00    -0.337 A  
HETATM   10  C   UNL     1     -11.579  11.744  68.416  1.00  0.00    -0.318 A  
HETATM   11  N   UNL     1     -11.130  10.919  67.375  1.00  0.00    -0.310 NA 
HETATM   12  C   UNL     1     -12.028  11.122  69.589  1.00  0.00    -0.429 A  
HETATM   13  C   UNL     1     -10.573  11.387  66.307  1.00  0.00    -0.263 C  
HETATM   14  C   UNL     1     -12.528  11.863  70.674  1.00  0.00    -0.257 A  
HETATM   15  N   UNL     1     -10.342  12.747  66.077  1.00  0.00    -0.271 N  
HETATM   16  O   UNL     1     -12.226  14.373  66.178  1.00  0.00    -0.403 OA 
HETATM   17 CL   UNL     1     -13.055  10.965  72.053  1.00  0.00    -0.567 Cl 
HETATM   18  S   UNL     1     -11.076  13.945  66.939  1.00  0.00    -0.308 S  
HETATM   19  H   UNL     1      -9.688  13.010  65.340  1.00  0.00     0.000 HD 
HETATM   20  O   UNL     1     -10.038  14.868  67.337  1.00  0.00    -0.228 OA 
BRANCH  13  21
HETATM   21  C   UNL     1     -10.130  10.461  65.192  1.00  0.00    -0.308 C  
BRANCH  21  22
HETATM   22  S   UNL     1      -8.433   9.852  65.467  1.00  0.00    -0.148 SA 
BRANCH  22  23
HETATM   23  C   UNL     1      -8.712   8.051  65.612  1.00  0.00    -0.125 C  
BRANCH  23  24
HETATM   24  C   UNL     1      -9.361   7.721  66.933  1.00  0.00    -0.212 A  
HETATM   25  C   UNL     1     -10.410   6.789  66.989  1.00  0.00    -0.338 A  
HETATM   26  C   UNL     1     -11.074   6.541  68.190  1.00  0.00    -0.332 A  
HETATM   27  C   UNL     1     -10.696   7.218  69.349  1.00  0.00    -0.236 A  
HETATM   28  C   UNL     1      -9.642   8.128  69.310  1.00  0.00    -0.164 A  
HETATM   29  C   UNL     1      -8.977   8.380  68.109  1.00  0.00    -0.139 A  
ENDBRANCH  23  24
ENDBRANCH  22  23
ENDBRANCH  21  22
ENDBRANCH  13  21
ENDBRANCH   2   7
TORSDOF 5
ENDMDL
MODEL       12
REMARK 921   NORMALIZED FREE ENERGY PREDICTED BY IDOCK:   -6.60 KCAL/MOL
REMARK 922        TOTAL FREE ENERGY PREDICTED BY IDOCK:   -9.17 KCAL/MOL
REMARK 923 INTER-LIGAND FREE ENERGY PREDICTED BY IDOCK:   -8.76 KCAL/MOL
REMARK 924 INTRA-LIGAND FREE ENERGY PREDICTED BY IDOCK:   -0.41 KCAL/MOL
REMARK 927      BINDING AFFINITY PREDICTED BY RF-SCORE:    0.00 PKD
ROOT
HETATM    1  N   UNL     1     -10.893  18.631  67.282  1.00  0.00    -0.394 N  
HETATM    2  S   UNL     1     -10.123  17.908  65.978  1.00  0.00    -0.191 S  
HETATM    3  H1  UNL     1     -10.239  18.527  68.058  1.00  0.00     0.000 HD 
HETATM    4  H2  UNL     1     -11.810  19.077  67.295  1.00  0.00     0.000 HD 
HETATM    5  O   UNL     1     -11.050  18.057  64.879  1.00  0.00    -0.738 OA 
HETATM    6  O   UNL     1      -8.782  18.432  65.920  1.00  0.00    -0.497 OA 
ENDROOT
BRANCH   2   7
HETATM    7  C   UNL     1     -10.062  16.204  66.434  1.00  0.00    -0.308 A  
HETATM    8  C   UNL     1     -10.729  15.280  65.622  1.00  0.00    -0.376 A  
HETATM    9  C   UNL     1     -10.679  13.920  65.946  1.00  0.00    -0.286 A  
HETATM   10  C   UNL     1      -9.982  13.443  67.047  1.00  0.00    -0.246 A  
HETATM   11  N   UNL     1      -9.921  12.099  67.443  1.00  0.00    -0.198 NA 
HETATM   12  C   UNL     1      -9.316  14.384  67.843  1.00  0.00    -0.203 A  
HETATM   13  C   UNL     1     -10.384  11.136  66.716  1.00  0.00    -0.241 C  
HETATM   14  C   UNL     1      -9.348  15.758  67.546  1.00  0.00    -0.209 A  
HETATM   15  N   UNL     1     -10.975  11.320  65.462  1.00  0.00    -0.186 N  
HETATM   16  O   UNL     1     -12.914  12.861  65.202  1.00  0.00    -0.758 OA 
HETATM   17 CL   UNL     1      -8.489  16.806  68.617  1.00  0.00    -0.250 Cl 
HETATM   18  S   UNL     1     -11.501  12.784  64.917  1.00  0.00    -0.336 S  
HETATM   19  H   UNL     1     -11.086  10.508  64.854  1.00  0.00     0.000 HD 
HETATM   20  O   UNL     1     -10.984  12.940  63.577  1.00  0.00    -0.370 OA 
BRANCH  13  21
HETATM   21  C   UNL     1     -10.324   9.700  67.196  1.00  0.00    -0.254 C  
BRANCH  21  22
HETATM   22  S   UNL     1      -9.484   9.571  68.809  1.00  0.00    -0.150 SA 
BRANCH  22  23
HETATM   23  C   UNL     1     -10.437   8.231  69.610  1.00  0.00    -0.221 C  
BRANCH  23  24
HETATM   24  C   UNL     1     -11.461   8.805  70.556  1.00  0.00    -0.222 A  
HETATM   25  C   UNL     1     -12.283   7.949  71.308  1.00  0.00    -0.314 A  
HETATM   26  C   UNL     1     -13.291   8.468  72.120  1.00  0.00    -0.382 A  
HETATM   27  C   UNL     1     -13.487   9.846  72.195  1.00  0.00    -0.454 A  
HETATM   28  C   UNL     1     -12.663  10.706  71.472  1.00  0.00    -0.549 A  
HETATM   29  C   UNL     1     -11.654  10.190  70.656  1.00  0.00    -0.429 A  
ENDBRANCH  23  24
ENDBRANCH  22  23
ENDBRANCH  21  22
ENDBRANCH  13  21
ENDBRANCH   2   7
TORSDOF 5
ENDMDL
MODEL       13
REMARK 921   NORMALIZED FREE ENERGY PREDICTED BY IDOCK:   -6.59 KCAL/MOL
REMARK 922        TOTAL FREE ENERGY PREDICTED BY IDOCK:   -9.16 KCAL/MOL
REMARK 923 INTER-LIGAND FREE ENERGY PREDICTED BY IDOCK:   -8.42 KCAL/MOL
REMARK 924 INTRA-LIGAND FREE ENERGY PREDICTED BY IDOCK:   -0.75 KCAL/MOL
REMARK 927      BINDING AFFINITY PREDICTED BY RF-SCORE:    0.00 PKD
ROOT
HETATM    1  N   UNL     1      -9.624   8.485  65.395  1.00  0.00    -0.366 N  
HETATM    2  S   UNL     1      -9.752   8.071  67.016  1.00  0.00    -0.234 S  
HETATM    3  H1  UNL     1      -8.863   9.163  65.361  1.00  0.00     0.000 HD 
HETATM    4  H2  UNL     1     -10.183   8.137  64.617  1.00  0.00     0.000 HD 
HETATM    5  O   UNL     1     -10.831   7.110  67.064  1.00  0.00    -0.351 OA 
HETATM    6  O   UNL     1      -8.428   7.753  67.489  1.00  0.00    -0.119 OA 
ENDROOT
BRANCH   2   7
HETATM    7  C   UNL     1     -10.298   9.566  67.778  1.00  0.00    -0.239 A  
HETATM    8  C   UNL     1     -10.639  10.641  66.952  1.00  0.00    -0.311 A  
HETATM    9  C   UNL     1     -11.097  11.831  67.527  1.00  0.00    -0.272 A  
HETATM   10  C   UNL     1     -11.235  11.990  68.899  1.00  0.00    -0.261 A  
HETATM   11  N   UNL     1     -11.657  13.165  69.538  1.00  0.00    -0.292 NA 
HETATM   12  C   UNL     1     -10.894  10.898  69.709  1.00  0.00    -0.247 A  
HETATM   13  C   UNL     1     -12.119  14.183  68.890  1.00  0.00    -0.304 C  
HETATM   14  C   UNL     1     -10.429   9.689  69.162  1.00  0.00    -0.214 A  
HETATM   15  N   UNL     1     -12.267  14.222  67.500  1.00  0.00    -0.598 N  
HETATM   16  O   UNL     1     -10.316  13.776  66.018  1.00  0.00    -0.293 OA 
HETATM   17 CL   UNL     1     -10.038   8.430  70.278  1.00  0.00    -0.189 Cl 
HETATM   18  S   UNL     1     -11.532  13.153  66.483  1.00  0.00    -0.355 S  
HETATM   19  H   UNL     1     -12.858  14.948  67.095  1.00  0.00     0.000 HD 
HETATM   20  O   UNL     1     -12.547  12.684  65.568  1.00  0.00    -0.634 OA 
BRANCH  13  21
HETATM   21  C   UNL     1     -12.535  15.445  69.618  1.00  0.00    -0.136 C  
BRANCH  21  22
HETATM   22  S   UNL     1     -11.174  16.106  70.636  1.00  0.00    -0.272 SA 
BRANCH  22  23
HETATM   23  C   UNL     1      -9.798  16.128  69.433  1.00  0.00    -0.232 C  
BRANCH  23  24
HETATM   24  C   UNL     1      -9.938  17.297  68.491  1.00  0.00    -0.320 A  
HETATM   25  C   UNL     1      -9.872  18.611  68.982  1.00  0.00    -0.330 A  
HETATM   26  C   UNL     1     -10.086  19.697  68.134  1.00  0.00    -0.556 A  
HETATM   27  C   UNL     1     -10.363  19.484  66.785  1.00  0.00    -0.570 A  
HETATM   28  C   UNL     1     -10.409  18.186  66.280  1.00  0.00    -0.407 A  
HETATM   29  C   UNL     1     -10.197  17.097  67.127  1.00  0.00    -0.316 A  
ENDBRANCH  23  24
ENDBRANCH  22  23
ENDBRANCH  21  22
ENDBRANCH  13  21
ENDBRANCH   2   7
TORSDOF 5
ENDMDL
MODEL       14
REMARK 921   NORMALIZED FREE ENERGY PREDICTED BY IDOCK:   -6.57 KCAL/MOL
REMARK 922        TOTAL FREE ENERGY PREDICTED BY IDOCK:   -9.14 KCAL/MOL
REMARK 923 INTER-LIGAND FREE ENERGY PREDICTED BY IDOCK:   -8.47 KCAL/MOL
REMARK 924 INTRA-LIGAND FREE ENERGY PREDICTED BY IDOCK:   -0.67 KCAL/MOL
REMARK 927      BINDING AFFINITY PREDICTED BY RF-SCORE:    0.00 PKD
ROOT
HETATM    1  N   UNL     1     -10.628  11.061  63.081  1.00  0.00    -0.778 N  
HETATM    2  S   UNL     1     -11.253  12.384  63.903  1.00  0.00    -0.464 S  
HETATM    3  H1  UNL     1     -11.327  10.329  63.202  1.00  0.00     0.000 HD 
HETATM    4  H2  UNL     1      -9.746  11.002  62.574  1.00  0.00     0.000 HD 
HETATM    5  O   UNL     1     -10.261  13.421  63.732  1.00  0.00    -0.116 OA 
HETATM    6  O   UNL     1     -12.618  12.557  63.475  1.00  0.00    -0.690 OA 
ENDROOT
BRANCH   2   7
HETATM    7  C   UNL     1     -11.234  11.864  65.589  1.00  0.00    -0.306 A  
HETATM    8  C   UNL     1     -10.636  10.636  65.894  1.00  0.00    -0.178 A  
HETATM    9  C   UNL     1     -10.587  10.209  67.225  1.00  0.00    -0.261 A  
HETATM   10  C   UNL     1     -11.105  10.963  68.269  1.00  0.00    -0.266 A  
HETATM   11  N   UNL     1     -11.115  10.576  69.617  1.00  0.00    -0.263 NA 
HETATM   12  C   UNL     1     -11.693  12.192  67.942  1.00  0.00    -0.403 A  
HETATM   13  C   UNL     1     -10.488   9.531  70.047  1.00  0.00    -0.247 C  
HETATM   14  C   UNL     1     -11.760  12.650  66.615  1.00  0.00    -0.398 A  
HETATM   15  N   UNL     1      -9.723   8.689  69.233  1.00  0.00    -0.170 N  
HETATM   16  O   UNL     1     -10.738   7.630  67.221  1.00  0.00    -0.306 OA 
HETATM   17 CL   UNL     1     -12.521  14.179  66.356  1.00  0.00    -0.446 Cl 
HETATM   18  S   UNL     1      -9.826   8.687  67.588  1.00  0.00    -0.194 S  
HETATM   19  H   UNL     1      -9.071   8.045  69.679  1.00  0.00     0.000 HD 
HETATM   20  O   UNL     1      -8.471   8.734  67.086  1.00  0.00    -0.109 OA 
BRANCH  13  21
HETATM   21  C   UNL     1     -10.551   9.133  71.508  1.00  0.00    -0.358 C  
BRANCH  21  22
HETATM   22  S   UNL     1     -12.260   8.767  72.026  1.00  0.00    -0.388 SA 
BRANCH  22  23
HETATM   23  C   UNL     1     -12.641   7.296  71.010  1.00  0.00    -0.263 C  
BRANCH  23  24
HETATM   24  C   UNL     1     -11.606   6.221  71.227  1.00  0.00    -0.336 A  
HETATM   25  C   UNL     1     -10.894   5.697  70.136  1.00  0.00    -0.356 A  
HETATM   26  C   UNL     1      -9.997   4.644  70.315  1.00  0.00    -0.309 A  
HETATM   27  C   UNL     1      -9.797   4.106  71.585  1.00  0.00    -0.254 A  
HETATM   28  C   UNL     1     -10.481   4.632  72.679  1.00  0.00    -0.258 A  
HETATM   29  C   UNL     1     -11.381   5.685  72.503  1.00  0.00    -0.349 A  
ENDBRANCH  23  24
ENDBRANCH  22  23
ENDBRANCH  21  22
ENDBRANCH  13  21
ENDBRANCH   2   7
TORSDOF 5
ENDMDL
MODEL       15
REMARK 921   NORMALIZED FREE ENERGY PREDICTED BY IDOCK:   -6.56 KCAL/MOL
REMARK 922        TOTAL FREE ENERGY PREDICTED BY IDOCK:   -9.13 KCAL/MOL
REMARK 923 INTER-LIGAND FREE ENERGY PREDICTED BY IDOCK:   -8.11 KCAL/MOL
REMARK 924 INTRA-LIGAND FREE ENERGY PREDICTED BY IDOCK:   -1.02 KCAL/MOL
REMARK 927      BINDING AFFINITY PREDICTED BY RF-SCORE:    0.00 PKD
ROOT
HETATM    1  N   UNL     1     -11.165  16.838  70.179  1.00  0.00    -0.383 N  
HETATM    2  S   UNL     1     -11.998  15.462  70.658  1.00  0.00    -0.394 S  
HETATM    3  H1  UNL     1     -11.674  17.176  69.363  1.00  0.00     0.000 HD 
HETATM    4  H2  UNL     1     -10.335  17.245  70.609  1.00  0.00     0.000 HD 
HETATM    5  O   UNL     1     -11.277  14.983  71.815  1.00  0.00    -0.340 OA 
HETATM    6  O   UNL     1     -13.398  15.801  70.720  1.00  0.00    -0.539 OA 
ENDROOT
BRANCH   2   7
HETATM    7  C   UNL     1     -11.730  14.337  69.325  1.00  0.00    -0.321 A  
HETATM    8  C   UNL     1     -11.296  14.856  68.101  1.00  0.00    -0.326 A  
HETATM    9  C   UNL     1     -11.054  13.986  67.033  1.00  0.00    -0.304 A  
HETATM   10  C   UNL     1     -11.221  12.612  67.140  1.00  0.00    -0.300 A  
HETATM   11  N   UNL     1     -11.027  11.692  66.100  1.00  0.00    -0.293 NA 
HETATM   12  C   UNL     1     -11.650  12.112  68.377  1.00  0.00    -0.381 A  
HETATM   13  C   UNL     1     -10.509  12.024  64.964  1.00  0.00    -0.287 C  
HETATM   14  C   UNL     1     -11.904  12.960  69.469  1.00  0.00    -0.320 A  
HETATM   15  N   UNL     1     -10.072  13.315  64.652  1.00  0.00    -0.603 N  
HETATM   16  O   UNL     1     -11.629  15.248  64.854  1.00  0.00    -0.352 OA 
HETATM   17 CL   UNL     1     -12.436  12.209  70.931  1.00  0.00    -0.434 Cl 
HETATM   18  S   UNL     1     -10.500  14.648  65.523  1.00  0.00    -0.384 S  
HETATM   19  H   UNL     1      -9.460  13.439  63.845  1.00  0.00     0.000 HD 
HETATM   20  O   UNL     1      -9.284  15.386  65.778  1.00  0.00    -0.302 OA 
BRANCH  13  21
HETATM   21  C   UNL     1     -10.344  11.002  63.856  1.00  0.00    -0.372 C  
BRANCH  21  22
HETATM   22  S   UNL     1      -8.630  10.390  63.763  1.00  0.00    -0.165 SA 
BRANCH  22  23
HETATM   23  C   UNL     1      -8.777   8.769  64.597  1.00  0.00    -0.068 C  
BRANCH  23  24
HETATM   24  C   UNL     1      -9.038   8.955  66.070  1.00  0.00    -0.265 A  
HETATM   25  C   UNL     1      -8.118   9.657  66.866  1.00  0.00    -0.113 A  
HETATM   26  C   UNL     1      -8.307   9.760  68.244  1.00  0.00    -0.106 A  
HETATM   27  C   UNL     1      -9.418   9.169  68.842  1.00  0.00    -0.151 A  
HETATM   28  C   UNL     1     -10.351   8.489  68.060  1.00  0.00    -0.272 A  
HETATM   29  C   UNL     1     -10.163   8.382  66.681  1.00  0.00    -0.335 A  
ENDBRANCH  23  24
ENDBRANCH  22  23
ENDBRANCH  21  22
ENDBRANCH  13  21
ENDBRANCH   2   7
TORSDOF 5
ENDMDL
MODEL       16
REMARK 921   NORMALIZED FREE ENERGY PREDICTED BY IDOCK:   -6.52 KCAL/MOL
REMARK 922        TOTAL FREE ENERGY PREDICTED BY IDOCK:   -9.07 KCAL/MOL
REMARK 923 INTER-LIGAND FREE ENERGY PREDICTED BY IDOCK:   -8.38 KCAL/MOL
REMARK 924 INTRA-LIGAND FREE ENERGY PREDICTED BY IDOCK:   -0.68 KCAL/MOL
REMARK 927      BINDING AFFINITY PREDICTED BY RF-SCORE:    0.00 PKD
ROOT
HETATM    1  N   UNL     1     -12.516  14.813  63.587  1.00  0.00    -1.051 N  
HETATM    2  S   UNL     1     -11.982  13.373  64.261  1.00  0.00    -0.442 S  
HETATM    3  H1  UNL     1     -11.716  15.165  63.061  1.00  0.00     0.000 HD 
HETATM    4  H2  UNL     1     -13.436  15.242  63.681  1.00  0.00     0.000 HD 
HETATM    5  O   UNL     1     -13.116  12.875  65.005  1.00  0.00    -0.794 OA 
HETATM    6  O   UNL     1     -11.363  12.604  63.210  1.00  0.00    -0.460 OA 
ENDROOT
BRANCH   2   7
HETATM    7  C   UNL     1     -10.744  13.892  65.406  1.00  0.00    -0.325 A  
HETATM    8  C   UNL     1     -10.627  15.259  65.677  1.00  0.00    -0.377 A  
HETATM    9  C   UNL     1      -9.670  15.697  66.598  1.00  0.00    -0.249 A  
HETATM   10  C   UNL     1      -8.826  14.823  67.268  1.00  0.00    -0.204 A  
HETATM   11  N   UNL     1      -7.827  15.201  68.176  1.00  0.00    -0.121 NA 
HETATM   12  C   UNL     1      -8.964  13.456  66.987  1.00  0.00    -0.228 A  
HETATM   13  C   UNL     1      -7.699  16.413  68.606  1.00  0.00    -0.204 C  
HETATM   14  C   UNL     1      -9.915  12.984  66.066  1.00  0.00    -0.276 A  
HETATM   15  N   UNL     1      -8.540  17.467  68.235  1.00  0.00    -0.252 N  
HETATM   16  O   UNL     1      -8.861  18.027  65.831  1.00  0.00    -0.504 OA 
HETATM   17 CL   UNL     1      -9.970  11.276  65.811  1.00  0.00    -0.267 Cl 
HETATM   18  S   UNL     1      -9.549  17.401  66.933  1.00  0.00    -0.288 S  
HETATM   19  H   UNL     1      -8.529  18.318  68.797  1.00  0.00     0.000 HD 
HETATM   20  O   UNL     1     -10.843  17.859  67.386  1.00  0.00    -0.339 OA 
BRANCH  13  21
HETATM   21  C   UNL     1      -6.585  16.784  69.565  1.00  0.00    -0.207 C  
BRANCH  21  22
HETATM   22  S   UNL     1      -5.158  17.499  68.684  1.00  0.00    -0.146 SA 
BRANCH  22  23
HETATM   23  C   UNL     1      -5.745  19.201  68.361  1.00  0.00    -0.206 C  
BRANCH  23  24
HETATM   24  C   UNL     1      -5.735  19.491  66.882  1.00  0.00    -0.173 A  
HETATM   25  C   UNL     1      -6.114  20.759  66.409  1.00  0.00    -0.282 A  
HETATM   26  C   UNL     1      -6.192  21.011  65.040  1.00  0.00    -0.223 A  
HETATM   27  C   UNL     1      -5.886  20.003  64.127  1.00  0.00    -0.312 A  
HETATM   28  C   UNL     1      -5.486  18.748  64.583  1.00  0.00    -0.259 A  
HETATM   29  C   UNL     1      -5.410  18.492  65.953  1.00  0.00    -0.195 A  
ENDBRANCH  23  24
ENDBRANCH  22  23
ENDBRANCH  21  22
ENDBRANCH  13  21
ENDBRANCH   2   7
TORSDOF 5
ENDMDL
MODEL       17
REMARK 921   NORMALIZED FREE ENERGY PREDICTED BY IDOCK:   -6.51 KCAL/MOL
REMARK 922        TOTAL FREE ENERGY PREDICTED BY IDOCK:   -9.06 KCAL/MOL
REMARK 923 INTER-LIGAND FREE ENERGY PREDICTED BY IDOCK:   -8.60 KCAL/MOL
REMARK 924 INTRA-LIGAND FREE ENERGY PREDICTED BY IDOCK:   -0.46 KCAL/MOL
REMARK 927      BINDING AFFINITY PREDICTED BY RF-SCORE:    0.00 PKD
ROOT
HETATM    1  N   UNL     1      -9.656   6.799  70.538  1.00  0.00    -0.169 N  
HETATM    2  S   UNL     1     -10.925   7.529  71.357  1.00  0.00    -0.234 S  
HETATM    3  H1  UNL     1      -8.879   7.452  70.630  1.00  0.00     0.000 HD 
HETATM    4  H2  UNL     1      -9.661   5.901  70.055  1.00  0.00     0.000 HD 
HETATM    5  O   UNL     1     -12.026   6.602  71.226  1.00  0.00    -0.336 OA 
HETATM    6  O   UNL     1     -10.429   7.946  72.644  1.00  0.00    -0.267 OA 
ENDROOT
BRANCH   2   7
HETATM    7  C   UNL     1     -11.274   8.956  70.380  1.00  0.00    -0.230 A  
HETATM    8  C   UNL     1     -10.562   9.131  69.188  1.00  0.00    -0.224 A  
HETATM    9  C   UNL     1     -10.834  10.241  68.382  1.00  0.00    -0.245 A  
HETATM   10  C   UNL     1     -11.796  11.184  68.714  1.00  0.00    -0.320 A  
HETATM   11  N   UNL     1     -12.093  12.333  67.966  1.00  0.00    -0.409 NA 
HETATM   12  C   UNL     1     -12.503  10.987  69.908  1.00  0.00    -0.286 A  
HETATM   13  C   UNL     1     -11.600  12.546  66.791  1.00  0.00    -0.382 C  
HETATM   14  C   UNL     1     -12.253   9.883  70.742  1.00  0.00    -0.291 A  
HETATM   15  N   UNL     1     -10.742  11.660  66.132  1.00  0.00    -0.269 N  
HETATM   16  O   UNL     1      -8.629  10.917  67.220  1.00  0.00    -0.127 OA 
HETATM   17 CL   UNL     1     -13.192   9.770  72.187  1.00  0.00    -0.538 Cl 
HETATM   18  S   UNL     1      -9.950  10.433  66.896  1.00  0.00    -0.215 S  
HETATM   19  H   UNL     1     -10.599  11.779  65.128  1.00  0.00     0.000 HD 
HETATM   20  O   UNL     1     -10.153   9.246  66.099  1.00  0.00    -0.288 OA 
BRANCH  13  21
HETATM   21  C   UNL     1     -11.923  13.816  66.030  1.00  0.00    -0.414 C  
BRANCH  21  22
HETATM   22  S   UNL     1     -10.535  14.997  66.084  1.00  0.00    -0.321 SA 
BRANCH  22  23
HETATM   23  C   UNL     1     -10.858  15.866  67.660  1.00  0.00    -0.312 C  
BRANCH  23  24
HETATM   24  C   UNL     1     -10.487  17.323  67.545  1.00  0.00    -0.356 A  
HETATM   25  C   UNL     1     -10.202  18.072  68.699  1.00  0.00    -0.385 A  
HETATM   26  C   UNL     1      -9.943  19.439  68.611  1.00  0.00    -0.527 A  
HETATM   27  C   UNL     1      -9.960  20.074  67.370  1.00  0.00    -0.571 A  
HETATM   28  C   UNL     1     -10.219  19.338  66.215  1.00  0.00    -0.546 A  
HETATM   29  C   UNL     1     -10.481  17.969  66.300  1.00  0.00    -0.340 A  
ENDBRANCH  23  24
ENDBRANCH  22  23
ENDBRANCH  21  22
ENDBRANCH  13  21
ENDBRANCH   2   7
TORSDOF 5
ENDMDL
MODEL       18
REMARK 921   NORMALIZED FREE ENERGY PREDICTED BY IDOCK:   -6.44 KCAL/MOL
REMARK 922        TOTAL FREE ENERGY PREDICTED BY IDOCK:   -8.97 KCAL/MOL
REMARK 923 INTER-LIGAND FREE ENERGY PREDICTED BY IDOCK:   -8.11 KCAL/MOL
REMARK 924 INTRA-LIGAND FREE ENERGY PREDICTED BY IDOCK:   -0.86 KCAL/MOL
REMARK 927      BINDING AFFINITY PREDICTED BY RF-SCORE:    0.00 PKD
ROOT
HETATM    1  N   UNL     1     -10.762  19.616  66.007  1.00  0.00    -0.470 N  
HETATM    2  S   UNL     1      -9.587  19.518  67.200  1.00  0.00    -0.353 S  
HETATM    3  H1  UNL     1     -11.596  19.213  66.433  1.00  0.00     0.000 HD 
HETATM    4  H2  UNL     1     -10.664  19.994  65.065  1.00  0.00     0.000 HD 
HETATM    5  O   UNL     1      -8.405  20.089  66.595  1.00  0.00    -0.309 OA 
HETATM    6  O   UNL     1     -10.154  20.050  68.413  1.00  0.00    -0.427 OA 
ENDROOT
BRANCH   2   7
HETATM    7  C   UNL     1      -9.337  17.782  67.387  1.00  0.00    -0.252 A  
HETATM    8  C   UNL     1     -10.164  16.914  66.665  1.00  0.00    -0.312 A  
HETATM    9  C   UNL     1      -9.975  15.533  66.776  1.00  0.00    -0.249 A  
HETATM   10  C   UNL     1      -8.985  14.980  67.576  1.00  0.00    -0.183 A  
HETATM   11  N   UNL     1      -8.765  13.606  67.755  1.00  0.00    -0.172 NA 
HETATM   12  C   UNL     1      -8.163  15.866  68.286  1.00  0.00    -0.152 A  
HETATM   13  C   UNL     1      -9.373  12.707  67.054  1.00  0.00    -0.220 C  
HETATM   14  C   UNL     1      -8.328  17.259  68.197  1.00  0.00    -0.233 A  
HETATM   15  N   UNL     1     -10.291  12.995  66.040  1.00  0.00    -0.280 N  
HETATM   16  O   UNL     1     -12.285  14.407  66.518  1.00  0.00    -0.424 OA 
HETATM   17 CL   UNL     1      -7.250  18.232  69.132  1.00  0.00    -0.225 Cl 
HETATM   18  S   UNL     1     -11.003  14.471  65.859  1.00  0.00    -0.330 S  
HETATM   19  H   UNL     1     -10.533  12.255  65.380  1.00  0.00     0.000 HD 
HETATM   20  O   UNL     1     -10.879  14.824  64.463  1.00  0.00    -0.324 OA 
BRANCH  13  21
HETATM   21  C   UNL     1      -9.127  11.231  67.301  1.00  0.00    -0.156 C  
BRANCH  21  22
HETATM   22  S   UNL     1      -9.472  10.780  69.034  1.00  0.00    -0.125 SA 
BRANCH  22  23
HETATM   23  C   UNL     1     -11.293  10.618  69.012  1.00  0.00    -0.277 C  
BRANCH  23  24
HETATM   24  C   UNL     1     -11.926  11.652  69.909  1.00  0.00    -0.414 A  
HETATM   25  C   UNL     1     -11.851  13.015  69.576  1.00  0.00    -0.385 A  
HETATM   26  C   UNL     1     -12.356  13.985  70.441  1.00  0.00    -0.429 A  
HETATM   27  C   UNL     1     -12.948  13.605  71.645  1.00  0.00    -0.448 A  
HETATM   28  C   UNL     1     -13.049  12.255  71.976  1.00  0.00    -0.461 A  
HETATM   29  C   UNL     1     -12.542  11.282  71.113  1.00  0.00    -0.501 A  
ENDBRANCH  23  24
ENDBRANCH  22  23
ENDBRANCH  21  22
ENDBRANCH  13  21
ENDBRANCH   2   7
TORSDOF 5
ENDMDL
MODEL       19
REMARK 921   NORMALIZED FREE ENERGY PREDICTED BY IDOCK:   -6.44 KCAL/MOL
REMARK 922        TOTAL FREE ENERGY PREDICTED BY IDOCK:   -8.97 KCAL/MOL
REMARK 923 INTER-LIGAND FREE ENERGY PREDICTED BY IDOCK:   -8.51 KCAL/MOL
REMARK 924 INTRA-LIGAND FREE ENERGY PREDICTED BY IDOCK:   -0.46 KCAL/MOL
REMARK 927      BINDING AFFINITY PREDICTED BY RF-SCORE:    0.00 PKD
ROOT
HETATM    1  N   UNL     1      -9.992   7.016  70.386  1.00  0.00    -0.180 N  
HETATM    2  S   UNL     1     -10.996   7.999  71.302  1.00  0.00    -0.241 S  
HETATM    3  H1  UNL     1      -9.114   7.532  70.322  1.00  0.00     0.000 HD 
HETATM    4  H2  UNL     1     -10.209   6.105  69.984  1.00  0.00     0.000 HD 
HETATM    5  O   UNL     1     -12.239   7.267  71.394  1.00  0.00    -0.312 OA 
HETATM    6  O   UNL     1     -10.260   8.399  72.475  1.00  0.00    -0.306 OA 
ENDROOT
BRANCH   2   7
HETATM    7  C   UNL     1     -11.248   9.404  70.266  1.00  0.00    -0.246 A  
HETATM    8  C   UNL     1     -10.540   9.472  69.062  1.00  0.00    -0.238 A  
HETATM    9  C   UNL     1     -10.737  10.564  68.210  1.00  0.00    -0.229 A  
HETATM   10  C   UNL     1     -11.620  11.591  68.509  1.00  0.00    -0.313 A  
HETATM   11  N   UNL     1     -11.838  12.726  67.714  1.00  0.00    -0.351 NA 
HETATM   12  C   UNL     1     -12.325  11.501  69.717  1.00  0.00    -0.220 A  
HETATM   13  C   UNL     1     -11.345  12.849  66.526  1.00  0.00    -0.318 C  
HETATM   14  C   UNL     1     -12.149  10.418  70.596  1.00  0.00    -0.348 A  
HETATM   15  N   UNL     1     -10.566  11.872  65.898  1.00  0.00    -0.257 N  
HETATM   16  O   UNL     1      -8.502  11.018  66.998  1.00  0.00    -0.134 OA 
HETATM   17 CL   UNL     1     -13.075  10.440  72.054  1.00  0.00    -0.560 Cl 
HETATM   18  S   UNL     1      -9.859  10.623  66.709  1.00  0.00    -0.205 S  
HETATM   19  H   UNL     1     -10.427  11.936  64.889  1.00  0.00     0.000 HD 
HETATM   20  O   UNL     1     -10.162   9.421  65.966  1.00  0.00    -0.269 OA 
BRANCH  13  21
HETATM   21  C   UNL     1     -11.581  14.106  65.712  1.00  0.00    -0.343 C  
BRANCH  21  22
HETATM   22  S   UNL     1     -10.248  15.324  65.967  1.00  0.00    -0.343 SA 
BRANCH  22  23
HETATM   23  C   UNL     1     -10.797  16.149  67.503  1.00  0.00    -0.284 C  
BRANCH  23  24
HETATM   24  C   UNL     1     -10.486  17.624  67.450  1.00  0.00    -0.356 A  
HETATM   25  C   UNL     1     -10.425  18.288  66.214  1.00  0.00    -0.397 A  
HETATM   26  C   UNL     1     -10.054  19.630  66.148  1.00  0.00    -0.574 A  
HETATM   27  C   UNL     1      -9.745  20.327  67.316  1.00  0.00    -0.590 A  
HETATM   28  C   UNL     1      -9.824  19.685  68.550  1.00  0.00    -0.519 A  
HETATM   29  C   UNL     1     -10.193  18.341  68.619  1.00  0.00    -0.377 A  
ENDBRANCH  23  24
ENDBRANCH  22  23
ENDBRANCH  21  22
ENDBRANCH  13  21
ENDBRANCH   2   7
TORSDOF 5
ENDMDL
MODEL       20
REMARK 921   NORMALIZED FREE ENERGY PREDICTED BY IDOCK:   -6.42 KCAL/MOL
REMARK 922        TOTAL FREE ENERGY PREDICTED BY IDOCK:   -8.95 KCAL/MOL
REMARK 923 INTER-LIGAND FREE ENERGY PREDICTED BY IDOCK:   -7.98 KCAL/MOL
REMARK 924 INTRA-LIGAND FREE ENERGY PREDICTED BY IDOCK:   -0.97 KCAL/MOL
REMARK 927      BINDING AFFINITY PREDICTED BY RF-SCORE:    0.00 PKD
ROOT
HETATM    1  N   UNL     1     -12.400  13.988  68.948  1.00  0.00    -0.508 N  
HETATM    2  S   UNL     1     -11.325  13.108  68.007  1.00  0.00    -0.314 S  
HETATM    3  H1  UNL     1     -12.921  14.557  68.280  1.00  0.00     0.000 HD 
HETATM    4  H2  UNL     1     -12.509  13.960  69.961  1.00  0.00     0.000 HD 
HETATM    5  O   UNL     1     -10.588  12.301  68.954  1.00  0.00    -0.211 OA 
HETATM    6  O   UNL     1     -12.075  12.518  66.926  1.00  0.00    -0.537 OA 
ENDROOT
BRANCH   2   7
HETATM    7  C   UNL     1     -10.243  14.342  67.360  1.00  0.00    -0.247 A  
HETATM    8  C   UNL     1      -9.039  14.582  68.030  1.00  0.00    -0.185 A  
HETATM    9  C   UNL     1      -8.152  15.538  67.526  1.00  0.00    -0.165 A  
HETATM   10  C   UNL     1      -8.415  16.263  66.373  1.00  0.00    -0.330 A  
HETATM   11  N   UNL     1      -7.583  17.256  65.836  1.00  0.00    -0.441 NA 
HETATM   12  C   UNL     1      -9.623  16.002  65.712  1.00  0.00    -0.311 A  
HETATM   13  C   UNL     1      -6.393  17.485  66.284  1.00  0.00    -0.244 C  
HETATM   14  C   UNL     1     -10.537  15.049  66.193  1.00  0.00    -0.310 A  
HETATM   15  N   UNL     1      -5.799  16.768  67.328  1.00  0.00    -0.156 N  
HETATM   16  O   UNL     1      -6.933  16.604  69.539  1.00  0.00    -0.225 OA 
HETATM   17 CL   UNL     1     -11.991  14.837  65.284  1.00  0.00    -0.288 Cl 
HETATM   18  S   UNL     1      -6.652  15.812  68.365  1.00  0.00    -0.122 S  
HETATM   19  H   UNL     1      -4.790  16.840  67.454  1.00  0.00     0.000 HD 
HETATM   20  O   UNL     1      -5.949  14.553  68.445  1.00  0.00    -0.088 OA 
BRANCH  13  21
HETATM   21  C   UNL     1      -5.538  18.590  65.693  1.00  0.00    -0.186 C  
BRANCH  21  22
HETATM   22  S   UNL     1      -6.537  20.060  65.289  1.00  0.00    -0.298 SA 
BRANCH  22  23
HETATM   23  C   UNL     1      -7.101  20.585  66.947  1.00  0.00    -0.290 C  
BRANCH  23  24
HETATM   24  C   UNL     1      -8.486  20.056  67.225  1.00  0.00    -0.390 A  
HETATM   25  C   UNL     1      -8.767  19.426  68.448  1.00  0.00    -0.397 A  
HETATM   26  C   UNL     1     -10.020  18.858  68.681  1.00  0.00    -0.470 A  
HETATM   27  C   UNL     1     -11.006  18.917  67.698  1.00  0.00    -0.287 A  
HETATM   28  C   UNL     1     -10.747  19.561  66.489  1.00  0.00    -0.535 A  
HETATM   29  C   UNL     1      -9.493  20.128  66.253  1.00  0.00    -0.450 A  
ENDBRANCH  23  24
ENDBRANCH  22  23
ENDBRANCH  21  22
ENDBRANCH  13  21
ENDBRANCH   2   7
TORSDOF 5
ENDMDL
MODEL       21
REMARK 921   NORMALIZED FREE ENERGY PREDICTED BY IDOCK:   -6.38 KCAL/MOL
REMARK 922        TOTAL FREE ENERGY PREDICTED BY IDOCK:   -8.90 KCAL/MOL
REMARK 923 INTER-LIGAND FREE ENERGY PREDICTED BY IDOCK:   -8.50 KCAL/MOL
REMARK 924 INTRA-LIGAND FREE ENERGY PREDICTED BY IDOCK:   -0.40 KCAL/MOL
REMARK 927      BINDING AFFINITY PREDICTED BY RF-SCORE:    0.00 PKD
ROOT
HETATM    1  N   UNL     1     -10.334   6.597  71.036  1.00  0.00    -0.206 N  
HETATM    2  S   UNL     1     -11.466   7.409  71.971  1.00  0.00    -0.284 S  
HETATM    3  H1  UNL     1      -9.470   7.126  71.160  1.00  0.00     0.000 HD 
HETATM    4  H2  UNL     1     -10.476   5.761  70.471  1.00  0.00     0.000 HD 
HETATM    5  O   UNL     1     -12.689   6.659  71.796  1.00  0.00    -0.350 OA 
HETATM    6  O   UNL     1     -10.884   7.624  73.271  1.00  0.00    -0.394 OA 
ENDROOT
BRANCH   2   7
HETATM    7  C   UNL     1     -11.637   8.961  71.148  1.00  0.00    -0.300 A  
HETATM    8  C   UNL     1     -10.708   9.287  70.155  1.00  0.00    -0.269 A  
HETATM    9  C   UNL     1     -10.833  10.501  69.470  1.00  0.00    -0.256 A  
HETATM   10  C   UNL     1     -11.855  11.402  69.733  1.00  0.00    -0.364 A  
HETATM   11  N   UNL     1     -12.015  12.646  69.105  1.00  0.00    -0.276 NA 
HETATM   12  C   UNL     1     -12.779  11.053  70.727  1.00  0.00    -0.414 A  
HETATM   13  C   UNL     1     -11.305  13.011  68.090  1.00  0.00    -0.294 C  
HETATM   14  C   UNL     1     -12.681   9.842  71.434  1.00  0.00    -0.403 A  
HETATM   15  N   UNL     1     -10.321  12.213  67.497  1.00  0.00    -0.204 N  
HETATM   16  O   UNL     1      -8.452  11.301  68.866  1.00  0.00    -0.139 OA 
HETATM   17 CL   UNL     1     -13.884   9.545  72.638  1.00  0.00    -0.346 Cl 
HETATM   18  S   UNL     1      -9.677  10.883  68.227  1.00  0.00    -0.171 S  
HETATM   19  H   UNL     1      -9.986  12.466  66.567  1.00  0.00     0.000 HD 
HETATM   20  O   UNL     1      -9.702   9.818  67.251  1.00  0.00    -0.158 OA 
BRANCH  13  21
HETATM   21  C   UNL     1     -11.491  14.378  67.461  1.00  0.00    -0.349 C  
BRANCH  21  22
HETATM   22  S   UNL     1     -11.595  15.685  68.727  1.00  0.00    -0.378 SA 
BRANCH  22  23
HETATM   23  C   UNL     1      -9.910  16.392  68.660  1.00  0.00    -0.234 C  
BRANCH  23  24
HETATM   24  C   UNL     1      -9.936  17.760  68.027  1.00  0.00    -0.333 A  
HETATM   25  C   UNL     1      -9.823  18.909  68.826  1.00  0.00    -0.461 A  
HETATM   26  C   UNL     1      -9.932  20.179  68.260  1.00  0.00    -0.452 A  
HETATM   27  C   UNL     1     -10.150  20.317  66.891  1.00  0.00    -0.565 A  
HETATM   28  C   UNL     1     -10.240  19.184  66.083  1.00  0.00    -0.535 A  
HETATM   29  C   UNL     1     -10.134  17.911  66.647  1.00  0.00    -0.362 A  
ENDBRANCH  23  24
ENDBRANCH  22  23
ENDBRANCH  21  22
ENDBRANCH  13  21
ENDBRANCH   2   7
TORSDOF 5
ENDMDL
MODEL       22
REMARK 921   NORMALIZED FREE ENERGY PREDICTED BY IDOCK:   -6.32 KCAL/MOL
REMARK 922        TOTAL FREE ENERGY PREDICTED BY IDOCK:   -8.82 KCAL/MOL
REMARK 923 INTER-LIGAND FREE ENERGY PREDICTED BY IDOCK:   -8.04 KCAL/MOL
REMARK 924 INTRA-LIGAND FREE ENERGY PREDICTED BY IDOCK:   -0.78 KCAL/MOL
REMARK 927      BINDING AFFINITY PREDICTED BY RF-SCORE:    0.00 PKD
ROOT
HETATM    1  N   UNL     1     -12.123  13.252  63.446  1.00  0.00    -0.837 N  
HETATM    2  S   UNL     1     -12.174  14.211  64.821  1.00  0.00    -0.432 S  
HETATM    3  H1  UNL     1     -12.599  12.391  63.713  1.00  0.00     0.000 HD 
HETATM    4  H2  UNL     1     -11.708  13.479  62.542  1.00  0.00     0.000 HD 
HETATM    5  O   UNL     1     -11.500  15.431  64.441  1.00  0.00    -0.355 OA 
HETATM    6  O   UNL     1     -13.533  14.210  65.301  1.00  0.00    -0.606 OA 
ENDROOT
BRANCH   2   7
HETATM    7  C   UNL     1     -11.153  13.339  65.966  1.00  0.00    -0.283 A  
HETATM    8  C   UNL     1     -10.663  12.084  65.590  1.00  0.00    -0.313 A  
HETATM    9  C   UNL     1      -9.833  11.380  66.468  1.00  0.00    -0.208 A  
HETATM   10  C   UNL     1      -9.464  11.882  67.708  1.00  0.00    -0.184 A  
HETATM   11  N   UNL     1      -8.663  11.213  68.644  1.00  0.00    -0.160 NA 
HETATM   12  C   UNL     1      -9.960  13.144  68.062  1.00  0.00    -0.233 A  
HETATM   13  C   UNL     1      -8.048  10.110  68.373  1.00  0.00    -0.104 C  
HETATM   14  C   UNL     1     -10.798  13.877  67.204  1.00  0.00    -0.284 A  
HETATM   15  N   UNL     1      -8.094   9.475  67.128  1.00  0.00    -0.106 N  
HETATM   16  O   UNL     1     -10.284   8.861  66.115  1.00  0.00    -0.259 OA 
HETATM   17 CL   UNL     1     -11.343  15.414  67.772  1.00  0.00    -0.327 Cl 
HETATM   18  S   UNL     1      -9.221   9.827  65.977  1.00  0.00    -0.195 S  
HETATM   19  H   UNL     1      -7.397   8.759  66.922  1.00  0.00     0.000 HD 
HETATM   20  O   UNL     1      -8.505  10.002  64.734  1.00  0.00    -0.153 OA 
BRANCH  13  21
HETATM   21  C   UNL     1      -7.216   9.404  69.426  1.00  0.00    -0.066 C  
BRANCH  21  22
HETATM   22  S   UNL     1      -8.237   8.887  70.845  1.00  0.00    -0.186 SA 
BRANCH  22  23
HETATM   23  C   UNL     1      -9.800   8.420  70.019  1.00  0.00    -0.182 C  
BRANCH  23  24
HETATM   24  C   UNL     1     -10.979   9.028  70.735  1.00  0.00    -0.315 A  
HETATM   25  C   UNL     1     -11.549   8.372  71.838  1.00  0.00    -0.395 A  
HETATM   26  C   UNL     1     -12.691   8.883  72.454  1.00  0.00    -0.436 A  
HETATM   27  C   UNL     1     -13.274  10.056  71.979  1.00  0.00    -0.545 A  
HETATM   28  C   UNL     1     -12.704  10.729  70.900  1.00  0.00    -0.478 A  
HETATM   29  C   UNL     1     -11.562  10.219  70.280  1.00  0.00    -0.396 A  
ENDBRANCH  23  24
ENDBRANCH  22  23
ENDBRANCH  21  22
ENDBRANCH  13  21
ENDBRANCH   2   7
TORSDOF 5
ENDMDL
MODEL       23
REMARK 921   NORMALIZED FREE ENERGY PREDICTED BY IDOCK:   -6.32 KCAL/MOL
REMARK 922        TOTAL FREE ENERGY PREDICTED BY IDOCK:   -8.81 KCAL/MOL
REMARK 923 INTER-LIGAND FREE ENERGY PREDICTED BY IDOCK:   -8.60 KCAL/MOL
REMARK 924 INTRA-LIGAND FREE ENERGY PREDICTED BY IDOCK:   -0.21 KCAL/MOL
REMARK 927      BINDING AFFINITY PREDICTED BY RF-SCORE:    0.00 PKD
ROOT
HETATM    1  N   UNL     1     -12.904   7.637  71.050  1.00  0.00    -0.550 N  
HETATM    2  S   UNL     1     -12.318   8.747  72.163  1.00  0.00    -0.386 S  
HETATM    3  H1  UNL     1     -12.123   7.471  70.416  1.00  0.00     0.000 HD 
HETATM    4  H2  UNL     1     -13.834   7.220  71.016  1.00  0.00     0.000 HD 
HETATM    5  O   UNL     1     -13.425   8.982  73.062  1.00  0.00    -0.300 OA 
HETATM    6  O   UNL     1     -11.045   8.262  72.633  1.00  0.00    -0.367 OA 
ENDROOT
BRANCH   2   7
HETATM    7  C   UNL     1     -12.064  10.201  71.195  1.00  0.00    -0.388 A  
HETATM    8  C   UNL     1     -12.568  11.413  71.680  1.00  0.00    -0.338 A  
HETATM    9  C   UNL     1     -12.362  12.585  70.945  1.00  0.00    -0.255 A  
HETATM   10  C   UNL     1     -11.665  12.599  69.745  1.00  0.00    -0.284 A  
HETATM   11  N   UNL     1     -11.454  13.732  68.947  1.00  0.00    -0.282 NA 
HETATM   12  C   UNL     1     -11.163  11.375  69.280  1.00  0.00    -0.342 A  
HETATM   13  C   UNL     1     -11.756  14.926  69.338  1.00  0.00    -0.319 C  
HETATM   14  C   UNL     1     -11.354  10.179  69.994  1.00  0.00    -0.287 A  
HETATM   15  N   UNL     1     -12.303  15.222  70.591  1.00  0.00    -0.348 N  
HETATM   16  O   UNL     1     -14.406  14.116  71.334  1.00  0.00    -0.270 OA 
HETATM   17 CL   UNL     1     -10.688   8.744  69.300  1.00  0.00    -0.206 Cl 
HETATM   18  S   UNL     1     -12.982  14.085  71.571  1.00  0.00    -0.367 S  
HETATM   19  H   UNL     1     -12.280  16.190  70.913  1.00  0.00     0.000 HD 
HETATM   20  O   UNL     1     -12.424  14.284  72.889  1.00  0.00    -0.229 OA 
BRANCH  13  21
HETATM   21  C   UNL     1     -11.538  16.120  68.431  1.00  0.00    -0.228 C  
BRANCH  21  22
HETATM   22  S   UNL     1     -11.144  15.601  66.728  1.00  0.00    -0.089 SA 
BRANCH  22  23
HETATM   23  C   UNL     1      -9.478  16.320  66.505  1.00  0.00    -0.264 C  
BRANCH  23  24
HETATM   24  C   UNL     1      -9.500  17.802  66.785  1.00  0.00    -0.289 A  
HETATM   25  C   UNL     1      -8.695  18.339  67.803  1.00  0.00    -0.263 A  
HETATM   26  C   UNL     1      -8.773  19.693  68.128  1.00  0.00    -0.359 A  
HETATM   27  C   UNL     1      -9.650  20.527  67.437  1.00  0.00    -0.578 A  
HETATM   28  C   UNL     1     -10.437  20.010  66.409  1.00  0.00    -0.534 A  
HETATM   29  C   UNL     1     -10.363  18.655  66.083  1.00  0.00    -0.481 A  
ENDBRANCH  23  24
ENDBRANCH  22  23
ENDBRANCH  21  22
ENDBRANCH  13  21
ENDBRANCH   2   7
TORSDOF 5
ENDMDL
MODEL       24
REMARK 921   NORMALIZED FREE ENERGY PREDICTED BY IDOCK:   -6.30 KCAL/MOL
REMARK 922        TOTAL FREE ENERGY PREDICTED BY IDOCK:   -8.79 KCAL/MOL
REMARK 923 INTER-LIGAND FREE ENERGY PREDICTED BY IDOCK:   -8.47 KCAL/MOL
REMARK 924 INTRA-LIGAND FREE ENERGY PREDICTED BY IDOCK:   -0.32 KCAL/MOL
REMARK 927      BINDING AFFINITY PREDICTED BY RF-SCORE:    0.00 PKD
ROOT
HETATM    1  N   UNL     1     -11.492   6.425  67.241  1.00  0.00    -0.708 N  
HETATM    2  S   UNL     1     -10.712   6.770  68.686  1.00  0.00    -0.227 S  
HETATM    3  H1  UNL     1     -10.820   6.681  66.518  1.00  0.00     0.000 HD 
HETATM    4  H2  UNL     1     -12.428   6.044  67.114  1.00  0.00     0.000 HD 
HETATM    5  O   UNL     1     -11.664   6.406  69.711  1.00  0.00    -0.414 OA 
HETATM    6  O   UNL     1      -9.399   6.179  68.623  1.00  0.00    -0.122 OA 
ENDROOT
BRANCH   2   7
HETATM    7  C   UNL     1     -10.561   8.527  68.660  1.00  0.00    -0.118 A  
HETATM    8  C   UNL     1     -10.241   9.144  67.446  1.00  0.00    -0.310 A  
HETATM    9  C   UNL     1     -10.137  10.538  67.391  1.00  0.00    -0.197 A  
HETATM   10  C   UNL     1     -10.347  11.345  68.500  1.00  0.00    -0.205 A  
HETATM   11  N   UNL     1     -10.226  12.742  68.517  1.00  0.00    -0.224 NA 
HETATM   12  C   UNL     1     -10.673  10.707  69.705  1.00  0.00    -0.290 A  
HETATM   13  C   UNL     1     -10.060  13.440  67.442  1.00  0.00    -0.237 C  
HETATM   14  C   UNL     1     -10.784   9.309  69.795  1.00  0.00    -0.231 A  
HETATM   15  N   UNL     1     -10.001  12.893  66.157  1.00  0.00    -0.269 N  
HETATM   16  O   UNL     1      -8.341  11.115  65.626  1.00  0.00    -0.118 OA 
HETATM   17 CL   UNL     1     -11.184   8.657  71.344  1.00  0.00    -0.320 Cl 
HETATM   18  S   UNL     1      -9.753  11.289  65.869  1.00  0.00    -0.234 S  
HETATM   19  H   UNL     1     -10.117  13.517  65.358  1.00  0.00     0.000 HD 
HETATM   20  O   UNL     1     -10.749  10.880  64.905  1.00  0.00    -0.276 OA 
BRANCH  13  21
HETATM   21  C   UNL     1      -9.904  14.946  67.509  1.00  0.00    -0.217 C  
BRANCH  21  22
HETATM   22  S   UNL     1     -11.371  15.736  68.249  1.00  0.00    -0.328 SA 
BRANCH  22  23
HETATM   23  C   UNL     1     -10.786  16.071  69.949  1.00  0.00    -0.351 C  
BRANCH  23  24
HETATM   24  C   UNL     1     -11.696  15.417  70.959  1.00  0.00    -0.408 A  
HETATM   25  C   UNL     1     -12.283  14.173  70.677  1.00  0.00    -0.432 A  
HETATM   26  C   UNL     1     -13.193  13.601  71.566  1.00  0.00    -0.409 A  
HETATM   27  C   UNL     1     -13.522  14.261  72.748  1.00  0.00    -0.590 A  
HETATM   28  C   UNL     1     -12.928  15.486  73.050  1.00  0.00    -0.609 A  
HETATM   29  C   UNL     1     -12.019  16.062  72.161  1.00  0.00    -0.629 A  
ENDBRANCH  23  24
ENDBRANCH  22  23
ENDBRANCH  21  22
ENDBRANCH  13  21
ENDBRANCH   2   7
TORSDOF 5
ENDMDL
MODEL       25
REMARK 921   NORMALIZED FREE ENERGY PREDICTED BY IDOCK:   -6.29 KCAL/MOL
REMARK 922        TOTAL FREE ENERGY PREDICTED BY IDOCK:   -8.78 KCAL/MOL
REMARK 923 INTER-LIGAND FREE ENERGY PREDICTED BY IDOCK:   -8.62 KCAL/MOL
REMARK 924 INTRA-LIGAND FREE ENERGY PREDICTED BY IDOCK:   -0.16 KCAL/MOL
REMARK 927      BINDING AFFINITY PREDICTED BY RF-SCORE:    0.00 PKD
ROOT
HETATM    1  N   UNL     1      -8.278  20.095  65.921  1.00  0.00    -0.542 N  
HETATM    2  S   UNL     1      -9.831  19.708  66.422  1.00  0.00    -0.470 S  
HETATM    3  H1  UNL     1      -8.101  19.478  65.129  1.00  0.00     0.000 HD 
HETATM    4  H2  UNL     1      -7.650  20.792  66.320  1.00  0.00     0.000 HD 
HETATM    5  O   UNL     1     -10.082  20.583  67.545  1.00  0.00    -0.401 OA 
HETATM    6  O   UNL     1     -10.677  19.706  65.255  1.00  0.00    -0.390 OA 
ENDROOT
BRANCH   2   7
HETATM    7  C   UNL     1      -9.668  18.057  67.023  1.00  0.00    -0.303 A  
HETATM    8  C   UNL     1     -10.379  17.044  66.372  1.00  0.00    -0.304 A  
HETATM    9  C   UNL     1     -10.250  15.723  66.813  1.00  0.00    -0.282 A  
HETATM   10  C   UNL     1      -9.433  15.369  67.877  1.00  0.00    -0.197 A  
HETATM   11  N   UNL     1      -9.287  14.071  68.387  1.00  0.00    -0.211 NA 
HETATM   12  C   UNL     1      -8.725  16.398  68.512  1.00  0.00    -0.223 A  
HETATM   13  C   UNL     1      -9.786  13.033  67.801  1.00  0.00    -0.224 C  
HETATM   14  C   UNL     1      -8.833  17.736  68.095  1.00  0.00    -0.267 A  
HETATM   15  N   UNL     1     -10.503  13.081  66.602  1.00  0.00    -0.262 N  
HETATM   16  O   UNL     1     -12.510  14.542  66.398  1.00  0.00    -0.315 OA 
HETATM   17 CL   UNL     1      -7.909  18.903  68.973  1.00  0.00    -0.295 Cl 
HETATM   18  S   UNL     1     -11.130  14.474  65.980  1.00  0.00    -0.334 S  
HETATM   19  H   UNL     1     -10.646  12.213  66.086  1.00  0.00     0.000 HD 
HETATM   20  O   UNL     1     -10.752  14.514  64.586  1.00  0.00    -0.399 OA 
BRANCH  13  21
HETATM   21  C   UNL     1      -9.630  11.650  68.403  1.00  0.00    -0.195 C  
BRANCH  21  22
HETATM   22  S   UNL     1     -11.209  11.033  69.075  1.00  0.00    -0.284 SA 
BRANCH  22  23
HETATM   23  C   UNL     1     -10.629   9.882  70.371  1.00  0.00    -0.302 C  
BRANCH  23  24
HETATM   24  C   UNL     1     -11.773   9.045  70.885  1.00  0.00    -0.327 A  
HETATM   25  C   UNL     1     -11.638   7.651  70.982  1.00  0.00    -0.301 A  
HETATM   26  C   UNL     1     -12.718   6.860  71.374  1.00  0.00    -0.384 A  
HETATM   27  C   UNL     1     -13.942   7.453  71.679  1.00  0.00    -0.523 A  
HETATM   28  C   UNL     1     -14.082   8.838  71.608  1.00  0.00    -0.437 A  
HETATM   29  C   UNL     1     -13.003   9.631  71.214  1.00  0.00    -0.446 A  
ENDBRANCH  23  24
ENDBRANCH  22  23
ENDBRANCH  21  22
ENDBRANCH  13  21
ENDBRANCH   2   7
TORSDOF 5
ENDMDL
MODEL       26
REMARK 921   NORMALIZED FREE ENERGY PREDICTED BY IDOCK:   -6.28 KCAL/MOL
REMARK 922        TOTAL FREE ENERGY PREDICTED BY IDOCK:   -8.77 KCAL/MOL
REMARK 923 INTER-LIGAND FREE ENERGY PREDICTED BY IDOCK:   -8.00 KCAL/MOL
REMARK 924 INTRA-LIGAND FREE ENERGY PREDICTED BY IDOCK:   -0.76 KCAL/MOL
REMARK 927      BINDING AFFINITY PREDICTED BY RF-SCORE:    0.00 PKD
ROOT
HETATM    1  N   UNL     1     -12.807   7.956  72.496  1.00  0.00    -0.547 N  
HETATM    2  S   UNL     1     -11.304   7.246  72.273  1.00  0.00    -0.283 S  
HETATM    3  H1  UNL     1     -13.244   7.929  71.575  1.00  0.00     0.000 HD 
HETATM    4  H2  UNL     1     -13.198   8.331  73.360  1.00  0.00     0.000 HD 
HETATM    5  O   UNL     1     -10.685   7.284  73.579  1.00  0.00    -0.382 OA 
HETATM    6  O   UNL     1     -11.508   6.008  71.564  1.00  0.00    -0.281 OA 
ENDROOT
BRANCH   2   7
HETATM    7  C   UNL     1     -10.464   8.387  71.222  1.00  0.00    -0.216 A  
HETATM    8  C   UNL     1     -11.188   9.470  70.711  1.00  0.00    -0.383 A  
HETATM    9  C   UNL     1     -10.543  10.403  69.893  1.00  0.00    -0.251 A  
HETATM   10  C   UNL     1      -9.197  10.303  69.568  1.00  0.00    -0.170 A  
HETATM   11  N   UNL     1      -8.502  11.186  68.729  1.00  0.00    -0.154 NA 
HETATM   12  C   UNL     1      -8.489   9.215  70.095  1.00  0.00    -0.186 A  
HETATM   13  C   UNL     1      -9.018  12.288  68.297  1.00  0.00    -0.182 C  
HETATM   14  C   UNL     1      -9.108   8.259  70.919  1.00  0.00    -0.152 A  
HETATM   15  N   UNL     1     -10.303  12.731  68.626  1.00  0.00    -0.346 N  
HETATM   16  O   UNL     1     -12.279  11.279  68.193  1.00  0.00    -0.622 OA 
HETATM   17 CL   UNL     1      -8.116   6.965  71.492  1.00  0.00    -0.108 Cl 
HETATM   18  S   UNL     1     -11.456  11.751  69.280  1.00  0.00    -0.325 S  
HETATM   19  H   UNL     1     -10.539  13.709  68.452  1.00  0.00     0.000 HD 
HETATM   20  O   UNL     1     -12.015  12.462  70.408  1.00  0.00    -0.344 OA 
BRANCH  13  21
HETATM   21  C   UNL     1      -8.241  13.199  67.367  1.00  0.00    -0.187 C  
BRANCH  21  22
HETATM   22  S   UNL     1      -8.815  14.925  67.490  1.00  0.00    -0.198 SA 
BRANCH  22  23
HETATM   23  C   UNL     1      -9.358  15.251  65.775  1.00  0.00    -0.198 C  
BRANCH  23  24
HETATM   24  C   UNL     1     -10.513  14.353  65.407  1.00  0.00    -0.391 A  
HETATM   25  C   UNL     1     -11.788  14.587  65.947  1.00  0.00    -0.334 A  
HETATM   26  C   UNL     1     -12.842  13.713  65.681  1.00  0.00    -0.425 A  
HETATM   27  C   UNL     1     -12.636  12.599  64.869  1.00  0.00    -0.525 A  
HETATM   28  C   UNL     1     -11.381  12.369  64.309  1.00  0.00    -0.420 A  
HETATM   29  C   UNL     1     -10.323  13.241  64.575  1.00  0.00    -0.394 A  
ENDBRANCH  23  24
ENDBRANCH  22  23
ENDBRANCH  21  22
ENDBRANCH  13  21
ENDBRANCH   2   7
TORSDOF 5
ENDMDL
MODEL       27
REMARK 921   NORMALIZED FREE ENERGY PREDICTED BY IDOCK:   -6.28 KCAL/MOL
REMARK 922        TOTAL FREE ENERGY PREDICTED BY IDOCK:   -8.76 KCAL/MOL
REMARK 923 INTER-LIGAND FREE ENERGY PREDICTED BY IDOCK:   -8.15 KCAL/MOL
REMARK 924 INTRA-LIGAND FREE ENERGY PREDICTED BY IDOCK:   -0.61 KCAL/MOL
REMARK 927      BINDING AFFINITY PREDICTED BY RF-SCORE:    0.00 PKD
ROOT
HETATM    1  N   UNL     1     -11.239   7.179  72.965  1.00  0.00    -0.513 N  
HETATM    2  S   UNL     1     -11.846   7.181  71.401  1.00  0.00    -0.329 S  
HETATM    3  H1  UNL     1     -11.944   7.669  73.515  1.00  0.00     0.000 HD 
HETATM    4  H2  UNL     1     -10.361   6.778  73.292  1.00  0.00     0.000 HD 
HETATM    5  O   UNL     1     -10.847   6.486  70.621  1.00  0.00    -0.236 OA 
HETATM    6  O   UNL     1     -13.212   6.728  71.464  1.00  0.00    -0.291 OA 
ENDROOT
BRANCH   2   7
HETATM    7  C   UNL     1     -11.819   8.888  70.954  1.00  0.00    -0.240 A  
HETATM    8  C   UNL     1     -10.894   9.303  69.990  1.00  0.00    -0.264 A  
HETATM    9  C   UNL     1     -10.866  10.646  69.600  1.00  0.00    -0.268 A  
HETATM   10  C   UNL     1     -11.731  11.594  70.129  1.00  0.00    -0.296 A  
HETATM   11  N   UNL     1     -11.732  12.957  69.803  1.00  0.00    -0.303 NA 
HETATM   12  C   UNL     1     -12.655  11.155  71.088  1.00  0.00    -0.513 A  
HETATM   13  C   UNL     1     -11.018  13.445  68.843  1.00  0.00    -0.248 C  
HETATM   14  C   UNL     1     -12.708   9.813  71.503  1.00  0.00    -0.406 A  
HETATM   15  N   UNL     1     -10.190  12.677  68.018  1.00  0.00    -0.224 N  
HETATM   16  O   UNL     1      -8.421  11.234  69.011  1.00  0.00    -0.106 OA 
HETATM   17 CL   UNL     1     -13.890   9.414  72.698  1.00  0.00    -0.409 Cl 
HETATM   18  S   UNL     1      -9.719  11.141  68.389  1.00  0.00    -0.196 S  
HETATM   19  H   UNL     1      -9.860  13.088  67.144  1.00  0.00     0.000 HD 
HETATM   20  O   UNL     1      -9.944  10.341  67.207  1.00  0.00    -0.175 OA 
BRANCH  13  21
HETATM   21  C   UNL     1     -11.025  14.931  68.545  1.00  0.00    -0.255 C  
BRANCH  21  22
HETATM   22  S   UNL     1      -9.844  15.351  67.221  1.00  0.00    -0.218 SA 
BRANCH  22  23
HETATM   23  C   UNL     1     -10.964  15.581  65.794  1.00  0.00    -0.283 C  
BRANCH  23  24
HETATM   24  C   UNL     1     -11.219  14.264  65.106  1.00  0.00    -0.345 A  
HETATM   25  C   UNL     1     -12.498  13.683  65.146  1.00  0.00    -0.488 A  
HETATM   26  C   UNL     1     -12.723  12.426  64.588  1.00  0.00    -0.372 A  
HETATM   27  C   UNL     1     -11.677  11.736  63.978  1.00  0.00    -0.421 A  
HETATM   28  C   UNL     1     -10.410  12.311  63.910  1.00  0.00    -0.455 A  
HETATM   29  C   UNL     1     -10.180  13.569  64.471  1.00  0.00    -0.296 A  
ENDBRANCH  23  24
ENDBRANCH  22  23
ENDBRANCH  21  22
ENDBRANCH  13  21
ENDBRANCH   2   7
TORSDOF 5
ENDMDL
MODEL       28
REMARK 921   NORMALIZED FREE ENERGY PREDICTED BY IDOCK:   -6.27 KCAL/MOL
REMARK 922        TOTAL FREE ENERGY PREDICTED BY IDOCK:   -8.74 KCAL/MOL
REMARK 923 INTER-LIGAND FREE ENERGY PREDICTED BY IDOCK:   -8.47 KCAL/MOL
REMARK 924 INTRA-LIGAND FREE ENERGY PREDICTED BY IDOCK:   -0.27 KCAL/MOL
REMARK 927      BINDING AFFINITY PREDICTED BY RF-SCORE:    0.00 PKD
ROOT
HETATM    1  N   UNL     1      -9.595   9.811  62.759  1.00  0.00    -0.555 N  
HETATM    2  S   UNL     1      -8.480   9.707  64.008  1.00  0.00    -0.201 S  
HETATM    3  H1  UNL     1      -9.505  10.765  62.411  1.00  0.00     0.000 HD 
HETATM    4  H2  UNL     1     -10.224   9.082  62.423  1.00  0.00     0.000 HD 
HETATM    5  O   UNL     1      -8.608   8.355  64.501  1.00  0.00    -0.114 OA 
HETATM    6  O   UNL     1      -7.227  10.223  63.516  1.00  0.00    -0.138 OA 
ENDROOT
BRANCH   2   7
HETATM    7  C   UNL     1      -9.125  10.811  65.225  1.00  0.00    -0.195 A  
HETATM    8  C   UNL     1     -10.201  11.631  64.868  1.00  0.00    -0.315 A  
HETATM    9  C   UNL     1     -10.747  12.499  65.818  1.00  0.00    -0.269 A  
HETATM   10  C   UNL     1     -10.267  12.579  67.118  1.00  0.00    -0.217 A  
HETATM   11  N   UNL     1     -10.749  13.449  68.105  1.00  0.00    -0.245 NA 
HETATM   12  C   UNL     1      -9.193  11.744  67.457  1.00  0.00    -0.175 A  
HETATM   13  C   UNL     1     -11.813  14.164  67.945  1.00  0.00    -0.370 C  
HETATM   14  C   UNL     1      -8.620  10.862  66.525  1.00  0.00    -0.156 A  
HETATM   15  N   UNL     1     -12.606  14.137  66.793  1.00  0.00    -0.503 N  
HETATM   16  O   UNL     1     -11.593  14.593  64.564  1.00  0.00    -0.397 OA 
HETATM   17 CL   UNL     1      -7.296   9.898  67.076  1.00  0.00    -0.091 Cl 
HETATM   18  S   UNL     1     -12.096  13.499  65.361  1.00  0.00    -0.445 S  
HETATM   19  H   UNL     1     -13.545  14.532  66.841  1.00  0.00     0.000 HD 
HETATM   20  O   UNL     1     -13.154  12.635  64.890  1.00  0.00    -0.850 OA 
BRANCH  13  21
HETATM   21  C   UNL     1     -12.282  15.115  69.028  1.00  0.00    -0.122 C  
BRANCH  21  22
HETATM   22  S   UNL     1     -10.899  16.094  69.699  1.00  0.00    -0.359 SA 
BRANCH  22  23
HETATM   23  C   UNL     1      -9.873  16.346  68.207  1.00  0.00    -0.229 C  
BRANCH  23  24
HETATM   24  C   UNL     1     -10.072  17.736  67.657  1.00  0.00    -0.342 A  
HETATM   25  C   UNL     1     -10.276  17.928  66.281  1.00  0.00    -0.363 A  
HETATM   26  C   UNL     1     -10.374  19.215  65.752  1.00  0.00    -0.344 A  
HETATM   27  C   UNL     1     -10.276  20.323  66.591  1.00  0.00    -0.491 A  
HETATM   28  C   UNL     1     -10.097  20.145  67.961  1.00  0.00    -0.519 A  
HETATM   29  C   UNL     1      -9.996  18.859  68.494  1.00  0.00    -0.463 A  
ENDBRANCH  23  24
ENDBRANCH  22  23
ENDBRANCH  21  22
ENDBRANCH  13  21
ENDBRANCH   2   7
TORSDOF 5
ENDMDL
MODEL       29
REMARK 921   NORMALIZED FREE ENERGY PREDICTED BY IDOCK:   -6.25 KCAL/MOL
REMARK 922        TOTAL FREE ENERGY PREDICTED BY IDOCK:   -8.73 KCAL/MOL
REMARK 923 INTER-LIGAND FREE ENERGY PREDICTED BY IDOCK:   -8.46 KCAL/MOL
REMARK 924 INTRA-LIGAND FREE ENERGY PREDICTED BY IDOCK:   -0.26 KCAL/MOL
REMARK 927      BINDING AFFINITY PREDICTED BY RF-SCORE:    0.00 PKD
ROOT
HETATM    1  N   UNL     1     -10.848  19.239  67.354  1.00  0.00    -0.487 N  
HETATM    2  S   UNL     1     -10.085  18.404  66.115  1.00  0.00    -0.312 S  
HETATM    3  H1  UNL     1     -10.240  19.112  68.164  1.00  0.00     0.000 HD 
HETATM    4  H2  UNL     1     -11.723  19.760  67.309  1.00  0.00     0.000 HD 
HETATM    5  O   UNL     1     -10.946  18.585  64.969  1.00  0.00    -0.602 OA 
HETATM    6  O   UNL     1      -8.703  18.812  66.102  1.00  0.00    -0.439 OA 
ENDROOT
BRANCH   2   7
HETATM    7  C   UNL     1     -10.189  16.720  66.634  1.00  0.00    -0.309 A  
HETATM    8  C   UNL     1     -10.848  15.812  65.798  1.00  0.00    -0.286 A  
HETATM    9  C   UNL     1     -10.925  14.467  66.172  1.00  0.00    -0.320 A  
HETATM   10  C   UNL     1     -10.365  13.987  67.348  1.00  0.00    -0.259 A  
HETATM   11  N   UNL     1     -10.437  12.660  67.794  1.00  0.00    -0.218 NA 
HETATM   12  C   UNL     1      -9.704  14.912  68.167  1.00  0.00    -0.214 A  
HETATM   13  C   UNL     1     -10.903  11.703  67.062  1.00  0.00    -0.266 C  
HETATM   14  C   UNL     1      -9.609  16.271  67.821  1.00  0.00    -0.223 A  
HETATM   15  N   UNL     1     -11.367  11.875  65.753  1.00  0.00    -0.324 N  
HETATM   16  O   UNL     1     -13.158  13.535  65.266  1.00  0.00    -0.713 OA 
HETATM   17 CL   UNL     1      -8.774  17.301  68.928  1.00  0.00    -0.223 Cl 
HETATM   18  S   UNL     1     -11.735  13.349  65.113  1.00  0.00    -0.339 S  
HETATM   19  H   UNL     1     -11.483  11.048  65.167  1.00  0.00     0.000 HD 
HETATM   20  O   UNL     1     -11.092  13.413  63.820  1.00  0.00    -0.256 OA 
BRANCH  13  21
HETATM   21  C   UNL     1     -10.991  10.287  67.595  1.00  0.00    -0.294 C  
BRANCH  21  22
HETATM   22  S   UNL     1     -10.087  10.110  69.168  1.00  0.00    -0.227 SA 
BRANCH  22  23
HETATM   23  C   UNL     1     -11.461  10.049  70.373  1.00  0.00    -0.314 C  
BRANCH  23  24
HETATM   24  C   UNL     1     -11.242   8.936  71.367  1.00  0.00    -0.382 A  
HETATM   25  C   UNL     1     -10.007   8.809  72.023  1.00  0.00    -0.391 A  
HETATM   26  C   UNL     1      -9.766   7.734  72.878  1.00  0.00    -0.310 A  
HETATM   27  C   UNL     1     -10.756   6.777  73.092  1.00  0.00    -0.326 A  
HETATM   28  C   UNL     1     -11.994   6.904  72.465  1.00  0.00    -0.087 A  
HETATM   29  C   UNL     1     -12.238   7.978  71.607  1.00  0.00    -0.340 A  
ENDBRANCH  23  24
ENDBRANCH  22  23
ENDBRANCH  21  22
ENDBRANCH  13  21
ENDBRANCH   2   7
TORSDOF 5
ENDMDL
MODEL       30
REMARK 921   NORMALIZED FREE ENERGY PREDICTED BY IDOCK:   -6.20 KCAL/MOL
REMARK 922        TOTAL FREE ENERGY PREDICTED BY IDOCK:   -8.66 KCAL/MOL
REMARK 923 INTER-LIGAND FREE ENERGY PREDICTED BY IDOCK:   -8.40 KCAL/MOL
REMARK 924 INTRA-LIGAND FREE ENERGY PREDICTED BY IDOCK:   -0.26 KCAL/MOL
REMARK 927      BINDING AFFINITY PREDICTED BY RF-SCORE:    0.00 PKD
ROOT
HETATM    1  N   UNL     1     -10.282  10.773  69.777  1.00  0.00    -0.448 N  
HETATM    2  S   UNL     1     -11.738  11.246  69.090  1.00  0.00    -0.368 S  
HETATM    3  H1  UNL     1     -10.289  11.190  70.708  1.00  0.00     0.000 HD 
HETATM    4  H2  UNL     1      -9.553  10.197  69.358  1.00  0.00     0.000 HD 
HETATM    5  O   UNL     1     -11.728  10.655  67.771  1.00  0.00    -0.503 OA 
HETATM    6  O   UNL     1     -12.781  10.964  70.043  1.00  0.00    -0.263 OA 
ENDROOT
BRANCH   2   7
HETATM    7  C   UNL     1     -11.561  12.994  68.922  1.00  0.00    -0.311 A  
HETATM    8  C   UNL     1     -10.994  13.490  67.743  1.00  0.00    -0.284 A  
HETATM    9  C   UNL     1     -10.863  14.872  67.573  1.00  0.00    -0.292 A  
HETATM   10  C   UNL     1     -11.281  15.784  68.532  1.00  0.00    -0.354 A  
HETATM   11  N   UNL     1     -11.148  17.176  68.436  1.00  0.00    -0.217 NA 
HETATM   12  C   UNL     1     -11.853  15.266  69.703  1.00  0.00    -0.363 A  
HETATM   13  C   UNL     1     -10.760  17.765  67.354  1.00  0.00    -0.279 C  
HETATM   14  C   UNL     1     -11.998  13.883  69.906  1.00  0.00    -0.341 A  
HETATM   15  N   UNL     1     -10.450  17.094  66.167  1.00  0.00    -0.313 N  
HETATM   16  O   UNL     1      -8.740  15.284  66.160  1.00  0.00    -0.245 OA 
HETATM   17 CL   UNL     1     -12.711  13.385  71.398  1.00  0.00    -0.433 Cl 
HETATM   18  S   UNL     1     -10.170  15.471  66.094  1.00  0.00    -0.328 S  
HETATM   19  H   UNL     1     -10.394  17.635  65.304  1.00  0.00     0.000 HD 
HETATM   20  O   UNL     1     -10.956  14.962  64.994  1.00  0.00    -0.370 OA 
BRANCH  13  21
HETATM   21  C   UNL     1     -10.600  19.272  67.303  1.00  0.00    -0.484 C  
BRANCH  21  22
HETATM   22  S   UNL     1      -9.179  19.757  66.269  1.00  0.00    -0.357 SA 
BRANCH  22  23
HETATM   23  C   UNL     1      -8.099  20.576  67.496  1.00  0.00    -0.256 C  
BRANCH  23  24
HETATM   24  C   UNL     1      -7.240  19.559  68.205  1.00  0.00    -0.338 A  
HETATM   25  C   UNL     1      -7.197  18.232  67.749  1.00  0.00    -0.215 A  
HETATM   26  C   UNL     1      -6.474  17.265  68.448  1.00  0.00    -0.164 A  
HETATM   27  C   UNL     1      -5.783  17.613  69.607  1.00  0.00    -0.231 A  
HETATM   28  C   UNL     1      -5.800  18.932  70.057  1.00  0.00    -0.262 A  
HETATM   29  C   UNL     1      -6.524  19.901  69.361  1.00  0.00    -0.382 A  
ENDBRANCH  23  24
ENDBRANCH  22  23
ENDBRANCH  21  22
ENDBRANCH  13  21
ENDBRANCH   2   7
TORSDOF 5
ENDMDL
MODEL       31
REMARK 921   NORMALIZED FREE ENERGY PREDICTED BY IDOCK:   -6.19 KCAL/MOL
REMARK 922        TOTAL FREE ENERGY PREDICTED BY IDOCK:   -8.65 KCAL/MOL
REMARK 923 INTER-LIGAND FREE ENERGY PREDICTED BY IDOCK:   -8.02 KCAL/MOL
REMARK 924 INTRA-LIGAND FREE ENERGY PREDICTED BY IDOCK:   -0.62 KCAL/MOL
REMARK 927      BINDING AFFINITY PREDICTED BY RF-SCORE:    0.00 PKD
ROOT
HETATM    1  N   UNL     1      -5.375  19.364  66.668  1.00  0.00    -0.163 N  
HETATM    2  S   UNL     1      -6.845  20.170  66.604  1.00  0.00    -0.236 S  
HETATM    3  H1  UNL     1      -5.468  18.604  65.993  1.00  0.00     0.000 HD 
HETATM    4  H2  UNL     1      -4.568  19.584  67.251  1.00  0.00     0.000 HD 
HETATM    5  O   UNL     1      -6.713  21.246  67.559  1.00  0.00    -0.471 OA 
HETATM    6  O   UNL     1      -7.146  20.416  65.216  1.00  0.00    -0.279 OA 
ENDROOT
BRANCH   2   7
HETATM    7  C   UNL     1      -7.987  18.988  67.245  1.00  0.00    -0.254 A  
HETATM    8  C   UNL     1      -7.518  17.701  67.525  1.00  0.00    -0.206 A  
HETATM    9  C   UNL     1      -8.396  16.750  68.056  1.00  0.00    -0.200 A  
HETATM   10  C   UNL     1      -9.727  17.034  68.326  1.00  0.00    -0.275 A  
HETATM   11  N   UNL     1     -10.663  16.118  68.826  1.00  0.00    -0.275 NA 
HETATM   12  C   UNL     1     -10.176  18.332  68.044  1.00  0.00    -0.402 A  
HETATM   13  C   UNL     1     -10.332  14.941  69.242  1.00  0.00    -0.234 C  
HETATM   14  C   UNL     1      -9.320  19.310  67.509  1.00  0.00    -0.306 A  
HETATM   15  N   UNL     1      -9.019  14.458  69.259  1.00  0.00    -0.387 N  
HETATM   16  O   UNL     1      -7.665  14.436  67.169  1.00  0.00    -0.171 OA 
HETATM   17 CL   UNL     1     -10.008  20.864  67.203  1.00  0.00    -0.361 Cl 
HETATM   18  S   UNL     1      -7.790  15.158  68.413  1.00  0.00    -0.134 S  
HETATM   19  H   UNL     1      -8.812  13.633  69.822  1.00  0.00     0.000 HD 
HETATM   20  O   UNL     1      -6.681  15.297  69.328  1.00  0.00    -0.125 OA 
BRANCH  13  21
HETATM   21  C   UNL     1     -11.381  13.970  69.747  1.00  0.00    -0.179 C  
BRANCH  21  22
HETATM   22  S   UNL     1     -11.640  12.599  68.574  1.00  0.00    -0.343 SA 
BRANCH  22  23
HETATM   23  C   UNL     1     -12.256  13.491  67.102  1.00  0.00    -0.281 C  
BRANCH  23  24
HETATM   24  C   UNL     1     -11.812  12.796  65.839  1.00  0.00    -0.490 A  
HETATM   25  C   UNL     1     -10.517  12.261  65.748  1.00  0.00    -0.287 A  
HETATM   26  C   UNL     1     -10.066  11.693  64.556  1.00  0.00    -0.321 A  
HETATM   27  C   UNL     1     -10.906  11.650  63.444  1.00  0.00    -0.453 A  
HETATM   28  C   UNL     1     -12.201  12.157  63.529  1.00  0.00    -0.670 A  
HETATM   29  C   UNL     1     -12.653  12.727  64.720  1.00  0.00    -0.518 A  
ENDBRANCH  23  24
ENDBRANCH  22  23
ENDBRANCH  21  22
ENDBRANCH  13  21
ENDBRANCH   2   7
TORSDOF 5
ENDMDL
MODEL       32
REMARK 921   NORMALIZED FREE ENERGY PREDICTED BY IDOCK:   -6.10 KCAL/MOL
REMARK 922        TOTAL FREE ENERGY PREDICTED BY IDOCK:   -8.54 KCAL/MOL
REMARK 923 INTER-LIGAND FREE ENERGY PREDICTED BY IDOCK:   -7.70 KCAL/MOL
REMARK 924 INTRA-LIGAND FREE ENERGY PREDICTED BY IDOCK:   -0.84 KCAL/MOL
REMARK 927      BINDING AFFINITY PREDICTED BY RF-SCORE:    0.00 PKD
ROOT
HETATM    1  N   UNL     1     -10.266  19.359  69.252  1.00  0.00    -0.574 N  
HETATM    2  S   UNL     1      -9.918  18.563  67.817  1.00  0.00    -0.362 S  
HETATM    3  H1  UNL     1      -9.576  19.008  69.916  1.00  0.00     0.000 HD 
HETATM    4  H2  UNL     1     -11.003  20.042  69.423  1.00  0.00     0.000 HD 
HETATM    5  O   UNL     1     -10.896  19.061  66.877  1.00  0.00    -0.419 OA 
HETATM    6  O   UNL     1      -8.502  18.690  67.581  1.00  0.00    -0.263 OA 
ENDROOT
BRANCH   2   7
HETATM    7  C   UNL     1     -10.299  16.879  68.181  1.00  0.00    -0.336 A  
HETATM    8  C   UNL     1     -11.003  16.601  69.357  1.00  0.00    -0.235 A  
HETATM    9  C   UNL     1     -11.338  15.277  69.660  1.00  0.00    -0.290 A  
HETATM   10  C   UNL     1     -11.003  14.216  68.831  1.00  0.00    -0.259 A  
HETATM   11  N   UNL     1     -11.281  12.867  69.094  1.00  0.00    -0.254 NA 
HETATM   12  C   UNL     1     -10.303  14.517  67.654  1.00  0.00    -0.237 A  
HETATM   13  C   UNL     1     -12.031  12.488  70.075  1.00  0.00    -0.299 C  
HETATM   14  C   UNL     1      -9.950  15.836  67.322  1.00  0.00    -0.238 A  
HETATM   15  N   UNL     1     -12.658  13.368  70.964  1.00  0.00    -0.361 N  
HETATM   16  O   UNL     1     -11.314  15.038  72.232  1.00  0.00    -0.352 OA 
HETATM   17 CL   UNL     1      -9.081  16.060  65.846  1.00  0.00    -0.350 Cl 
HETATM   18  S   UNL     1     -12.229  14.952  71.119  1.00  0.00    -0.350 S  
HETATM   19  H   UNL     1     -13.417  13.012  71.545  1.00  0.00     0.000 HD 
HETATM   20  O   UNL     1     -13.452  15.721  71.076  1.00  0.00    -0.581 OA 
BRANCH  13  21
HETATM   21  C   UNL     1     -12.281  11.017  70.342  1.00  0.00    -0.373 C  
BRANCH  21  22
HETATM   22  S   UNL     1     -10.718  10.085  70.447  1.00  0.00    -0.274 SA 
BRANCH  22  23
HETATM   23  C   UNL     1     -10.811   9.047  68.944  1.00  0.00    -0.045 C  
BRANCH  23  24
HETATM   24  C   UNL     1      -9.948   9.624  67.851  1.00  0.00    -0.201 A  
HETATM   25  C   UNL     1      -8.871  10.466  68.173  1.00  0.00    -0.132 A  
HETATM   26  C   UNL     1      -8.120  11.073  67.166  1.00  0.00    -0.134 A  
HETATM   27  C   UNL     1      -8.432  10.841  65.828  1.00  0.00    -0.174 A  
HETATM   28  C   UNL     1      -9.483   9.989  65.495  1.00  0.00    -0.296 A  
HETATM   29  C   UNL     1     -10.238   9.382  66.501  1.00  0.00    -0.308 A  
ENDBRANCH  23  24
ENDBRANCH  22  23
ENDBRANCH  21  22
ENDBRANCH  13  21
ENDBRANCH   2   7
TORSDOF 5
ENDMDL
MODEL       33
REMARK 921   NORMALIZED FREE ENERGY PREDICTED BY IDOCK:   -6.10 KCAL/MOL
REMARK 922        TOTAL FREE ENERGY PREDICTED BY IDOCK:   -8.52 KCAL/MOL
REMARK 923 INTER-LIGAND FREE ENERGY PREDICTED BY IDOCK:   -8.45 KCAL/MOL
REMARK 924 INTRA-LIGAND FREE ENERGY PREDICTED BY IDOCK:   -0.07 KCAL/MOL
REMARK 927      BINDING AFFINITY PREDICTED BY RF-SCORE:    0.00 PKD
ROOT
HETATM    1  N   UNL     1      -9.121   7.106  70.106  1.00  0.00    -0.152 N  
HETATM    2  S   UNL     1     -10.527   7.336  69.221  1.00  0.00    -0.215 S  
HETATM    3  H1  UNL     1      -9.418   7.156  71.080  1.00  0.00     0.000 HD 
HETATM    4  H2  UNL     1      -8.178   6.950  69.750  1.00  0.00     0.000 HD 
HETATM    5  O   UNL     1     -10.105   7.265  67.840  1.00  0.00    -0.161 OA 
HETATM    6  O   UNL     1     -11.529   6.450  69.758  1.00  0.00    -0.412 OA 
ENDROOT
BRANCH   2   7
HETATM    7  C   UNL     1     -10.971   9.005  69.586  1.00  0.00    -0.136 A  
HETATM    8  C   UNL     1     -10.883   9.951  68.559  1.00  0.00    -0.257 A  
HETATM    9  C   UNL     1     -11.250  11.276  68.814  1.00  0.00    -0.250 A  
HETATM   10  C   UNL     1     -11.709  11.697  70.054  1.00  0.00    -0.321 A  
HETATM   11  N   UNL     1     -12.061  13.014  70.381  1.00  0.00    -0.355 NA 
HETATM   12  C   UNL     1     -11.795  10.732  71.067  1.00  0.00    -0.349 A  
HETATM   13  C   UNL     1     -12.145  13.952  69.496  1.00  0.00    -0.342 C  
HETATM   14  C   UNL     1     -11.433   9.392  70.845  1.00  0.00    -0.316 A  
HETATM   15  N   UNL     1     -11.916  13.761  68.130  1.00  0.00    -0.374 N  
HETATM   16  O   UNL     1      -9.762  12.791  67.343  1.00  0.00    -0.192 OA 
HETATM   17 CL   UNL     1     -11.581   8.312  72.185  1.00  0.00    -0.398 Cl 
HETATM   18  S   UNL     1     -11.150  12.435  67.520  1.00  0.00    -0.283 S  
HETATM   19  H   UNL     1     -12.239  14.477  67.479  1.00  0.00     0.000 HD 
HETATM   20  O   UNL     1     -11.960  11.953  66.424  1.00  0.00    -0.572 OA 
BRANCH  13  21
HETATM   21  C   UNL     1     -12.499  15.371  69.898  1.00  0.00    -0.240 C  
BRANCH  21  22
HETATM   22  S   UNL     1     -11.025  16.443  69.927  1.00  0.00    -0.262 SA 
BRANCH  22  23
HETATM   23  C   UNL     1     -10.766  16.754  68.144  1.00  0.00    -0.361 C  
BRANCH  23  24
HETATM   24  C   UNL     1      -9.982  18.025  67.938  1.00  0.00    -0.335 A  
HETATM   25  C   UNL     1     -10.468  19.021  67.075  1.00  0.00    -0.514 A  
HETATM   26  C   UNL     1      -9.711  20.162  66.811  1.00  0.00    -0.577 A  
HETATM   27  C   UNL     1      -8.463  20.324  67.410  1.00  0.00    -0.405 A  
HETATM   28  C   UNL     1      -7.980  19.354  68.286  1.00  0.00    -0.366 A  
HETATM   29  C   UNL     1      -8.735  18.210  68.550  1.00  0.00    -0.309 A  
ENDBRANCH  23  24
ENDBRANCH  22  23
ENDBRANCH  21  22
ENDBRANCH  13  21
ENDBRANCH   2   7
TORSDOF 5
ENDMDL
MODEL       34
REMARK 921   NORMALIZED FREE ENERGY PREDICTED BY IDOCK:   -6.04 KCAL/MOL
REMARK 922        TOTAL FREE ENERGY PREDICTED BY IDOCK:   -8.45 KCAL/MOL
REMARK 923 INTER-LIGAND FREE ENERGY PREDICTED BY IDOCK:   -8.02 KCAL/MOL
REMARK 924 INTRA-LIGAND FREE ENERGY PREDICTED BY IDOCK:   -0.43 KCAL/MOL
REMARK 927      BINDING AFFINITY PREDICTED BY RF-SCORE:    0.00 PKD
ROOT
HETATM    1  N   UNL     1      -5.725  19.152  67.144  1.00  0.00    -0.170 N  
HETATM    2  S   UNL     1      -7.140  19.768  66.486  1.00  0.00    -0.245 S  
HETATM    3  H1  UNL     1      -5.539  18.304  66.609  1.00  0.00     0.000 HD 
HETATM    4  H2  UNL     1      -5.173  19.540  67.908  1.00  0.00     0.000 HD 
HETATM    5  O   UNL     1      -7.403  20.970  67.244  1.00  0.00    -0.363 OA 
HETATM    6  O   UNL     1      -6.980  19.791  65.054  1.00  0.00    -0.367 OA 
ENDROOT
BRANCH   2   7
HETATM    7  C   UNL     1      -8.351  18.559  66.916  1.00  0.00    -0.263 A  
HETATM    8  C   UNL     1      -7.914  17.366  67.502  1.00  0.00    -0.205 A  
HETATM    9  C   UNL     1      -8.853  16.399  67.873  1.00  0.00    -0.184 A  
HETATM   10  C   UNL     1     -10.217  16.577  67.690  1.00  0.00    -0.279 A  
HETATM   11  N   UNL     1     -11.205  15.635  68.012  1.00  0.00    -0.341 NA 
HETATM   12  C   UNL     1     -10.635  17.782  67.108  1.00  0.00    -0.292 A  
HETATM   13  C   UNL     1     -10.948  14.552  68.669  1.00  0.00    -0.251 C  
HETATM   14  C   UNL     1      -9.717  18.773  66.722  1.00  0.00    -0.329 A  
HETATM   15  N   UNL     1      -9.678  14.210  69.145  1.00  0.00    -0.422 N  
HETATM   16  O   UNL     1      -7.745  14.085  67.580  1.00  0.00    -0.163 OA 
HETATM   17 CL   UNL     1     -10.370  20.204  66.009  1.00  0.00    -0.534 Cl 
HETATM   18  S   UNL     1      -8.292  14.929  68.615  1.00  0.00    -0.170 S  
HETATM   19  H   UNL     1      -9.605  13.480  69.854  1.00  0.00     0.000 HD 
HETATM   20  O   UNL     1      -7.531  15.284  69.791  1.00  0.00    -0.201 OA 
BRANCH  13  21
HETATM   21  C   UNL     1     -12.041  13.546  68.968  1.00  0.00    -0.291 C  
BRANCH  21  22
HETATM   22  S   UNL     1     -11.422  11.835  68.848  1.00  0.00    -0.326 SA 
BRANCH  22  23
HETATM   23  C   UNL     1     -12.526  10.966  70.019  1.00  0.00    -0.263 C  
BRANCH  23  24
HETATM   24  C   UNL     1     -11.773   9.883  70.750  1.00  0.00    -0.424 A  
HETATM   25  C   UNL     1     -12.424   9.104  71.721  1.00  0.00    -0.447 A  
HETATM   26  C   UNL     1     -11.715   8.160  72.463  1.00  0.00    -0.457 A  
HETATM   27  C   UNL     1     -10.351   7.979  72.242  1.00  0.00    -0.336 A  
HETATM   28  C   UNL     1      -9.699   8.729  71.265  1.00  0.00    -0.335 A  
HETATM   29  C   UNL     1     -10.405   9.677  70.522  1.00  0.00    -0.359 A  
ENDBRANCH  23  24
ENDBRANCH  22  23
ENDBRANCH  21  22
ENDBRANCH  13  21
ENDBRANCH   2   7
TORSDOF 5
ENDMDL
MODEL       35
REMARK 921   NORMALIZED FREE ENERGY PREDICTED BY IDOCK:   -5.99 KCAL/MOL
REMARK 922        TOTAL FREE ENERGY PREDICTED BY IDOCK:   -8.39 KCAL/MOL
REMARK 923 INTER-LIGAND FREE ENERGY PREDICTED BY IDOCK:   -7.89 KCAL/MOL
REMARK 924 INTRA-LIGAND FREE ENERGY PREDICTED BY IDOCK:   -0.50 KCAL/MOL
REMARK 927      BINDING AFFINITY PREDICTED BY RF-SCORE:    0.00 PKD
ROOT
HETATM    1  N   UNL     1     -11.615   9.622  69.203  1.00  0.00    -0.412 N  
HETATM    2  S   UNL     1     -12.245  10.384  70.559  1.00  0.00    -0.327 S  
HETATM    3  H1  UNL     1     -10.617   9.830  69.231  1.00  0.00     0.000 HD 
HETATM    4  H2  UNL     1     -12.118   9.073  68.507  1.00  0.00     0.000 HD 
HETATM    5  O   UNL     1     -13.659  10.088  70.520  1.00  0.00    -0.104 OA 
HETATM    6  O   UNL     1     -11.422  10.019  71.684  1.00  0.00    -0.282 OA 
ENDROOT
BRANCH   2   7
HETATM    7  C   UNL     1     -12.021  12.098  70.206  1.00  0.00    -0.305 A  
HETATM    8  C   UNL     1     -11.254  12.447  69.089  1.00  0.00    -0.295 A  
HETATM    9  C   UNL     1     -11.079  13.798  68.772  1.00  0.00    -0.266 A  
HETATM   10  C   UNL     1     -11.645  14.819  69.523  1.00  0.00    -0.304 A  
HETATM   11  N   UNL     1     -11.481  16.189  69.276  1.00  0.00    -0.327 NA 
HETATM   12  C   UNL     1     -12.416  14.447  70.633  1.00  0.00    -0.419 A  
HETATM   13  C   UNL     1     -10.905  16.641  68.212  1.00  0.00    -0.356 C  
HETATM   14  C   UNL     1     -12.610  13.099  70.980  1.00  0.00    -0.312 A  
HETATM   15  N   UNL     1     -10.403  15.829  67.190  1.00  0.00    -0.285 N  
HETATM   16  O   UNL     1      -8.740  14.049  67.705  1.00  0.00    -0.165 OA 
HETATM   17 CL   UNL     1     -13.576  12.786  72.378  1.00  0.00    -0.622 Cl 
HETATM   18  S   UNL     1     -10.134  14.213  67.371  1.00  0.00    -0.241 S  
HETATM   19  H   UNL     1     -10.193  16.258  66.288  1.00  0.00     0.000 HD 
HETATM   20  O   UNL     1     -10.726  13.561  66.225  1.00  0.00    -0.284 OA 
BRANCH  13  21
HETATM   21  C   UNL     1     -10.720  18.131  68.000  1.00  0.00    -0.277 C  
BRANCH  21  22
HETATM   22  S   UNL     1     -10.311  18.512  66.265  1.00  0.00    -0.401 SA 
BRANCH  22  23
HETATM   23  C   UNL     1      -9.142  19.904  66.463  1.00  0.00    -0.379 C  
BRANCH  23  24
HETATM   24  C   UNL     1      -7.771  19.517  65.969  1.00  0.00    -0.322 A  
HETATM   25  C   UNL     1      -7.286  18.216  66.182  1.00  0.00    -0.316 A  
HETATM   26  C   UNL     1      -5.988  17.873  65.805  1.00  0.00    -0.223 A  
HETATM   27  C   UNL     1      -5.161  18.823  65.207  1.00  0.00    -0.204 A  
HETATM   28  C   UNL     1      -5.639  20.110  64.969  1.00  0.00    -0.210 A  
HETATM   29  C   UNL     1      -6.937  20.457  65.347  1.00  0.00    -0.249 A  
ENDBRANCH  23  24
ENDBRANCH  22  23
ENDBRANCH  21  22
ENDBRANCH  13  21
ENDBRANCH   2   7
TORSDOF 5
ENDMDL
MODEL       36
REMARK 921   NORMALIZED FREE ENERGY PREDICTED BY IDOCK:   -5.98 KCAL/MOL
REMARK 922        TOTAL FREE ENERGY PREDICTED BY IDOCK:   -8.38 KCAL/MOL
REMARK 923 INTER-LIGAND FREE ENERGY PREDICTED BY IDOCK:   -8.07 KCAL/MOL
REMARK 924 INTRA-LIGAND FREE ENERGY PREDICTED BY IDOCK:   -0.31 KCAL/MOL
REMARK 927      BINDING AFFINITY PREDICTED BY RF-SCORE:    0.00 PKD
ROOT
HETATM    1  N   UNL     1      -9.161   6.199  69.844  1.00  0.00    -0.142 N  
HETATM    2  S   UNL     1     -10.530   6.605  68.962  1.00  0.00    -0.233 S  
HETATM    3  H1  UNL     1      -9.326   6.590  70.771  1.00  0.00     0.000 HD 
HETATM    4  H2  UNL     1      -8.345   5.677  69.524  1.00  0.00     0.000 HD 
HETATM    5  O   UNL     1     -10.296   6.050  67.648  1.00  0.00    -0.160 OA 
HETATM    6  O   UNL     1     -11.679   6.237  69.750  1.00  0.00    -0.403 OA 
ENDROOT
BRANCH   2   7
HETATM    7  C   UNL     1     -10.439   8.363  68.853  1.00  0.00    -0.189 A  
HETATM    8  C   UNL     1     -10.009   8.928  67.647  1.00  0.00    -0.248 A  
HETATM    9  C   UNL     1      -9.949  10.320  67.524  1.00  0.00    -0.189 A  
HETATM   10  C   UNL     1     -10.308  11.175  68.556  1.00  0.00    -0.193 A  
HETATM   11  N   UNL     1     -10.240  12.575  68.507  1.00  0.00    -0.225 NA 
HETATM   12  C   UNL     1     -10.743  10.589  69.753  1.00  0.00    -0.314 A  
HETATM   13  C   UNL     1      -9.981  13.221  67.418  1.00  0.00    -0.233 C  
HETATM   14  C   UNL     1     -10.814   9.194  69.910  1.00  0.00    -0.228 A  
HETATM   15  N   UNL     1      -9.761  12.610  66.180  1.00  0.00    -0.259 N  
HETATM   16  O   UNL     1      -7.990  10.877  65.935  1.00  0.00    -0.157 OA 
HETATM   17 CL   UNL     1     -11.359   8.609  71.441  1.00  0.00    -0.325 Cl 
HETATM   18  S   UNL     1      -9.426  11.005  66.013  1.00  0.00    -0.216 S  
HETATM   19  H   UNL     1      -9.810  13.186  65.339  1.00  0.00     0.000 HD 
HETATM   20  O   UNL     1     -10.294  10.504  64.972  1.00  0.00    -0.316 OA 
BRANCH  13  21
HETATM   21  C   UNL     1      -9.887  14.734  67.416  1.00  0.00    -0.222 C  
BRANCH  21  22
HETATM   22  S   UNL     1     -10.035  15.414  69.101  1.00  0.00    -0.255 SA 
BRANCH  22  23
HETATM   23  C   UNL     1     -11.812  15.840  69.166  1.00  0.00    -0.354 C  
BRANCH  23  24
HETATM   24  C   UNL     1     -12.341  15.684  70.570  1.00  0.00    -0.443 A  
HETATM   25  C   UNL     1     -13.646  15.211  70.782  1.00  0.00    -0.299 A  
HETATM   26  C   UNL     1     -14.175  15.145  72.071  1.00  0.00    -0.673 A  
HETATM   27  C   UNL     1     -13.406  15.545  73.162  1.00  0.00    -0.632 A  
HETATM   28  C   UNL     1     -12.101  15.995  72.966  1.00  0.00    -0.628 A  
HETATM   29  C   UNL     1     -11.570  16.065  71.677  1.00  0.00    -0.538 A  
ENDBRANCH  23  24
ENDBRANCH  22  23
ENDBRANCH  21  22
ENDBRANCH  13  21
ENDBRANCH   2   7
TORSDOF 5
ENDMDL
MODEL       37
REMARK 921   NORMALIZED FREE ENERGY PREDICTED BY IDOCK:   -5.97 KCAL/MOL
REMARK 922        TOTAL FREE ENERGY PREDICTED BY IDOCK:   -8.37 KCAL/MOL
REMARK 923 INTER-LIGAND FREE ENERGY PREDICTED BY IDOCK:   -8.08 KCAL/MOL
REMARK 924 INTRA-LIGAND FREE ENERGY PREDICTED BY IDOCK:   -0.28 KCAL/MOL
REMARK 927      BINDING AFFINITY PREDICTED BY RF-SCORE:    0.00 PKD
ROOT
HETATM    1  N   UNL     1     -11.670   8.081  69.968  1.00  0.00    -0.424 N  
HETATM    2  S   UNL     1     -12.017   9.285  71.083  1.00  0.00    -0.331 S  
HETATM    3  H1  UNL     1     -10.671   8.179  69.784  1.00  0.00     0.000 HD 
HETATM    4  H2  UNL     1     -12.313   7.401  69.564  1.00  0.00     0.000 HD 
HETATM    5  O   UNL     1     -13.432   9.144  71.343  1.00  0.00    -0.350 OA 
HETATM    6  O   UNL     1     -11.037   9.198  72.136  1.00  0.00    -0.316 OA 
ENDROOT
BRANCH   2   7
HETATM    7  C   UNL     1     -11.760  10.773  70.171  1.00  0.00    -0.339 A  
HETATM    8  C   UNL     1     -11.011  10.703  68.991  1.00  0.00    -0.295 A  
HETATM    9  C   UNL     1     -10.811  11.863  68.236  1.00  0.00    -0.224 A  
HETATM   10  C   UNL     1     -11.335  13.094  68.607  1.00  0.00    -0.289 A  
HETATM   11  N   UNL     1     -11.143  14.296  67.911  1.00  0.00    -0.269 NA 
HETATM   12  C   UNL     1     -12.088  13.140  69.788  1.00  0.00    -0.336 A  
HETATM   13  C   UNL     1     -10.581  14.346  66.749  1.00  0.00    -0.282 C  
HETATM   14  C   UNL     1     -12.307  11.994  70.571  1.00  0.00    -0.282 A  
HETATM   15  N   UNL     1     -10.124  13.223  66.053  1.00  0.00    -0.294 N  
HETATM   16  O   UNL     1      -8.492  11.670  67.114  1.00  0.00    -0.149 OA 
HETATM   17 CL   UNL     1     -13.246  12.198  72.006  1.00  0.00    -0.576 Cl 
HETATM   18  S   UNL     1      -9.890  11.754  66.764  1.00  0.00    -0.202 S  
HETATM   19  H   UNL     1      -9.924  13.317  65.057  1.00  0.00     0.000 HD 
HETATM   20  O   UNL     1     -10.524  10.774  65.912  1.00  0.00    -0.252 OA 
BRANCH  13  21
HETATM   21  C   UNL     1     -10.366  15.672  66.046  1.00  0.00    -0.335 C  
BRANCH  21  22
HETATM   22  S   UNL     1      -8.794  16.446  66.549  1.00  0.00    -0.309 SA 
BRANCH  22  23
HETATM   23  C   UNL     1      -9.240  18.219  66.532  1.00  0.00    -0.292 C  
BRANCH  23  24
HETATM   24  C   UNL     1      -8.167  19.040  67.203  1.00  0.00    -0.286 A  
HETATM   25  C   UNL     1      -7.917  20.355  66.780  1.00  0.00    -0.295 A  
HETATM   26  C   UNL     1      -6.871  21.092  67.335  1.00  0.00    -0.434 A  
HETATM   27  C   UNL     1      -6.066  20.526  68.322  1.00  0.00    -0.346 A  
HETATM   28  C   UNL     1      -6.319  19.229  68.767  1.00  0.00    -0.282 A  
HETATM   29  C   UNL     1      -7.364  18.489  68.212  1.00  0.00    -0.294 A  
ENDBRANCH  23  24
ENDBRANCH  22  23
ENDBRANCH  21  22
ENDBRANCH  13  21
ENDBRANCH   2   7
TORSDOF 5
ENDMDL
MODEL       38
REMARK 921   NORMALIZED FREE ENERGY PREDICTED BY IDOCK:   -5.97 KCAL/MOL
REMARK 922        TOTAL FREE ENERGY PREDICTED BY IDOCK:   -8.36 KCAL/MOL
REMARK 923 INTER-LIGAND FREE ENERGY PREDICTED BY IDOCK:   -7.59 KCAL/MOL
REMARK 924 INTRA-LIGAND FREE ENERGY PREDICTED BY IDOCK:   -0.77 KCAL/MOL
REMARK 927      BINDING AFFINITY PREDICTED BY RF-SCORE:    0.00 PKD
ROOT
HETATM    1  N   UNL     1      -9.108  11.557  62.728  1.00  0.00    -0.504 N  
HETATM    2  S   UNL     1      -8.516  10.107  63.327  1.00  0.00    -0.200 S  
HETATM    3  H1  UNL     1      -8.670  12.274  63.308  1.00  0.00     0.000 HD 
HETATM    4  H2  UNL     1      -9.759  11.694  61.956  1.00  0.00     0.000 HD 
HETATM    5  O   UNL     1      -9.135   9.092  62.505  1.00  0.00    -0.202 OA 
HETATM    6  O   UNL     1      -7.084  10.231  63.433  1.00  0.00    -0.137 OA 
ENDROOT
BRANCH   2   7
HETATM    7  C   UNL     1      -9.212  10.018  64.946  1.00  0.00    -0.239 A  
HETATM    8  C   UNL     1      -9.913  11.130  65.424  1.00  0.00    -0.309 A  
HETATM    9  C   UNL     1     -10.495  11.080  66.695  1.00  0.00    -0.256 A  
HETATM   10  C   UNL     1     -10.412   9.959  67.508  1.00  0.00    -0.255 A  
HETATM   11  N   UNL     1     -10.945   9.858  68.801  1.00  0.00    -0.208 NA 
HETATM   12  C   UNL     1      -9.712   8.853  67.007  1.00  0.00    -0.249 A  
HETATM   13  C   UNL     1     -11.718  10.760  69.309  1.00  0.00    -0.303 C  
HETATM   14  C   UNL     1      -9.114   8.871  65.735  1.00  0.00    -0.221 A  
HETATM   15  N   UNL     1     -12.120  11.916  68.631  1.00  0.00    -0.218 N  
HETATM   16  O   UNL     1     -10.421  13.467  67.680  1.00  0.00    -0.236 OA 
HETATM   17 CL   UNL     1      -8.274   7.442  65.249  1.00  0.00    -0.134 Cl 
HETATM   18  S   UNL     1     -11.376  12.467  67.267  1.00  0.00    -0.336 S  
HETATM   19  H   UNL     1     -12.912  12.443  68.999  1.00  0.00     0.000 HD 
HETATM   20  O   UNL     1     -12.421  12.758  66.312  1.00  0.00    -0.477 OA 
BRANCH  13  21
HETATM   21  C   UNL     1     -12.248  10.626  70.723  1.00  0.00    -0.375 C  
BRANCH  21  22
HETATM   22  S   UNL     1     -11.364   9.324  71.644  1.00  0.00    -0.377 SA 
BRANCH  22  23
HETATM   23  C   UNL     1     -12.430   7.871  71.335  1.00  0.00    -0.309 C  
BRANCH  23  24
HETATM   24  C   UNL     1     -11.593   6.666  70.988  1.00  0.00    -0.399 A  
HETATM   25  C   UNL     1     -11.008   5.897  72.007  1.00  0.00    -0.319 A  
HETATM   26  C   UNL     1     -10.162   4.833  71.696  1.00  0.00    -0.249 A  
HETATM   27  C   UNL     1      -9.895   4.521  70.364  1.00  0.00    -0.302 A  
HETATM   28  C   UNL     1     -10.487   5.263  69.343  1.00  0.00    -0.284 A  
HETATM   29  C   UNL     1     -11.332   6.330  69.652  1.00  0.00    -0.492 A  
ENDBRANCH  23  24
ENDBRANCH  22  23
ENDBRANCH  21  22
ENDBRANCH  13  21
ENDBRANCH   2   7
TORSDOF 5
ENDMDL
MODEL       39
REMARK 921   NORMALIZED FREE ENERGY PREDICTED BY IDOCK:   -5.95 KCAL/MOL
REMARK 922        TOTAL FREE ENERGY PREDICTED BY IDOCK:   -8.33 KCAL/MOL
REMARK 923 INTER-LIGAND FREE ENERGY PREDICTED BY IDOCK:   -7.92 KCAL/MOL
REMARK 924 INTRA-LIGAND FREE ENERGY PREDICTED BY IDOCK:   -0.41 KCAL/MOL
REMARK 927      BINDING AFFINITY PREDICTED BY RF-SCORE:    0.00 PKD
ROOT
HETATM    1  N   UNL     1      -7.868   2.588  69.841  1.00  0.00    -0.043 N  
HETATM    2  S   UNL     1      -8.784   3.083  68.526  1.00  0.00    -0.114 S  
HETATM    3  H1  UNL     1      -8.547   2.208  70.500  1.00  0.00     0.000 HD 
HETATM    4  H2  UNL     1      -6.857   2.653  69.957  1.00  0.00     0.000 HD 
HETATM    5  O   UNL     1      -7.821   3.621  67.592  1.00  0.00    -0.077 OA 
HETATM    6  O   UNL     1      -9.661   1.995  68.173  1.00  0.00    -0.208 OA 
ENDROOT
BRANCH   2   7
HETATM    7  C   UNL     1      -9.742   4.415  69.173  1.00  0.00    -0.170 A  
HETATM    8  C   UNL     1      -9.805   4.570  70.562  1.00  0.00    -0.297 A  
HETATM    9  C   UNL     1     -10.539   5.631  71.102  1.00  0.00    -0.245 A  
HETATM   10  C   UNL     1     -11.210   6.552  70.311  1.00  0.00    -0.374 A  
HETATM   11  N   UNL     1     -11.987   7.615  70.791  1.00  0.00    -0.223 NA 
HETATM   12  C   UNL     1     -11.129   6.383  68.921  1.00  0.00    -0.420 A  
HETATM   13  C   UNL     1     -12.024   7.942  72.040  1.00  0.00    -0.319 C  
HETATM   14  C   UNL     1     -10.401   5.327  68.346  1.00  0.00    -0.108 A  
HETATM   15  N   UNL     1     -11.291   7.294  73.040  1.00  0.00    -0.556 N  
HETATM   16  O   UNL     1     -11.509   4.835  73.360  1.00  0.00    -0.338 OA 
HETATM   17 CL   UNL     1     -10.394   5.234  66.621  1.00  0.00    -0.293 Cl 
HETATM   18  S   UNL     1     -10.592   5.816  72.832  1.00  0.00    -0.249 S  
HETATM   19  H   UNL     1     -11.184   7.759  73.941  1.00  0.00     0.000 HD 
HETATM   20  O   UNL     1      -9.234   5.927  73.311  1.00  0.00    -0.133 OA 
BRANCH  13  21
HETATM   21  C   UNL     1     -12.903   9.080  72.521  1.00  0.00    -0.338 C  
BRANCH  21  22
HETATM   22  S   UNL     1     -13.535  10.069  71.126  1.00  0.00    -0.098 SA 
BRANCH  22  23
HETATM   23  C   UNL     1     -12.130  11.195  70.810  1.00  0.00    -0.357 C  
BRANCH  23  24
HETATM   24  C   UNL     1     -12.540  12.628  71.038  1.00  0.00    -0.354 A  
HETATM   25  C   UNL     1     -13.476  12.943  72.036  1.00  0.00    -0.568 A  
HETATM   26  C   UNL     1     -13.927  14.253  72.197  1.00  0.00    -0.618 A  
HETATM   27  C   UNL     1     -13.444  15.264  71.368  1.00  0.00    -0.588 A  
HETATM   28  C   UNL     1     -12.497  14.968  70.389  1.00  0.00    -0.407 A  
HETATM   29  C   UNL     1     -12.046  13.657  70.223  1.00  0.00    -0.427 A  
ENDBRANCH  23  24
ENDBRANCH  22  23
ENDBRANCH  21  22
ENDBRANCH  13  21
ENDBRANCH   2   7
TORSDOF 5
ENDMDL
MODEL       40
REMARK 921   NORMALIZED FREE ENERGY PREDICTED BY IDOCK:   -5.91 KCAL/MOL
REMARK 922        TOTAL FREE ENERGY PREDICTED BY IDOCK:   -8.28 KCAL/MOL
REMARK 923 INTER-LIGAND FREE ENERGY PREDICTED BY IDOCK:   -7.94 KCAL/MOL
REMARK 924 INTRA-LIGAND FREE ENERGY PREDICTED BY IDOCK:   -0.34 KCAL/MOL
REMARK 927      BINDING AFFINITY PREDICTED BY RF-SCORE:    0.00 PKD
ROOT
HETATM    1  N   UNL     1     -11.842  16.092  72.250  1.00  0.00    -0.497 N  
HETATM    2  S   UNL     1     -13.116  15.055  71.909  1.00  0.00    -0.385 S  
HETATM    3  H1  UNL     1     -11.644  16.558  71.365  1.00  0.00     0.000 HD 
HETATM    4  H2  UNL     1     -11.370  16.227  73.144  1.00  0.00     0.000 HD 
HETATM    5  O   UNL     1     -13.395  14.395  73.165  1.00  0.00    -0.626 OA 
HETATM    6  O   UNL     1     -14.120  15.815  71.208  1.00  0.00    -0.501 OA 
ENDROOT
BRANCH   2   7
HETATM    7  C   UNL     1     -12.401  13.879  70.805  1.00  0.00    -0.378 A  
HETATM    8  C   UNL     1     -12.432  12.528  71.169  1.00  0.00    -0.322 A  
HETATM    9  C   UNL     1     -11.893  11.572  70.303  1.00  0.00    -0.342 A  
HETATM   10  C   UNL     1     -11.329  11.908  69.080  1.00  0.00    -0.279 A  
HETATM   11  N   UNL     1     -10.745  11.001  68.184  1.00  0.00    -0.190 NA 
HETATM   12  C   UNL     1     -11.314  13.265  68.732  1.00  0.00    -0.331 A  
HETATM   13  C   UNL     1     -10.819   9.721  68.340  1.00  0.00    -0.201 C  
HETATM   14  C   UNL     1     -11.846  14.252  69.580  1.00  0.00    -0.329 A  
HETATM   15  N   UNL     1     -11.496   9.101  69.395  1.00  0.00    -0.378 N  
HETATM   16  O   UNL     1     -10.927   9.665  71.753  1.00  0.00    -0.259 OA 
HETATM   17 CL   UNL     1     -11.753  15.886  69.028  1.00  0.00    -0.393 Cl 
HETATM   18  S   UNL     1     -11.954   9.895  70.765  1.00  0.00    -0.327 S  
HETATM   19  H   UNL     1     -11.716   8.108  69.314  1.00  0.00     0.000 HD 
HETATM   20  O   UNL     1     -13.336   9.548  71.005  1.00  0.00    -0.293 OA 
BRANCH  13  21
HETATM   21  C   UNL     1     -10.146   8.777  67.363  1.00  0.00    -0.226 C  
BRANCH  21  22
HETATM   22  S   UNL     1      -8.798   7.843  68.159  1.00  0.00    -0.124 SA 
BRANCH  22  23
HETATM   23  C   UNL     1      -9.322   6.118  67.856  1.00  0.00    -0.113 C  
BRANCH  23  24
HETATM   24  C   UNL     1      -9.649   5.429  69.157  1.00  0.00    -0.193 A  
HETATM   25  C   UNL     1     -10.252   6.148  70.203  1.00  0.00    -0.254 A  
HETATM   26  C   UNL     1     -10.480   5.543  71.439  1.00  0.00    -0.305 A  
HETATM   27  C   UNL     1     -10.114   4.214  71.643  1.00  0.00    -0.198 A  
HETATM   28  C   UNL     1      -9.536   3.484  70.606  1.00  0.00    -0.247 A  
HETATM   29  C   UNL     1      -9.305   4.087  69.369  1.00  0.00    -0.243 A  
ENDBRANCH  23  24
ENDBRANCH  22  23
ENDBRANCH  21  22
ENDBRANCH  13  21
ENDBRANCH   2   7
TORSDOF 5
ENDMDL
MODEL       41
REMARK 921   NORMALIZED FREE ENERGY PREDICTED BY IDOCK:   -5.88 KCAL/MOL
REMARK 922        TOTAL FREE ENERGY PREDICTED BY IDOCK:   -8.25 KCAL/MOL
REMARK 923 INTER-LIGAND FREE ENERGY PREDICTED BY IDOCK:   -7.35 KCAL/MOL
REMARK 924 INTRA-LIGAND FREE ENERGY PREDICTED BY IDOCK:   -0.90 KCAL/MOL
REMARK 927      BINDING AFFINITY PREDICTED BY RF-SCORE:    0.00 PKD
ROOT
HETATM    1  N   UNL     1     -10.746   6.194  71.446  1.00  0.00    -0.246 N  
HETATM    2  S   UNL     1     -11.508   7.615  71.911  1.00  0.00    -0.285 S  
HETATM    3  H1  UNL     1      -9.761   6.446  71.362  1.00  0.00     0.000 HD 
HETATM    4  H2  UNL     1     -11.171   5.282  71.285  1.00  0.00     0.000 HD 
HETATM    5  O   UNL     1     -12.903   7.258  72.031  1.00  0.00    -0.270 OA 
HETATM    6  O   UNL     1     -10.765   8.166  73.016  1.00  0.00    -0.332 OA 
ENDROOT
BRANCH   2   7
HETATM    7  C   UNL     1     -11.316   8.661  70.503  1.00  0.00    -0.218 A  
HETATM    8  C   UNL     1     -10.682   8.136  69.372  1.00  0.00    -0.164 A  
HETATM    9  C   UNL     1     -10.536   8.935  68.234  1.00  0.00    -0.195 A  
HETATM   10  C   UNL     1     -11.006  10.240  68.175  1.00  0.00    -0.274 A  
HETATM   11  N   UNL     1     -10.862  11.101  67.077  1.00  0.00    -0.272 NA 
HETATM   12  C   UNL     1     -11.644  10.744  69.316  1.00  0.00    -0.376 A  
HETATM   13  C   UNL     1     -10.411  10.703  65.934  1.00  0.00    -0.224 C  
HETATM   14  C   UNL     1     -11.806   9.968  70.476  1.00  0.00    -0.303 A  
HETATM   15  N   UNL     1     -10.036   9.384  65.658  1.00  0.00    -0.410 N  
HETATM   16  O   UNL     1      -8.335   8.242  67.073  1.00  0.00    -0.119 OA 
HETATM   17 CL   UNL     1     -12.604  10.719  71.811  1.00  0.00    -0.446 Cl 
HETATM   18  S   UNL     1      -9.758   8.260  66.831  1.00  0.00    -0.249 S  
HETATM   19  H   UNL     1      -9.929   9.104  64.683  1.00  0.00     0.000 HD 
HETATM   20  O   UNL     1     -10.482   7.070  66.448  1.00  0.00    -0.071 OA 
BRANCH  13  21
HETATM   21  C   UNL     1     -10.243  11.675  64.782  1.00  0.00    -0.275 C  
BRANCH  21  22
HETATM   22  S   UNL     1     -11.830  12.448  64.327  1.00  0.00    -0.424 SA 
BRANCH  22  23
HETATM   23  C   UNL     1     -11.417  14.225  64.450  1.00  0.00    -0.310 C  
BRANCH  23  24
HETATM   24  C   UNL     1     -11.046  14.584  65.867  1.00  0.00    -0.327 A  
HETATM   25  C   UNL     1      -9.801  15.174  66.142  1.00  0.00    -0.325 A  
HETATM   26  C   UNL     1      -9.413  15.430  67.456  1.00  0.00    -0.205 A  
HETATM   27  C   UNL     1     -10.264  15.107  68.511  1.00  0.00    -0.231 A  
HETATM   28  C   UNL     1     -11.512  14.543  68.250  1.00  0.00    -0.336 A  
HETATM   29  C   UNL     1     -11.902  14.282  66.935  1.00  0.00    -0.458 A  
ENDBRANCH  23  24
ENDBRANCH  22  23
ENDBRANCH  21  22
ENDBRANCH  13  21
ENDBRANCH   2   7
TORSDOF 5
ENDMDL
MODEL       42
REMARK 921   NORMALIZED FREE ENERGY PREDICTED BY IDOCK:   -5.87 KCAL/MOL
REMARK 922        TOTAL FREE ENERGY PREDICTED BY IDOCK:   -8.24 KCAL/MOL
REMARK 923 INTER-LIGAND FREE ENERGY PREDICTED BY IDOCK:   -7.79 KCAL/MOL
REMARK 924 INTRA-LIGAND FREE ENERGY PREDICTED BY IDOCK:   -0.45 KCAL/MOL
REMARK 927      BINDING AFFINITY PREDICTED BY RF-SCORE:    0.00 PKD
ROOT
HETATM    1  N   UNL     1     -12.842   7.386  70.776  1.00  0.00    -0.589 N  
HETATM    2  S   UNL     1     -11.251   6.862  70.702  1.00  0.00    -0.320 S  
HETATM    3  H1  UNL     1     -13.119   7.510  69.803  1.00  0.00     0.000 HD 
HETATM    4  H2  UNL     1     -13.408   7.546  71.610  1.00  0.00     0.000 HD 
HETATM    5  O   UNL     1     -10.859   6.687  72.082  1.00  0.00    -0.217 OA 
HETATM    6  O   UNL     1     -11.193   5.780  69.751  1.00  0.00    -0.355 OA 
ENDROOT
BRANCH   2   7
HETATM    7  C   UNL     1     -10.391   8.257  70.048  1.00  0.00    -0.212 A  
HETATM    8  C   UNL     1     -11.118   9.428  69.809  1.00  0.00    -0.193 A  
HETATM    9  C   UNL     1     -10.458  10.557  69.312  1.00  0.00    -0.235 A  
HETATM   10  C   UNL     1      -9.096  10.567  69.050  1.00  0.00    -0.181 A  
HETATM   11  N   UNL     1      -8.383  11.654  68.522  1.00  0.00    -0.154 NA 
HETATM   12  C   UNL     1      -8.384   9.386  69.303  1.00  0.00    -0.131 A  
HETATM   13  C   UNL     1      -8.908  12.825  68.376  1.00  0.00    -0.117 C  
HETATM   14  C   UNL     1      -9.018   8.234  69.800  1.00  0.00    -0.146 A  
HETATM   15  N   UNL     1     -10.220  13.145  68.738  1.00  0.00    -0.410 N  
HETATM   16  O   UNL     1     -12.129  11.839  67.816  1.00  0.00    -0.595 OA 
HETATM   17 CL   UNL     1      -8.021   6.847  70.057  1.00  0.00    -0.114 Cl 
HETATM   18  S   UNL     1     -11.376  12.009  69.036  1.00  0.00    -0.294 S  
HETATM   19  H   UNL     1     -10.474  14.130  68.822  1.00  0.00     0.000 HD 
HETATM   20  O   UNL     1     -12.013  12.378  70.280  1.00  0.00    -0.349 OA 
BRANCH  13  21
HETATM   21  C   UNL     1      -8.110  13.965  67.772  1.00  0.00    -0.172 C  
BRANCH  21  22
HETATM   22  S   UNL     1      -9.194  15.335  67.252  1.00  0.00    -0.206 SA 
BRANCH  22  23
HETATM   23  C   UNL     1      -8.744  16.633  68.457  1.00  0.00    -0.242 C  
BRANCH  23  24
HETATM   24  C   UNL     1      -9.142  17.993  67.942  1.00  0.00    -0.269 A  
HETATM   25  C   UNL     1      -8.186  19.018  67.845  1.00  0.00    -0.311 A  
HETATM   26  C   UNL     1      -8.560  20.302  67.451  1.00  0.00    -0.420 A  
HETATM   27  C   UNL     1      -9.892  20.577  67.145  1.00  0.00    -0.567 A  
HETATM   28  C   UNL     1     -10.846  19.563  67.214  1.00  0.00    -0.557 A  
HETATM   29  C   UNL     1     -10.474  18.277  67.610  1.00  0.00    -0.431 A  
ENDBRANCH  23  24
ENDBRANCH  22  23
ENDBRANCH  21  22
ENDBRANCH  13  21
ENDBRANCH   2   7
TORSDOF 5
ENDMDL
MODEL       43
REMARK 921   NORMALIZED FREE ENERGY PREDICTED BY IDOCK:   -5.86 KCAL/MOL
REMARK 922        TOTAL FREE ENERGY PREDICTED BY IDOCK:   -8.22 KCAL/MOL
REMARK 923 INTER-LIGAND FREE ENERGY PREDICTED BY IDOCK:   -7.36 KCAL/MOL
REMARK 924 INTRA-LIGAND FREE ENERGY PREDICTED BY IDOCK:   -0.87 KCAL/MOL
REMARK 927      BINDING AFFINITY PREDICTED BY RF-SCORE:    0.00 PKD
ROOT
HETATM    1  N   UNL     1     -12.008  14.982  72.420  1.00  0.00    -0.363 N  
HETATM    2  S   UNL     1     -13.318  14.156  71.776  1.00  0.00    -0.409 S  
HETATM    3  H1  UNL     1     -11.472  15.289  71.608  1.00  0.00     0.000 HD 
HETATM    4  H2  UNL     1     -11.794  15.142  73.404  1.00  0.00     0.000 HD 
HETATM    5  O   UNL     1     -14.078  13.722  72.926  1.00  0.00    -0.583 OA 
HETATM    6  O   UNL     1     -13.897  14.990  70.752  1.00  0.00    -0.266 OA 
ENDROOT
BRANCH   2   7
HETATM    7  C   UNL     1     -12.580  12.741  71.024  1.00  0.00    -0.271 A  
HETATM    8  C   UNL     1     -12.837  11.486  71.587  1.00  0.00    -0.475 A  
HETATM    9  C   UNL     1     -12.283  10.344  70.999  1.00  0.00    -0.393 A  
HETATM   10  C   UNL     1     -11.487  10.402  69.864  1.00  0.00    -0.297 A  
HETATM   11  N   UNL     1     -10.878   9.300  69.247  1.00  0.00    -0.195 NA 
HETATM   12  C   UNL     1     -11.248  11.668  69.312  1.00  0.00    -0.328 A  
HETATM   13  C   UNL     1     -11.134   8.081  69.589  1.00  0.00    -0.015 C  
HETATM   14  C   UNL     1     -11.788  12.836  69.879  1.00  0.00    -0.301 A  
HETATM   15  N   UNL     1     -12.048   7.725  70.586  1.00  0.00    -0.494 N  
HETATM   16  O   UNL     1     -11.814   8.646  72.888  1.00  0.00    -0.159 OA 
HETATM   17 CL   UNL     1     -11.405  14.329  69.100  1.00  0.00    -0.290 Cl 
HETATM   18  S   UNL     1     -12.626   8.790  71.703  1.00  0.00    -0.362 S  
HETATM   19  H   UNL     1     -12.372   6.758  70.625  1.00  0.00     0.000 HD 
HETATM   20  O   UNL     1     -14.060   8.621  71.736  1.00  0.00    -0.407 OA 
BRANCH  13  21
HETATM   21  C   UNL     1     -10.430   6.919  68.916  1.00  0.00    -0.208 C  
BRANCH  21  22
HETATM   22  S   UNL     1     -10.628   6.979  67.105  1.00  0.00    -0.357 SA 
BRANCH  22  23
HETATM   23  C   UNL     1      -8.960   7.506  66.573  1.00  0.00    -0.162 C  
BRANCH  23  24
HETATM   24  C   UNL     1      -8.795   8.994  66.749  1.00  0.00    -0.144 A  
HETATM   25  C   UNL     1      -9.651   9.883  66.078  1.00  0.00    -0.284 A  
HETATM   26  C   UNL     1      -9.453  11.260  66.165  1.00  0.00    -0.232 A  
HETATM   27  C   UNL     1      -8.402  11.766  66.928  1.00  0.00    -0.170 A  
HETATM   28  C   UNL     1      -7.560  10.896  67.618  1.00  0.00    -0.096 A  
HETATM   29  C   UNL     1      -7.754   9.516  67.530  1.00  0.00    -0.095 A  
ENDBRANCH  23  24
ENDBRANCH  22  23
ENDBRANCH  21  22
ENDBRANCH  13  21
ENDBRANCH   2   7
TORSDOF 5
ENDMDL
MODEL       44
REMARK 921   NORMALIZED FREE ENERGY PREDICTED BY IDOCK:   -5.84 KCAL/MOL
REMARK 922        TOTAL FREE ENERGY PREDICTED BY IDOCK:   -8.19 KCAL/MOL
REMARK 923 INTER-LIGAND FREE ENERGY PREDICTED BY IDOCK:   -7.55 KCAL/MOL
REMARK 924 INTRA-LIGAND FREE ENERGY PREDICTED BY IDOCK:   -0.63 KCAL/MOL
REMARK 927      BINDING AFFINITY PREDICTED BY RF-SCORE:    0.00 PKD
ROOT
HETATM    1  N   UNL     1     -11.777  14.269  63.708  1.00  0.00    -0.641 N  
HETATM    2  S   UNL     1     -12.716  13.097  64.456  1.00  0.00    -0.129 S  
HETATM    3  H1  UNL     1     -11.112  13.744  63.140  1.00  0.00     0.000 HD 
HETATM    4  H2  UNL     1     -11.854  15.281  63.801  1.00  0.00     0.000 HD 
HETATM    5  O   UNL     1     -13.658  13.841  65.260  1.00  0.00    -0.421 OA 
HETATM    6  O   UNL     1     -13.147  12.171  63.438  1.00  0.00    -0.752 OA 
ENDROOT
BRANCH   2   7
HETATM    7  C   UNL     1     -11.577  12.286  65.533  1.00  0.00    -0.371 A  
HETATM    8  C   UNL     1     -11.907  12.188  66.889  1.00  0.00    -0.295 A  
HETATM    9  C   UNL     1     -11.033  11.531  67.762  1.00  0.00    -0.236 A  
HETATM   10  C   UNL     1      -9.843  10.960  67.334  1.00  0.00    -0.173 A  
HETATM   11  N   UNL     1      -8.912  10.318  68.163  1.00  0.00    -0.128 NA 
HETATM   12  C   UNL     1      -9.535  11.063  65.971  1.00  0.00    -0.235 A  
HETATM   13  C   UNL     1      -9.152  10.051  69.404  1.00  0.00    -0.215 C  
HETATM   14  C   UNL     1     -10.390  11.718  65.068  1.00  0.00    -0.281 A  
HETATM   15  N   UNL     1     -10.357  10.350  70.049  1.00  0.00    -0.429 N  
HETATM   16  O   UNL     1     -11.224  12.684  70.065  1.00  0.00     0.033 OA 
HETATM   17 CL   UNL     1      -9.881  11.779  63.418  1.00  0.00    -0.407 Cl 
HETATM   18  S   UNL     1     -11.468  11.405  69.442  1.00  0.00    -0.339 S  
HETATM   19  H   UNL     1     -10.557   9.893  70.939  1.00  0.00     0.000 HD 
HETATM   20  O   UNL     1     -12.753  10.750  69.523  1.00  0.00    -0.257 OA 
BRANCH  13  21
HETATM   21  C   UNL     1      -8.105   9.382  70.273  1.00  0.00    -0.164 C  
BRANCH  21  22
HETATM   22  S   UNL     1      -7.695   7.715  69.658  1.00  0.00    -0.100 SA 
BRANCH  22  23
HETATM   23  C   UNL     1      -8.238   6.668  71.055  1.00  0.00    -0.120 C  
BRANCH  23  24
HETATM   24  C   UNL     1      -9.694   6.913  71.363  1.00  0.00    -0.177 A  
HETATM   25  C   UNL     1     -10.678   6.607  70.408  1.00  0.00    -0.297 A  
HETATM   26  C   UNL     1     -12.018   6.909  70.649  1.00  0.00    -0.400 A  
HETATM   27  C   UNL     1     -12.391   7.514  71.848  1.00  0.00    -0.342 A  
HETATM   28  C   UNL     1     -11.428   7.801  72.813  1.00  0.00    -0.415 A  
HETATM   29  C   UNL     1     -10.085   7.502  72.573  1.00  0.00    -0.262 A  
ENDBRANCH  23  24
ENDBRANCH  22  23
ENDBRANCH  21  22
ENDBRANCH  13  21
ENDBRANCH   2   7
TORSDOF 5
ENDMDL
MODEL       45
REMARK 921   NORMALIZED FREE ENERGY PREDICTED BY IDOCK:   -5.77 KCAL/MOL
REMARK 922        TOTAL FREE ENERGY PREDICTED BY IDOCK:   -8.10 KCAL/MOL
REMARK 923 INTER-LIGAND FREE ENERGY PREDICTED BY IDOCK:   -7.68 KCAL/MOL
REMARK 924 INTRA-LIGAND FREE ENERGY PREDICTED BY IDOCK:   -0.43 KCAL/MOL
REMARK 927      BINDING AFFINITY PREDICTED BY RF-SCORE:    0.00 PKD
ROOT
HETATM    1  N   UNL     1     -10.175   7.056  69.684  1.00  0.00    -0.197 N  
HETATM    2  S   UNL     1     -11.173   7.487  70.961  1.00  0.00    -0.268 S  
HETATM    3  H1  UNL     1      -9.306   7.562  69.853  1.00  0.00     0.000 HD 
HETATM    4  H2  UNL     1     -10.389   6.427  68.910  1.00  0.00     0.000 HD 
HETATM    5  O   UNL     1     -12.404   6.769  70.721  1.00  0.00    -0.377 OA 
HETATM    6  O   UNL     1     -10.419   7.319  72.178  1.00  0.00    -0.198 OA 
ENDROOT
BRANCH   2   7
HETATM    7  C   UNL     1     -11.465   9.206  70.690  1.00  0.00    -0.262 A  
HETATM    8  C   UNL     1     -10.714   9.855  69.705  1.00  0.00    -0.277 A  
HETATM    9  C   UNL     1     -10.940  11.212  69.453  1.00  0.00    -0.244 A  
HETATM   10  C   UNL     1     -11.892  11.949  70.142  1.00  0.00    -0.308 A  
HETATM   11  N   UNL     1     -12.144  13.317  69.959  1.00  0.00    -0.328 NA 
HETATM   12  C   UNL     1     -12.639  11.278  71.120  1.00  0.00    -0.501 A  
HETATM   13  C   UNL     1     -11.611  14.000  69.001  1.00  0.00    -0.306 C  
HETATM   14  C   UNL     1     -12.435   9.915  71.399  1.00  0.00    -0.398 A  
HETATM   15  N   UNL     1     -10.752  13.460  68.039  1.00  0.00    -0.242 N  
HETATM   16  O   UNL     1      -8.687  12.256  68.738  1.00  0.00    -0.024 OA 
HETATM   17 CL   UNL     1     -13.419   9.218  72.636  1.00  0.00    -0.455 Cl 
HETATM   18  S   UNL     1     -10.007  12.000  68.213  1.00  0.00    -0.202 S  
HETATM   19  H   UNL     1     -10.576  13.996  67.189  1.00  0.00     0.000 HD 
HETATM   20  O   UNL     1     -10.209  11.279  66.977  1.00  0.00    -0.204 OA 
BRANCH  13  21
HETATM   21  C   UNL     1     -11.887  15.484  68.858  1.00  0.00    -0.338 C  
BRANCH  21  22
HETATM   22  S   UNL     1     -10.368  16.468  69.081  1.00  0.00    -0.331 SA 
BRANCH  22  23
HETATM   23  C   UNL     1     -10.140  17.170  67.408  1.00  0.00    -0.301 C  
BRANCH  23  24
HETATM   24  C   UNL     1      -9.133  18.292  67.439  1.00  0.00    -0.253 A  
HETATM   25  C   UNL     1      -8.169  18.346  68.459  1.00  0.00    -0.338 A  
HETATM   26  C   UNL     1      -7.289  19.424  68.546  1.00  0.00    -0.368 A  
HETATM   27  C   UNL     1      -7.358  20.458  67.614  1.00  0.00    -0.338 A  
HETATM   28  C   UNL     1      -8.295  20.405  66.584  1.00  0.00    -0.231 A  
HETATM   29  C   UNL     1      -9.179  19.328  66.495  1.00  0.00    -0.388 A  
ENDBRANCH  23  24
ENDBRANCH  22  23
ENDBRANCH  21  22
ENDBRANCH  13  21
ENDBRANCH   2   7
TORSDOF 5
ENDMDL
MODEL       46
REMARK 921   NORMALIZED FREE ENERGY PREDICTED BY IDOCK:   -5.73 KCAL/MOL
REMARK 922        TOTAL FREE ENERGY PREDICTED BY IDOCK:   -8.05 KCAL/MOL
REMARK 923 INTER-LIGAND FREE ENERGY PREDICTED BY IDOCK:   -7.72 KCAL/MOL
REMARK 924 INTRA-LIGAND FREE ENERGY PREDICTED BY IDOCK:   -0.33 KCAL/MOL
REMARK 927      BINDING AFFINITY PREDICTED BY RF-SCORE:    0.00 PKD
ROOT
HETATM    1  N   UNL     1     -11.028  14.846  64.736  1.00  0.00    -0.547 N  
HETATM    2  S   UNL     1     -12.036  13.940  65.724  1.00  0.00    -0.452 S  
HETATM    3  H1  UNL     1     -11.068  14.381  63.830  1.00  0.00     0.000 HD 
HETATM    4  H2  UNL     1     -10.493  15.678  64.986  1.00  0.00     0.000 HD 
HETATM    5  O   UNL     1     -11.979  14.600  67.008  1.00  0.00    -0.382 OA 
HETATM    6  O   UNL     1     -13.280  13.752  65.019  1.00  0.00    -0.733 OA 
ENDROOT
BRANCH   2   7
HETATM    7  C   UNL     1     -11.200  12.392  65.852  1.00  0.00    -0.336 A  
HETATM    8  C   UNL     1     -10.874  11.921  67.128  1.00  0.00    -0.301 A  
HETATM    9  C   UNL     1     -10.231  10.686  67.261  1.00  0.00    -0.208 A  
HETATM   10  C   UNL     1      -9.905   9.895  66.168  1.00  0.00    -0.260 A  
HETATM   11  N   UNL     1      -9.234   8.666  66.233  1.00  0.00    -0.187 NA 
HETATM   12  C   UNL     1     -10.248  10.381  64.899  1.00  0.00    -0.330 A  
HETATM   13  C   UNL     1      -8.990   8.063  67.349  1.00  0.00    -0.134 C  
HETATM   14  C   UNL     1     -10.892  11.619  64.731  1.00  0.00    -0.308 A  
HETATM   15  N   UNL     1      -9.377   8.551  68.602  1.00  0.00    -0.142 N  
HETATM   16  O   UNL     1      -8.687  10.831  69.327  1.00  0.00    -0.131 OA 
HETATM   17 CL   UNL     1     -11.247  12.098  63.110  1.00  0.00    -0.360 Cl 
HETATM   18  S   UNL     1      -9.846  10.111  68.857  1.00  0.00    -0.200 S  
HETATM   19  H   UNL     1      -9.368   7.911  69.396  1.00  0.00     0.000 HD 
HETATM   20  O   UNL     1     -11.072  10.057  69.620  1.00  0.00    -0.242 OA 
BRANCH  13  21
HETATM   21  C   UNL     1      -8.233   6.750  67.376  1.00  0.00    -0.122 C  
BRANCH  21  22
HETATM   22  S   UNL     1      -7.845   6.238  69.082  1.00  0.00    -0.106 SA 
BRANCH  22  23
HETATM   23  C   UNL     1      -9.069   4.907  69.350  1.00  0.00    -0.105 C  
BRANCH  23  24
HETATM   24  C   UNL     1     -10.133   5.356  70.320  1.00  0.00    -0.318 A  
HETATM   25  C   UNL     1     -11.100   6.294  69.923  1.00  0.00    -0.469 A  
HETATM   26  C   UNL     1     -12.034   6.780  70.837  1.00  0.00    -0.437 A  
HETATM   27  C   UNL     1     -12.018   6.331  72.156  1.00  0.00    -0.338 A  
HETATM   28  C   UNL     1     -11.078   5.382  72.557  1.00  0.00    -0.310 A  
HETATM   29  C   UNL     1     -10.140   4.896  71.645  1.00  0.00    -0.266 A  
ENDBRANCH  23  24
ENDBRANCH  22  23
ENDBRANCH  21  22
ENDBRANCH  13  21
ENDBRANCH   2   7
TORSDOF 5
ENDMDL
MODEL       47
REMARK 921   NORMALIZED FREE ENERGY PREDICTED BY IDOCK:   -5.72 KCAL/MOL
REMARK 922        TOTAL FREE ENERGY PREDICTED BY IDOCK:   -8.04 KCAL/MOL
REMARK 923 INTER-LIGAND FREE ENERGY PREDICTED BY IDOCK:   -7.14 KCAL/MOL
REMARK 924 INTRA-LIGAND FREE ENERGY PREDICTED BY IDOCK:   -0.90 KCAL/MOL
REMARK 927      BINDING AFFINITY PREDICTED BY RF-SCORE:    0.00 PKD
ROOT
HETATM    1  N   UNL     1     -12.028  15.585  72.415  1.00  0.00    -0.408 N  
HETATM    2  S   UNL     1     -13.311  14.685  71.816  1.00  0.00    -0.394 S  
HETATM    3  H1  UNL     1     -11.619  16.029  71.593  1.00  0.00     0.000 HD 
HETATM    4  H2  UNL     1     -11.725  15.670  73.385  1.00  0.00     0.000 HD 
HETATM    5  O   UNL     1     -13.891  14.057  72.981  1.00  0.00    -0.565 OA 
HETATM    6  O   UNL     1     -14.080  15.545  70.953  1.00  0.00    -0.460 OA 
ENDROOT
BRANCH   2   7
HETATM    7  C   UNL     1     -12.520  13.442  70.845  1.00  0.00    -0.359 A  
HETATM    8  C   UNL     1     -12.554  12.122  71.307  1.00  0.00    -0.341 A  
HETATM    9  C   UNL     1     -11.955  11.113  70.546  1.00  0.00    -0.380 A  
HETATM   10  C   UNL     1     -11.327  11.367  69.335  1.00  0.00    -0.297 A  
HETATM   11  N   UNL     1     -10.682  10.406  68.543  1.00  0.00    -0.206 NA 
HETATM   12  C   UNL     1     -11.311  12.695  68.886  1.00  0.00    -0.345 A  
HETATM   13  C   UNL     1     -10.748   9.140  68.791  1.00  0.00    -0.131 C  
HETATM   14  C   UNL     1     -11.902  13.732  69.627  1.00  0.00    -0.333 A  
HETATM   15  N   UNL     1     -11.475   8.589  69.851  1.00  0.00    -0.448 N  
HETATM   16  O   UNL     1     -11.048   9.336  72.187  1.00  0.00    -0.247 OA 
HETATM   17 CL   UNL     1     -11.800  15.322  68.960  1.00  0.00    -0.351 Cl 
HETATM   18  S   UNL     1     -12.020   9.475  71.129  1.00  0.00    -0.372 S  
HETATM   19  H   UNL     1     -11.678   7.589  69.832  1.00  0.00     0.000 HD 
HETATM   20  O   UNL     1     -13.409   9.123  71.318  1.00  0.00    -0.314 OA 
BRANCH  13  21
HETATM   21  C   UNL     1     -10.010   8.138  67.926  1.00  0.00    -0.182 C  
BRANCH  21  22
HETATM   22  S   UNL     1      -9.563   8.854  66.310  1.00  0.00    -0.267 SA 
BRANCH  22  23
HETATM   23  C   UNL     1      -7.766   9.122  66.514  1.00  0.00    -0.096 C  
BRANCH  23  24
HETATM   24  C   UNL     1      -7.507  10.362  67.331  1.00  0.00    -0.094 A  
HETATM   25  C   UNL     1      -6.926  10.259  68.606  1.00  0.00    -0.066 A  
HETATM   26  C   UNL     1      -6.762  11.390  69.404  1.00  0.00    -0.122 A  
HETATM   27  C   UNL     1      -7.169  12.639  68.937  1.00  0.00    -0.045 A  
HETATM   28  C   UNL     1      -7.724  12.758  67.664  1.00  0.00    -0.162 A  
HETATM   29  C   UNL     1      -7.893  11.627  66.864  1.00  0.00    -0.156 A  
ENDBRANCH  23  24
ENDBRANCH  22  23
ENDBRANCH  21  22
ENDBRANCH  13  21
ENDBRANCH   2   7
TORSDOF 5
ENDMDL
MODEL       48
REMARK 921   NORMALIZED FREE ENERGY PREDICTED BY IDOCK:   -5.71 KCAL/MOL
REMARK 922        TOTAL FREE ENERGY PREDICTED BY IDOCK:   -8.03 KCAL/MOL
REMARK 923 INTER-LIGAND FREE ENERGY PREDICTED BY IDOCK:   -7.40 KCAL/MOL
REMARK 924 INTRA-LIGAND FREE ENERGY PREDICTED BY IDOCK:   -0.63 KCAL/MOL
REMARK 927      BINDING AFFINITY PREDICTED BY RF-SCORE:    0.00 PKD
ROOT
HETATM    1  N   UNL     1      -9.858   3.468  71.234  1.00  0.00    -0.170 N  
HETATM    2  S   UNL     1      -9.039   3.964  69.856  1.00  0.00    -0.139 S  
HETATM    3  H1  UNL     1     -10.842   3.476  70.967  1.00  0.00     0.000 HD 
HETATM    4  H2  UNL     1      -9.460   3.213  72.137  1.00  0.00     0.000 HD 
HETATM    5  O   UNL     1      -7.645   3.951  70.235  1.00  0.00    -0.044 OA 
HETATM    6  O   UNL     1      -9.535   3.183  68.751  1.00  0.00    -0.173 OA 
ENDROOT
BRANCH   2   7
HETATM    7  C   UNL     1      -9.551   5.641  69.658  1.00  0.00    -0.151 A  
HETATM    8  C   UNL     1     -10.398   6.191  70.627  1.00  0.00    -0.268 A  
HETATM    9  C   UNL     1     -10.802   7.525  70.508  1.00  0.00    -0.240 A  
HETATM   10  C   UNL     1     -10.388   8.337  69.462  1.00  0.00    -0.219 A  
HETATM   11  N   UNL     1     -10.782   9.669  69.269  1.00  0.00    -0.225 NA 
HETATM   12  C   UNL     1      -9.535   7.769  68.506  1.00  0.00    -0.148 A  
HETATM   13  C   UNL     1     -11.456  10.331  70.151  1.00  0.00    -0.309 C  
HETATM   14  C   UNL     1      -9.112   6.432  68.596  1.00  0.00    -0.127 A  
HETATM   15  N   UNL     1     -11.847   9.809  71.388  1.00  0.00    -0.389 N  
HETATM   16  O   UNL     1     -13.181   7.708  71.497  1.00  0.00    -0.343 OA 
HETATM   17 CL   UNL     1      -8.068   5.860  67.344  1.00  0.00    -0.102 Cl 
HETATM   18  S   UNL     1     -11.842   8.196  71.730  1.00  0.00    -0.321 S  
HETATM   19  H   UNL     1     -12.152  10.458  72.115  1.00  0.00     0.000 HD 
HETATM   20  O   UNL     1     -11.186   8.044  73.008  1.00  0.00    -0.388 OA 
BRANCH  13  21
HETATM   21  C   UNL     1     -11.888  11.760  69.889  1.00  0.00    -0.348 C  
BRANCH  21  22
HETATM   22  S   UNL     1     -10.862  12.540  68.600  1.00  0.00    -0.243 SA 
BRANCH  22  23
HETATM   23  C   UNL     1     -12.128  13.027  67.373  1.00  0.00    -0.233 C  
BRANCH  23  24
HETATM   24  C   UNL     1     -11.802  12.449  66.020  1.00  0.00    -0.459 A  
HETATM   25  C   UNL     1     -10.743  11.537  65.879  1.00  0.00    -0.325 A  
HETATM   26  C   UNL     1     -10.378  11.063  64.619  1.00  0.00    -0.410 A  
HETATM   27  C   UNL     1     -11.069  11.488  63.487  1.00  0.00    -0.434 A  
HETATM   28  C   UNL     1     -12.137  12.375  63.616  1.00  0.00    -0.648 A  
HETATM   29  C   UNL     1     -12.503  12.853  64.875  1.00  0.00    -0.540 A  
ENDBRANCH  23  24
ENDBRANCH  22  23
ENDBRANCH  21  22
ENDBRANCH  13  21
ENDBRANCH   2   7
TORSDOF 5
ENDMDL
MODEL       49
REMARK 921   NORMALIZED FREE ENERGY PREDICTED BY IDOCK:   -5.70 KCAL/MOL
REMARK 922        TOTAL FREE ENERGY PREDICTED BY IDOCK:   -8.02 KCAL/MOL
REMARK 923 INTER-LIGAND FREE ENERGY PREDICTED BY IDOCK:   -7.89 KCAL/MOL
REMARK 924 INTRA-LIGAND FREE ENERGY PREDICTED BY IDOCK:   -0.13 KCAL/MOL
REMARK 927      BINDING AFFINITY PREDICTED BY RF-SCORE:    0.00 PKD
ROOT
HETATM    1  N   UNL     1     -11.203   4.894  65.884  1.00  0.00    -0.815 N  
HETATM    2  S   UNL     1      -9.685   5.388  66.398  1.00  0.00    -0.173 S  
HETATM    3  H1  UNL     1     -11.352   5.390  65.005  1.00  0.00     0.000 HD 
HETATM    4  H2  UNL     1     -11.837   4.242  66.347  1.00  0.00     0.000 HD 
HETATM    5  O   UNL     1      -9.474   4.684  67.643  1.00  0.00    -0.136 OA 
HETATM    6  O   UNL     1      -8.782   5.250  65.284  1.00  0.00    -0.147 OA 
ENDROOT
BRANCH   2   7
HETATM    7  C   UNL     1      -9.911   7.101  66.754  1.00  0.00    -0.208 A  
HETATM    8  C   UNL     1      -9.414   8.036  65.840  1.00  0.00    -0.036 A  
HETATM    9  C   UNL     1      -9.599   9.401  66.085  1.00  0.00    -0.247 A  
HETATM   10  C   UNL     1     -10.268   9.872  67.206  1.00  0.00    -0.222 A  
HETATM   11  N   UNL     1     -10.458  11.225  67.524  1.00  0.00    -0.193 NA 
HETATM   12  C   UNL     1     -10.765   8.919  68.105  1.00  0.00    -0.148 A  
HETATM   13  C   UNL     1     -10.160  12.181  66.707  1.00  0.00    -0.200 C  
HETATM   14  C   UNL     1     -10.595   7.540  67.889  1.00  0.00    -0.185 A  
HETATM   15  N   UNL     1      -9.640  11.979  65.424  1.00  0.00    -0.389 N  
HETATM   16  O   UNL     1      -7.559  10.649  65.110  1.00  0.00    -0.092 OA 
HETATM   17 CL   UNL     1     -11.250   6.478  69.084  1.00  0.00    -0.378 Cl 
HETATM   18  S   UNL     1      -8.987  10.549  64.930  1.00  0.00    -0.208 S  
HETATM   19  H   UNL     1      -9.666  12.755  64.763  1.00  0.00     0.000 HD 
HETATM   20  O   UNL     1      -9.574  10.245  63.645  1.00  0.00    -0.292 OA 
BRANCH  13  21
HETATM   21  C   UNL     1     -10.353  13.631  67.103  1.00  0.00    -0.250 C  
BRANCH  21  22
HETATM   22  S   UNL     1     -10.371  13.830  68.915  1.00  0.00    -0.069 SA 
BRANCH  22  23
HETATM   23  C   UNL     1     -11.892  14.816  69.158  1.00  0.00    -0.305 C  
BRANCH  23  24
HETATM   24  C   UNL     1     -12.239  14.899  70.623  1.00  0.00    -0.379 A  
HETATM   25  C   UNL     1     -11.771  15.972  71.399  1.00  0.00    -0.536 A  
HETATM   26  C   UNL     1     -12.014  16.013  72.772  1.00  0.00    -0.623 A  
HETATM   27  C   UNL     1     -12.731  14.987  73.384  1.00  0.00    -0.654 A  
HETATM   28  C   UNL     1     -13.220  13.928  72.621  1.00  0.00    -0.592 A  
HETATM   29  C   UNL     1     -12.977  13.883  71.248  1.00  0.00    -0.414 A  
ENDBRANCH  23  24
ENDBRANCH  22  23
ENDBRANCH  21  22
ENDBRANCH  13  21
ENDBRANCH   2   7
TORSDOF 5
ENDMDL
MODEL       50
REMARK 921   NORMALIZED FREE ENERGY PREDICTED BY IDOCK:   -5.69 KCAL/MOL
REMARK 922        TOTAL FREE ENERGY PREDICTED BY IDOCK:   -8.00 KCAL/MOL
REMARK 923 INTER-LIGAND FREE ENERGY PREDICTED BY IDOCK:   -7.82 KCAL/MOL
REMARK 924 INTRA-LIGAND FREE ENERGY PREDICTED BY IDOCK:   -0.18 KCAL/MOL
REMARK 927      BINDING AFFINITY PREDICTED BY RF-SCORE:    0.00 PKD
ROOT
HETATM    1  N   UNL     1     -11.230   6.189  66.697  1.00  0.00    -0.758 N  
HETATM    2  S   UNL     1     -10.595   6.600  68.195  1.00  0.00    -0.263 S  
HETATM    3  H1  UNL     1     -10.457   6.320  66.045  1.00  0.00     0.000 HD 
HETATM    4  H2  UNL     1     -12.177   5.878  66.485  1.00  0.00     0.000 HD 
HETATM    5  O   UNL     1     -11.691   6.415  69.119  1.00  0.00    -0.217 OA 
HETATM    6  O   UNL     1      -9.346   5.898  68.345  1.00  0.00    -0.119 OA 
ENDROOT
BRANCH   2   7
HETATM    7  C   UNL     1     -10.276   8.329  68.043  1.00  0.00    -0.214 A  
HETATM    8  C   UNL     1      -9.936   8.829  66.782  1.00  0.00    -0.338 A  
HETATM    9  C   UNL     1      -9.700  10.199  66.628  1.00  0.00    -0.192 A  
HETATM   10  C   UNL     1      -9.795  11.095  67.683  1.00  0.00    -0.174 A  
HETATM   11  N   UNL     1      -9.540  12.471  67.601  1.00  0.00    -0.185 NA 
HETATM   12  C   UNL     1     -10.144  10.574  68.937  1.00  0.00    -0.215 A  
HETATM   13  C   UNL     1      -9.341  13.076  66.477  1.00  0.00    -0.217 C  
HETATM   14  C   UNL     1     -10.386   9.202  69.126  1.00  0.00    -0.212 A  
HETATM   15  N   UNL     1      -9.376  12.442  65.231  1.00  0.00    -0.429 N  
HETATM   16  O   UNL     1      -7.914  10.477  64.783  1.00  0.00    -0.135 OA 
HETATM   17 CL   UNL     1     -10.798   8.697  70.726  1.00  0.00    -0.257 Cl 
HETATM   18  S   UNL     1      -9.294  10.805  65.048  1.00  0.00    -0.236 S  
HETATM   19  H   UNL     1      -9.456  13.020  64.394  1.00  0.00     0.000 HD 
HETATM   20  O   UNL     1     -10.355  10.434  64.141  1.00  0.00    -0.248 OA 
BRANCH  13  21
HETATM   21  C   UNL     1      -9.038  14.561  66.435  1.00  0.00    -0.185 C  
BRANCH  21  22
HETATM   22  S   UNL     1      -9.143  15.309  68.095  1.00  0.00    -0.177 SA 
BRANCH  22  23
HETATM   23  C   UNL     1     -10.737  16.198  67.993  1.00  0.00    -0.321 C  
BRANCH  23  24
HETATM   24  C   UNL     1     -10.508  17.657  67.688  1.00  0.00    -0.372 A  
HETATM   25  C   UNL     1     -10.524  18.110  66.359  1.00  0.00    -0.364 A  
HETATM   26  C   UNL     1     -10.229  19.440  66.059  1.00  0.00    -0.540 A  
HETATM   27  C   UNL     1      -9.921  20.334  67.084  1.00  0.00    -0.593 A  
HETATM   28  C   UNL     1      -9.924  19.902  68.409  1.00  0.00    -0.531 A  
HETATM   29  C   UNL     1     -10.217  18.570  68.711  1.00  0.00    -0.326 A  
ENDBRANCH  23  24
ENDBRANCH  22  23
ENDBRANCH  21  22
ENDBRANCH  13  21
ENDBRANCH   2   7
TORSDOF 5
ENDMDL
MODEL       51
REMARK 921   NORMALIZED FREE ENERGY PREDICTED BY IDOCK:   -5.68 KCAL/MOL
REMARK 922        TOTAL FREE ENERGY PREDICTED BY IDOCK:   -7.99 KCAL/MOL
REMARK 923 INTER-LIGAND FREE ENERGY PREDICTED BY IDOCK:   -6.93 KCAL/MOL
REMARK 924 INTRA-LIGAND FREE ENERGY PREDICTED BY IDOCK:   -1.06 KCAL/MOL
REMARK 927      BINDING AFFINITY PREDICTED BY RF-SCORE:    0.00 PKD
ROOT
HETATM    1  N   UNL     1      -9.902   5.924  69.318  1.00  0.00    -0.152 N  
HETATM    2  S   UNL     1      -9.206   7.247  68.558  1.00  0.00    -0.137 S  
HETATM    3  H1  UNL     1     -10.854   5.888  68.953  1.00  0.00     0.000 HD 
HETATM    4  H2  UNL     1      -9.471   5.296  69.995  1.00  0.00     0.000 HD 
HETATM    5  O   UNL     1      -7.857   7.298  69.075  1.00  0.00    -0.113 OA 
HETATM    6  O   UNL     1      -9.476   7.130  67.147  1.00  0.00    -0.136 OA 
ENDROOT
BRANCH   2   7
HETATM    7  C   UNL     1     -10.108   8.616  69.210  1.00  0.00    -0.202 A  
HETATM    8  C   UNL     1     -11.103   8.359  70.159  1.00  0.00    -0.183 A  
HETATM    9  C   UNL     1     -11.819   9.426  70.710  1.00  0.00    -0.256 A  
HETATM   10  C   UNL     1     -11.577  10.746  70.357  1.00  0.00    -0.339 A  
HETATM   11  N   UNL     1     -12.280  11.856  70.848  1.00  0.00    -0.324 NA 
HETATM   12  C   UNL     1     -10.570  10.983  69.411  1.00  0.00    -0.212 A  
HETATM   13  C   UNL     1     -13.132  11.768  71.816  1.00  0.00    -0.375 C  
HETATM   14  C   UNL     1      -9.834   9.933  68.836  1.00  0.00    -0.176 A  
HETATM   15  N   UNL     1     -13.433  10.578  72.486  1.00  0.00    -0.436 N  
HETATM   16  O   UNL     1     -14.209   8.584  71.213  1.00  0.00    -0.336 OA 
HETATM   17 CL   UNL     1      -8.630  10.369  67.677  1.00  0.00    -0.118 Cl 
HETATM   18  S   UNL     1     -13.043   9.088  71.899  1.00  0.00    -0.433 S  
HETATM   19  H   UNL     1     -13.918  10.635  73.382  1.00  0.00     0.000 HD 
HETATM   20  O   UNL     1     -12.423   8.362  72.984  1.00  0.00    -0.205 OA 
BRANCH  13  21
HETATM   21  C   UNL     1     -13.893  12.988  72.295  1.00  0.00    -0.434 C  
BRANCH  21  22
HETATM   22  S   UNL     1     -12.795  14.434  72.463  1.00  0.00    -0.357 SA 
BRANCH  22  23
HETATM   23  C   UNL     1     -13.189  15.368  70.941  1.00  0.00    -0.455 C  
BRANCH  23  24
HETATM   24  C   UNL     1     -12.091  15.202  69.920  1.00  0.00    -0.373 A  
HETATM   25  C   UNL     1     -12.382  14.675  68.651  1.00  0.00    -0.021 A  
HETATM   26  C   UNL     1     -11.361  14.436  67.732  1.00  0.00    -0.331 A  
HETATM   27  C   UNL     1     -10.039  14.727  68.066  1.00  0.00    -0.218 A  
HETATM   28  C   UNL     1      -9.741  15.272  69.313  1.00  0.00    -0.254 A  
HETATM   29  C   UNL     1     -10.761  15.510  70.237  1.00  0.00    -0.352 A  
ENDBRANCH  23  24
ENDBRANCH  22  23
ENDBRANCH  21  22
ENDBRANCH  13  21
ENDBRANCH   2   7
TORSDOF 5
ENDMDL
MODEL       52
REMARK 921   NORMALIZED FREE ENERGY PREDICTED BY IDOCK:   -5.67 KCAL/MOL
REMARK 922        TOTAL FREE ENERGY PREDICTED BY IDOCK:   -7.97 KCAL/MOL
REMARK 923 INTER-LIGAND FREE ENERGY PREDICTED BY IDOCK:   -7.75 KCAL/MOL
REMARK 924 INTRA-LIGAND FREE ENERGY PREDICTED BY IDOCK:   -0.22 KCAL/MOL
REMARK 927      BINDING AFFINITY PREDICTED BY RF-SCORE:    0.00 PKD
ROOT
HETATM    1  N   UNL     1     -10.428   4.328  72.493  1.00  0.00    -0.178 N  
HETATM    2  S   UNL     1      -9.166   4.919  71.558  1.00  0.00    -0.149 S  
HETATM    3  H1  UNL     1     -11.200   4.206  71.838  1.00  0.00     0.000 HD 
HETATM    4  H2  UNL     1     -10.424   4.134  73.494  1.00  0.00     0.000 HD 
HETATM    5  O   UNL     1      -8.073   5.091  72.487  1.00  0.00    -0.106 OA 
HETATM    6  O   UNL     1      -9.053   4.073  70.397  1.00  0.00    -0.093 OA 
ENDROOT
BRANCH   2   7
HETATM    7  C   UNL     1      -9.737   6.513  71.062  1.00  0.00    -0.175 A  
HETATM    8  C   UNL     1      -9.709   6.830  69.700  1.00  0.00    -0.160 A  
HETATM    9  C   UNL     1     -10.177   8.078  69.276  1.00  0.00    -0.213 A  
HETATM   10  C   UNL     1     -10.679   9.024  70.157  1.00  0.00    -0.233 A  
HETATM   11  N   UNL     1     -11.132  10.302  69.799  1.00  0.00    -0.268 NA 
HETATM   12  C   UNL     1     -10.705   8.684  71.517  1.00  0.00    -0.352 A  
HETATM   13  C   UNL     1     -11.276  10.671  68.569  1.00  0.00    -0.282 C  
HETATM   14  C   UNL     1     -10.241   7.440  71.977  1.00  0.00    -0.191 A  
HETATM   15  N   UNL     1     -11.018   9.844  67.471  1.00  0.00    -0.375 N  
HETATM   16  O   UNL     1      -8.789   8.766  67.208  1.00  0.00    -0.130 OA 
HETATM   17 CL   UNL     1     -10.324   7.158  73.679  1.00  0.00    -0.400 Cl 
HETATM   18  S   UNL     1     -10.148   8.448  67.576  1.00  0.00    -0.238 S  
HETATM   19  H   UNL     1     -11.386  10.119  66.560  1.00  0.00     0.000 HD 
HETATM   20  O   UNL     1     -10.908   7.432  66.884  1.00  0.00    -0.357 OA 
BRANCH  13  21
HETATM   21  C   UNL     1     -11.739  12.073  68.226  1.00  0.00    -0.334 C  
BRANCH  21  22
HETATM   22  S   UNL     1     -10.679  13.334  69.006  1.00  0.00    -0.051 SA 
BRANCH  22  23
HETATM   23  C   UNL     1     -11.874  14.689  69.291  1.00  0.00    -0.321 C  
BRANCH  23  24
HETATM   24  C   UNL     1     -12.099  14.893  70.768  1.00  0.00    -0.377 A  
HETATM   25  C   UNL     1     -12.704  13.883  71.535  1.00  0.00    -0.440 A  
HETATM   26  C   UNL     1     -12.995  14.095  72.882  1.00  0.00    -0.498 A  
HETATM   27  C   UNL     1     -12.681  15.314  73.480  1.00  0.00    -0.690 A  
HETATM   28  C   UNL     1     -12.059  16.315  72.736  1.00  0.00    -0.637 A  
HETATM   29  C   UNL     1     -11.769  16.107  71.386  1.00  0.00    -0.506 A  
ENDBRANCH  23  24
ENDBRANCH  22  23
ENDBRANCH  21  22
ENDBRANCH  13  21
ENDBRANCH   2   7
TORSDOF 5
ENDMDL
MODEL       53
REMARK 921   NORMALIZED FREE ENERGY PREDICTED BY IDOCK:   -5.65 KCAL/MOL
REMARK 922        TOTAL FREE ENERGY PREDICTED BY IDOCK:   -7.95 KCAL/MOL
REMARK 923 INTER-LIGAND FREE ENERGY PREDICTED BY IDOCK:   -7.08 KCAL/MOL
REMARK 924 INTRA-LIGAND FREE ENERGY PREDICTED BY IDOCK:   -0.88 KCAL/MOL
REMARK 927      BINDING AFFINITY PREDICTED BY RF-SCORE:    0.00 PKD
ROOT
HETATM    1  N   UNL     1      -9.670   9.827  62.443  1.00  0.00    -0.616 N  
HETATM    2  S   UNL     1      -8.494   9.775  63.639  1.00  0.00    -0.203 S  
HETATM    3  H1  UNL     1      -9.623  10.777  62.077  1.00  0.00     0.000 HD 
HETATM    4  H2  UNL     1     -10.291   9.075  62.148  1.00  0.00     0.000 HD 
HETATM    5  O   UNL     1      -8.560   8.428  64.158  1.00  0.00    -0.065 OA 
HETATM    6  O   UNL     1      -7.282  10.318  63.081  1.00  0.00    -0.138 OA 
ENDROOT
BRANCH   2   7
HETATM    7  C   UNL     1      -9.114  10.880  64.868  1.00  0.00    -0.182 A  
HETATM    8  C   UNL     1     -10.257  11.627  64.568  1.00  0.00    -0.337 A  
HETATM    9  C   UNL     1     -10.784  12.494  65.531  1.00  0.00    -0.271 A  
HETATM   10  C   UNL     1     -10.217  12.641  66.790  1.00  0.00    -0.237 A  
HETATM   11  N   UNL     1     -10.677  13.515  67.785  1.00  0.00    -0.249 NA 
HETATM   12  C   UNL     1      -9.076  11.878  67.073  1.00  0.00    -0.191 A  
HETATM   13  C   UNL     1     -11.790  14.164  67.683  1.00  0.00    -0.392 C  
HETATM   14  C   UNL     1      -8.521  10.999  66.127  1.00  0.00    -0.168 A  
HETATM   15  N   UNL     1     -12.659  14.057  66.592  1.00  0.00    -0.502 N  
HETATM   16  O   UNL     1     -11.834  14.497  64.284  1.00  0.00    -0.408 OA 
HETATM   17 CL   UNL     1      -7.109  10.128  66.607  1.00  0.00    -0.097 Cl 
HETATM   18  S   UNL     1     -12.216  13.404  65.145  1.00  0.00    -0.461 S  
HETATM   19  H   UNL     1     -13.613  14.402  66.697  1.00  0.00     0.000 HD 
HETATM   20  O   UNL     1     -13.253  12.468  64.776  1.00  0.00    -0.839 OA 
BRANCH  13  21
HETATM   21  C   UNL     1     -12.234  15.122  68.770  1.00  0.00    -0.069 C  
BRANCH  21  22
HETATM   22  S   UNL     1     -10.841  15.606  69.842  1.00  0.00    -0.346 SA 
BRANCH  22  23
HETATM   23  C   UNL     1      -9.927  16.757  68.753  1.00  0.00    -0.269 C  
BRANCH  23  24
HETATM   24  C   UNL     1      -8.574  16.191  68.404  1.00  0.00    -0.189 A  
HETATM   25  C   UNL     1      -8.012  15.171  69.190  1.00  0.00    -0.205 A  
HETATM   26  C   UNL     1      -6.726  14.701  68.927  1.00  0.00    -0.096 A  
HETATM   27  C   UNL     1      -5.988  15.239  67.875  1.00  0.00    -0.166 A  
HETATM   28  C   UNL     1      -6.543  16.235  67.074  1.00  0.00    -0.193 A  
HETATM   29  C   UNL     1      -7.830  16.710  67.335  1.00  0.00    -0.188 A  
ENDBRANCH  23  24
ENDBRANCH  22  23
ENDBRANCH  21  22
ENDBRANCH  13  21
ENDBRANCH   2   7
TORSDOF 5
ENDMDL
MODEL       54
REMARK 921   NORMALIZED FREE ENERGY PREDICTED BY IDOCK:   -5.62 KCAL/MOL
REMARK 922        TOTAL FREE ENERGY PREDICTED BY IDOCK:   -7.91 KCAL/MOL
REMARK 923 INTER-LIGAND FREE ENERGY PREDICTED BY IDOCK:   -7.28 KCAL/MOL
REMARK 924 INTRA-LIGAND FREE ENERGY PREDICTED BY IDOCK:   -0.64 KCAL/MOL
REMARK 927      BINDING AFFINITY PREDICTED BY RF-SCORE:    0.00 PKD
ROOT
HETATM    1  N   UNL     1      -8.587  16.083  66.530  1.00  0.00    -0.280 N  
HETATM    2  S   UNL     1     -10.210  15.694  66.361  1.00  0.00    -0.305 S  
HETATM    3  H1  UNL     1      -8.153  15.764  65.663  1.00  0.00     0.000 HD 
HETATM    4  H2  UNL     1      -8.134  16.539  67.321  1.00  0.00     0.000 HD 
HETATM    5  O   UNL     1     -10.824  16.147  67.588  1.00  0.00    -0.318 OA 
HETATM    6  O   UNL     1     -10.641  16.173  65.072  1.00  0.00    -0.588 OA 
ENDROOT
BRANCH   2   7
HETATM    7  C   UNL     1     -10.208  13.929  66.353  1.00  0.00    -0.292 A  
HETATM    8  C   UNL     1      -9.036  13.269  66.739  1.00  0.00    -0.216 A  
HETATM    9  C   UNL     1      -9.013  11.871  66.765  1.00  0.00    -0.196 A  
HETATM   10  C   UNL     1     -10.117  11.101  66.425  1.00  0.00    -0.226 A  
HETATM   11  N   UNL     1     -10.147   9.700  66.400  1.00  0.00    -0.251 NA 
HETATM   12  C   UNL     1     -11.282  11.782  66.048  1.00  0.00    -0.352 A  
HETATM   13  C   UNL     1      -9.178   8.973  66.852  1.00  0.00    -0.142 C  
HETATM   14  C   UNL     1     -11.338  13.186  66.010  1.00  0.00    -0.308 A  
HETATM   15  N   UNL     1      -8.014   9.494  67.427  1.00  0.00    -0.106 N  
HETATM   16  O   UNL     1      -6.614  11.122  66.167  1.00  0.00    -0.109 OA 
HETATM   17 CL   UNL     1     -12.836  13.893  65.518  1.00  0.00    -0.537 Cl 
HETATM   18  S   UNL     1      -7.552  11.067  67.263  1.00  0.00    -0.117 S  
HETATM   19  H   UNL     1      -7.422   8.868  67.974  1.00  0.00     0.000 HD 
HETATM   20  O   UNL     1      -7.210  11.541  68.585  1.00  0.00    -0.088 OA 
BRANCH  13  21
HETATM   21  C   UNL     1      -9.239   7.461  66.776  1.00  0.00    -0.156 C  
BRANCH  21  22
HETATM   22  S   UNL     1     -10.869   6.833  67.299  1.00  0.00    -0.373 SA 
BRANCH  22  23
HETATM   23  C   UNL     1     -10.517   6.287  69.009  1.00  0.00    -0.237 C  
BRANCH  23  24
HETATM   24  C   UNL     1     -11.116   7.249  70.004  1.00  0.00    -0.262 A  
HETATM   25  C   UNL     1     -12.219   6.862  70.782  1.00  0.00    -0.364 A  
HETATM   26  C   UNL     1     -12.834   7.771  71.642  1.00  0.00    -0.365 A  
HETATM   27  C   UNL     1     -12.352   9.075  71.739  1.00  0.00    -0.438 A  
HETATM   28  C   UNL     1     -11.243   9.464  70.989  1.00  0.00    -0.412 A  
HETATM   29  C   UNL     1     -10.627   8.557  70.126  1.00  0.00    -0.238 A  
ENDBRANCH  23  24
ENDBRANCH  22  23
ENDBRANCH  21  22
ENDBRANCH  13  21
ENDBRANCH   2   7
TORSDOF 5
ENDMDL
MODEL       55
REMARK 921   NORMALIZED FREE ENERGY PREDICTED BY IDOCK:   -5.62 KCAL/MOL
REMARK 922        TOTAL FREE ENERGY PREDICTED BY IDOCK:   -7.91 KCAL/MOL
REMARK 923 INTER-LIGAND FREE ENERGY PREDICTED BY IDOCK:   -7.68 KCAL/MOL
REMARK 924 INTRA-LIGAND FREE ENERGY PREDICTED BY IDOCK:   -0.22 KCAL/MOL
REMARK 927      BINDING AFFINITY PREDICTED BY RF-SCORE:    0.00 PKD
ROOT
HETATM    1  N   UNL     1     -11.081   5.955  66.178  1.00  0.00    -0.643 N  
HETATM    2  S   UNL     1      -9.949   6.404  67.331  1.00  0.00    -0.154 S  
HETATM    3  H1  UNL     1     -10.797   6.450  65.332  1.00  0.00     0.000 HD 
HETATM    4  H2  UNL     1     -11.875   5.327  66.295  1.00  0.00     0.000 HD 
HETATM    5  O   UNL     1     -10.351   5.703  68.529  1.00  0.00    -0.179 OA 
HETATM    6  O   UNL     1      -8.642   6.230  66.749  1.00  0.00    -0.113 OA 
ENDROOT
BRANCH   2   7
HETATM    7  C   UNL     1     -10.258   8.126  67.559  1.00  0.00    -0.243 A  
HETATM    8  C   UNL     1     -10.886   8.533  68.741  1.00  0.00     0.004 A  
HETATM    9  C   UNL     1     -11.124   9.894  68.959  1.00  0.00    -0.146 A  
HETATM   10  C   UNL     1     -10.753  10.870  68.045  1.00  0.00    -0.220 A  
HETATM   11  N   UNL     1     -10.991  12.245  68.189  1.00  0.00    -0.218 NA 
HETATM   12  C   UNL     1     -10.119  10.442  66.870  1.00  0.00    -0.269 A  
HETATM   13  C   UNL     1     -11.446  12.761  69.283  1.00  0.00    -0.289 C  
HETATM   14  C   UNL     1      -9.867   9.082  66.620  1.00  0.00    -0.248 A  
HETATM   15  N   UNL     1     -11.732  12.024  70.436  1.00  0.00    -0.525 N  
HETATM   16  O   UNL     1     -13.302  10.094  70.333  1.00  0.00    -0.166 OA 
HETATM   17 CL   UNL     1      -9.086   8.696  65.128  1.00  0.00    -0.119 Cl 
HETATM   18  S   UNL     1     -11.892  10.383  70.441  1.00  0.00    -0.349 S  
HETATM   19  H   UNL     1     -11.847  12.525  71.317  1.00  0.00     0.000 HD 
HETATM   20  O   UNL     1     -11.094   9.891  71.541  1.00  0.00    -0.275 OA 
BRANCH  13  21
HETATM   21  C   UNL     1     -11.718  14.249  69.386  1.00  0.00    -0.316 C  
BRANCH  21  22
HETATM   22  S   UNL     1     -10.246  15.228  68.941  1.00  0.00    -0.242 SA 
BRANCH  22  23
HETATM   23  C   UNL     1     -10.743  15.919  67.323  1.00  0.00    -0.306 C  
BRANCH  23  24
HETATM   24  C   UNL     1     -10.472  17.402  67.277  1.00  0.00    -0.321 A  
HETATM   25  C   UNL     1     -10.372  18.062  66.041  1.00  0.00    -0.333 A  
HETATM   26  C   UNL     1     -10.036  19.414  65.985  1.00  0.00    -0.488 A  
HETATM   27  C   UNL     1      -9.802  20.124  67.161  1.00  0.00    -0.586 A  
HETATM   28  C   UNL     1      -9.922  19.487  68.394  1.00  0.00    -0.540 A  
HETATM   29  C   UNL     1     -10.255  18.132  68.454  1.00  0.00    -0.401 A  
ENDBRANCH  23  24
ENDBRANCH  22  23
ENDBRANCH  21  22
ENDBRANCH  13  21
ENDBRANCH   2   7
TORSDOF 5
ENDMDL
MODEL       56
REMARK 921   NORMALIZED FREE ENERGY PREDICTED BY IDOCK:   -5.61 KCAL/MOL
REMARK 922        TOTAL FREE ENERGY PREDICTED BY IDOCK:   -7.90 KCAL/MOL
REMARK 923 INTER-LIGAND FREE ENERGY PREDICTED BY IDOCK:   -7.28 KCAL/MOL
REMARK 924 INTRA-LIGAND FREE ENERGY PREDICTED BY IDOCK:   -0.62 KCAL/MOL
REMARK 927      BINDING AFFINITY PREDICTED BY RF-SCORE:    0.00 PKD
ROOT
HETATM    1  N   UNL     1     -11.048   5.939  66.212  1.00  0.00    -0.724 N  
HETATM    2  S   UNL     1     -10.253   6.149  67.674  1.00  0.00    -0.202 S  
HETATM    3  H1  UNL     1     -10.320   6.045  65.505  1.00  0.00     0.000 HD 
HETATM    4  H2  UNL     1     -12.038   5.747  66.062  1.00  0.00     0.000 HD 
HETATM    5  O   UNL     1     -11.284   5.998  68.675  1.00  0.00    -0.307 OA 
HETATM    6  O   UNL     1      -9.080   5.311  67.656  1.00  0.00    -0.109 OA 
ENDROOT
BRANCH   2   7
HETATM    7  C   UNL     1      -9.758   7.842  67.631  1.00  0.00    -0.156 A  
HETATM    8  C   UNL     1     -10.565   8.783  68.280  1.00  0.00    -0.194 A  
HETATM    9  C   UNL     1     -10.185  10.129  68.281  1.00  0.00    -0.166 A  
HETATM   10  C   UNL     1      -9.025  10.576  67.664  1.00  0.00    -0.138 A  
HETATM   11  N   UNL     1      -8.607  11.913  67.603  1.00  0.00    -0.149 NA 
HETATM   12  C   UNL     1      -8.228   9.617  67.025  1.00  0.00    -0.117 A  
HETATM   13  C   UNL     1      -9.191  12.857  68.265  1.00  0.00    -0.187 C  
HETATM   14  C   UNL     1      -8.582   8.257  67.004  1.00  0.00    -0.123 A  
HETATM   15  N   UNL     1     -10.279  12.654  69.120  1.00  0.00    -0.408 N  
HETATM   16  O   UNL     1     -12.344  11.546  68.280  1.00  0.00    -0.468 OA 
HETATM   17 CL   UNL     1      -7.511   7.186  66.172  1.00  0.00    -0.078 Cl 
HETATM   18  S   UNL     1     -11.193  11.282  69.108  1.00  0.00    -0.300 S  
HETATM   19  H   UNL     1     -10.519  13.391  69.783  1.00  0.00     0.000 HD 
HETATM   20  O   UNL     1     -11.323  10.856  70.483  1.00  0.00    -0.290 OA 
BRANCH  13  21
HETATM   21  C   UNL     1      -8.725  14.294  68.145  1.00  0.00    -0.174 C  
BRANCH  21  22
HETATM   22  S   UNL     1      -9.048  14.963  66.480  1.00  0.00    -0.254 SA 
BRANCH  22  23
HETATM   23  C   UNL     1     -10.867  14.807  66.372  1.00  0.00    -0.322 C  
BRANCH  23  24
HETATM   24  C   UNL     1     -11.247  13.745  65.372  1.00  0.00    -0.306 A  
HETATM   25  C   UNL     1     -10.263  13.155  64.561  1.00  0.00    -0.333 A  
HETATM   26  C   UNL     1     -10.615  12.236  63.574  1.00  0.00    -0.488 A  
HETATM   27  C   UNL     1     -11.953  11.889  63.389  1.00  0.00    -0.528 A  
HETATM   28  C   UNL     1     -12.936  12.449  64.202  1.00  0.00    -0.267 A  
HETATM   29  C   UNL     1     -12.586  13.372  65.190  1.00  0.00    -0.495 A  
ENDBRANCH  23  24
ENDBRANCH  22  23
ENDBRANCH  21  22
ENDBRANCH  13  21
ENDBRANCH   2   7
TORSDOF 5
ENDMDL
MODEL       57
REMARK 921   NORMALIZED FREE ENERGY PREDICTED BY IDOCK:   -5.61 KCAL/MOL
REMARK 922        TOTAL FREE ENERGY PREDICTED BY IDOCK:   -7.89 KCAL/MOL
REMARK 923 INTER-LIGAND FREE ENERGY PREDICTED BY IDOCK:   -7.53 KCAL/MOL
REMARK 924 INTRA-LIGAND FREE ENERGY PREDICTED BY IDOCK:   -0.37 KCAL/MOL
REMARK 927      BINDING AFFINITY PREDICTED BY RF-SCORE:    0.00 PKD
ROOT
HETATM    1  N   UNL     1     -10.657   8.283  66.887  1.00  0.00    -0.317 N  
HETATM    2  S   UNL     1      -9.334   8.883  67.727  1.00  0.00    -0.142 S  
HETATM    3  H1  UNL     1     -10.430   8.437  65.905  1.00  0.00     0.000 HD 
HETATM    4  H2  UNL     1     -11.500   7.858  67.272  1.00  0.00     0.000 HD 
HETATM    5  O   UNL     1      -9.656   8.664  69.119  1.00  0.00    -0.160 OA 
HETATM    6  O   UNL     1      -8.148   8.330  67.123  1.00  0.00    -0.106 OA 
ENDROOT
BRANCH   2   7
HETATM    7  C   UNL     1      -9.397  10.617  67.403  1.00  0.00    -0.143 A  
HETATM    8  C   UNL     1     -10.238  11.067  66.380  1.00  0.00    -0.284 A  
HETATM    9  C   UNL     1     -10.325  12.438  66.116  1.00  0.00    -0.247 A  
HETATM   10  C   UNL     1      -9.610  13.382  66.838  1.00  0.00    -0.257 A  
HETATM   11  N   UNL     1      -9.629  14.764  66.602  1.00  0.00    -0.258 NA 
HETATM   12  C   UNL     1      -8.778  12.910  67.864  1.00  0.00    -0.186 A  
HETATM   13  C   UNL     1     -10.453  15.318  65.775  1.00  0.00    -0.349 C  
HETATM   14  C   UNL     1      -8.667  11.540  68.153  1.00  0.00    -0.157 A  
HETATM   15  N   UNL     1     -11.418  14.617  65.046  1.00  0.00    -0.371 N  
HETATM   16  O   UNL     1     -10.748  12.717  63.583  1.00  0.00    -0.425 OA 
HETATM   17 CL   UNL     1      -7.599  11.099  69.438  1.00  0.00    -0.068 Cl 
HETATM   18  S   UNL     1     -11.388  12.980  64.849  1.00  0.00    -0.318 S  
HETATM   19  H   UNL     1     -12.178  15.143  64.614  1.00  0.00     0.000 HD 
HETATM   20  O   UNL     1     -12.718  12.500  65.146  1.00  0.00    -0.659 OA 
BRANCH  13  21
HETATM   21  C   UNL     1     -10.418  16.813  65.527  1.00  0.00    -0.237 C  
BRANCH  21  22
HETATM   22  S   UNL     1     -10.455  17.749  67.091  1.00  0.00    -0.301 SA 
BRANCH  22  23
HETATM   23  C   UNL     1      -9.868  19.393  66.546  1.00  0.00    -0.386 C  
BRANCH  23  24
HETATM   24  C   UNL     1      -8.630  19.791  67.308  1.00  0.00    -0.374 A  
HETATM   25  C   UNL     1      -7.723  20.708  66.751  1.00  0.00    -0.229 A  
HETATM   26  C   UNL     1      -6.533  21.017  67.410  1.00  0.00    -0.427 A  
HETATM   27  C   UNL     1      -6.238  20.420  68.633  1.00  0.00    -0.354 A  
HETATM   28  C   UNL     1      -7.140  19.526  69.208  1.00  0.00    -0.372 A  
HETATM   29  C   UNL     1      -8.331  19.213  68.550  1.00  0.00    -0.399 A  
ENDBRANCH  23  24
ENDBRANCH  22  23
ENDBRANCH  21  22
ENDBRANCH  13  21
ENDBRANCH   2   7
TORSDOF 5
ENDMDL
MODEL       58
REMARK 921   NORMALIZED FREE ENERGY PREDICTED BY IDOCK:   -5.60 KCAL/MOL
REMARK 922        TOTAL FREE ENERGY PREDICTED BY IDOCK:   -7.88 KCAL/MOL
REMARK 923 INTER-LIGAND FREE ENERGY PREDICTED BY IDOCK:   -6.96 KCAL/MOL
REMARK 924 INTRA-LIGAND FREE ENERGY PREDICTED BY IDOCK:   -0.92 KCAL/MOL
REMARK 927      BINDING AFFINITY PREDICTED BY RF-SCORE:    0.00 PKD
ROOT
HETATM    1  N   UNL     1     -10.311   8.218  72.523  1.00  0.00    -0.326 N  
HETATM    2  S   UNL     1      -8.925   7.910  71.630  1.00  0.00    -0.147 S  
HETATM    3  H1  UNL     1     -11.021   7.609  72.115  1.00  0.00     0.000 HD 
HETATM    4  H2  UNL     1     -10.420   8.868  73.301  1.00  0.00     0.000 HD 
HETATM    5  O   UNL     1      -7.919   8.771  72.208  1.00  0.00    -0.350 OA 
HETATM    6  O   UNL     1      -8.757   6.480  71.566  1.00  0.00    -0.132 OA 
ENDROOT
BRANCH   2   7
HETATM    7  C   UNL     1      -9.329   8.520  70.024  1.00  0.00    -0.163 A  
HETATM    8  C   UNL     1      -8.603   9.608  69.529  1.00  0.00    -0.177 A  
HETATM    9  C   UNL     1      -8.887  10.098  68.250  1.00  0.00    -0.124 A  
HETATM   10  C   UNL     1      -9.865   9.540  67.439  1.00  0.00    -0.170 A  
HETATM   11  N   UNL     1     -10.218  10.004  66.164  1.00  0.00    -0.238 NA 
HETATM   12  C   UNL     1     -10.576   8.446  67.951  1.00  0.00    -0.218 A  
HETATM   13  C   UNL     1      -9.544  10.916  65.543  1.00  0.00    -0.221 C  
HETATM   14  C   UNL     1     -10.317   7.931  69.233  1.00  0.00    -0.220 A  
HETATM   15  N   UNL     1      -8.393  11.522  66.056  1.00  0.00    -0.373 N  
HETATM   16  O   UNL     1      -8.450  12.644  68.278  1.00  0.00    -0.169 OA 
HETATM   17 CL   UNL     1     -11.275   6.586  69.739  1.00  0.00    -0.428 Cl 
HETATM   18  S   UNL     1      -7.962  11.442  67.645  1.00  0.00    -0.130 S  
HETATM   19  H   UNL     1      -7.790  12.039  65.415  1.00  0.00     0.000 HD 
HETATM   20  O   UNL     1      -6.565  11.075  67.680  1.00  0.00    -0.062 OA 
BRANCH  13  21
HETATM   21  C   UNL     1      -9.979  11.411  64.178  1.00  0.00    -0.290 C  
BRANCH  21  22
HETATM   22  S   UNL     1     -10.726  13.071  64.278  1.00  0.00    -0.397 SA 
BRANCH  22  23
HETATM   23  C   UNL     1     -12.168  12.757  65.358  1.00  0.00    -0.478 C  
BRANCH  23  24
HETATM   24  C   UNL     1     -11.946  13.358  66.723  1.00  0.00    -0.447 A  
HETATM   25  C   UNL     1     -11.589  14.711  66.847  1.00  0.00    -0.374 A  
HETATM   26  C   UNL     1     -11.297  15.255  68.098  1.00  0.00    -0.346 A  
HETATM   27  C   UNL     1     -11.364  14.456  69.238  1.00  0.00    -0.319 A  
HETATM   28  C   UNL     1     -11.740  13.119  69.130  1.00  0.00    -0.376 A  
HETATM   29  C   UNL     1     -12.030  12.571  67.880  1.00  0.00    -0.283 A  
ENDBRANCH  23  24
ENDBRANCH  22  23
ENDBRANCH  21  22
ENDBRANCH  13  21
ENDBRANCH   2   7
TORSDOF 5
ENDMDL
MODEL       59
REMARK 921   NORMALIZED FREE ENERGY PREDICTED BY IDOCK:   -5.59 KCAL/MOL
REMARK 922        TOTAL FREE ENERGY PREDICTED BY IDOCK:   -7.88 KCAL/MOL
REMARK 923 INTER-LIGAND FREE ENERGY PREDICTED BY IDOCK:   -7.43 KCAL/MOL
REMARK 924 INTRA-LIGAND FREE ENERGY PREDICTED BY IDOCK:   -0.45 KCAL/MOL
REMARK 927      BINDING AFFINITY PREDICTED BY RF-SCORE:    0.00 PKD
ROOT
HETATM    1  N   UNL     1     -11.391   6.590  66.893  1.00  0.00    -0.817 N  
HETATM    2  S   UNL     1      -9.722   6.517  67.042  1.00  0.00    -0.159 S  
HETATM    3  H1  UNL     1     -11.550   7.015  65.979  1.00  0.00     0.000 HD 
HETATM    4  H2  UNL     1     -12.092   6.279  67.565  1.00  0.00     0.000 HD 
HETATM    5  O   UNL     1      -9.497   5.915  68.337  1.00  0.00    -0.118 OA 
HETATM    6  O   UNL     1      -9.202   5.935  65.831  1.00  0.00    -0.157 OA 
ENDROOT
BRANCH   2   7
HETATM    7  C   UNL     1      -9.244   8.214  67.123  1.00  0.00    -0.145 A  
HETATM    8  C   UNL     1     -10.240   9.187  66.983  1.00  0.00    -0.333 A  
HETATM    9  C   UNL     1      -9.893  10.540  67.065  1.00  0.00    -0.183 A  
HETATM   10  C   UNL     1      -8.591  10.963  67.289  1.00  0.00    -0.128 A  
HETATM   11  N   UNL     1      -8.176  12.301  67.350  1.00  0.00    -0.169 NA 
HETATM   12  C   UNL     1      -7.610   9.972  67.434  1.00  0.00    -0.091 A  
HETATM   13  C   UNL     1      -9.008  13.289  67.362  1.00  0.00    -0.215 C  
HETATM   14  C   UNL     1      -7.924   8.604  67.355  1.00  0.00    -0.102 A  
HETATM   15  N   UNL     1     -10.398  13.139  67.335  1.00  0.00    -0.237 N  
HETATM   16  O   UNL     1     -11.485  11.846  65.505  1.00  0.00    -0.321 OA 
HETATM   17 CL   UNL     1      -6.616   7.492  67.542  1.00  0.00    -0.060 Cl 
HETATM   18  S   UNL     1     -11.147  11.735  66.904  1.00  0.00    -0.320 S  
HETATM   19  H   UNL     1     -10.977  13.939  67.593  1.00  0.00     0.000 HD 
HETATM   20  O   UNL     1     -12.148  11.472  67.912  1.00  0.00    -0.630 OA 
BRANCH  13  21
HETATM   21  C   UNL     1      -8.514  14.722  67.397  1.00  0.00    -0.201 C  
BRANCH  21  22
HETATM   22  S   UNL     1      -8.971  15.545  68.958  1.00  0.00    -0.253 SA 
BRANCH  22  23
HETATM   23  C   UNL     1      -7.922  17.042  68.900  1.00  0.00    -0.217 C  
BRANCH  23  24
HETATM   24  C   UNL     1      -8.653  18.173  68.222  1.00  0.00    -0.298 A  
HETATM   25  C   UNL     1     -10.041  18.097  68.024  1.00  0.00    -0.376 A  
HETATM   26  C   UNL     1     -10.713  19.098  67.322  1.00  0.00    -0.585 A  
HETATM   27  C   UNL     1     -10.008  20.188  66.815  1.00  0.00    -0.604 A  
HETATM   28  C   UNL     1      -8.634  20.286  67.024  1.00  0.00    -0.398 A  
HETATM   29  C   UNL     1      -7.958  19.285  67.725  1.00  0.00    -0.312 A  
ENDBRANCH  23  24
ENDBRANCH  22  23
ENDBRANCH  21  22
ENDBRANCH  13  21
ENDBRANCH   2   7
TORSDOF 5
ENDMDL
MODEL       60
REMARK 921   NORMALIZED FREE ENERGY PREDICTED BY IDOCK:   -5.59 KCAL/MOL
REMARK 922        TOTAL FREE ENERGY PREDICTED BY IDOCK:   -7.87 KCAL/MOL
REMARK 923 INTER-LIGAND FREE ENERGY PREDICTED BY IDOCK:   -7.74 KCAL/MOL
REMARK 924 INTRA-LIGAND FREE ENERGY PREDICTED BY IDOCK:   -0.13 KCAL/MOL
REMARK 927      BINDING AFFINITY PREDICTED BY RF-SCORE:    0.00 PKD
ROOT
HETATM    1  N   UNL     1     -11.035  19.441  67.130  1.00  0.00    -0.449 N  
HETATM    2  S   UNL     1     -10.275  18.470  65.992  1.00  0.00    -0.267 S  
HETATM    3  H1  UNL     1     -10.453  19.365  67.964  1.00  0.00     0.000 HD 
HETATM    4  H2  UNL     1     -11.888  19.987  67.014  1.00  0.00     0.000 HD 
HETATM    5  O   UNL     1     -11.100  18.579  64.810  1.00  0.00    -0.398 OA 
HETATM    6  O   UNL     1      -8.878  18.824  65.981  1.00  0.00    -0.479 OA 
ENDROOT
BRANCH   2   7
HETATM    7  C   UNL     1     -10.457  16.845  66.655  1.00  0.00    -0.257 A  
HETATM    8  C   UNL     1     -10.896  15.829  65.799  1.00  0.00    -0.286 A  
HETATM    9  C   UNL     1     -11.028  14.526  66.292  1.00  0.00    -0.323 A  
HETATM   10  C   UNL     1     -10.732  14.193  67.606  1.00  0.00    -0.257 A  
HETATM   11  N   UNL     1     -10.874  12.916  68.167  1.00  0.00    -0.227 NA 
HETATM   12  C   UNL     1     -10.287  15.225  68.445  1.00  0.00    -0.227 A  
HETATM   13  C   UNL     1     -11.148  11.871  67.459  1.00  0.00    -0.273 C  
HETATM   14  C   UNL     1     -10.146  16.544  67.982  1.00  0.00    -0.255 A  
HETATM   15  N   UNL     1     -11.314  11.889  66.071  1.00  0.00    -0.335 N  
HETATM   16  O   UNL     1     -12.985  13.411  65.028  1.00  0.00    -0.720 OA 
HETATM   17 CL   UNL     1      -9.597  17.716  69.126  1.00  0.00    -0.112 Cl 
HETATM   18  S   UNL     1     -11.560  13.273  65.209  1.00  0.00    -0.324 S  
HETATM   19  H   UNL     1     -11.281  11.003  65.566  1.00  0.00     0.000 HD 
HETATM   20  O   UNL     1     -10.648  13.233  64.089  1.00  0.00    -0.416 OA 
BRANCH  13  21
HETATM   21  C   UNL     1     -11.322  10.513  68.111  1.00  0.00    -0.254 C  
BRANCH  21  22
HETATM   22  S   UNL     1     -10.395   9.222  67.220  1.00  0.00    -0.265 SA 
BRANCH  22  23
HETATM   23  C   UNL     1      -9.098   8.799  68.437  1.00  0.00    -0.141 C  
BRANCH  23  24
HETATM   24  C   UNL     1      -9.598   7.753  69.401  1.00  0.00    -0.156 A  
HETATM   25  C   UNL     1     -10.676   6.926  69.046  1.00  0.00    -0.259 A  
HETATM   26  C   UNL     1     -11.202   6.015  69.962  1.00  0.00    -0.425 A  
HETATM   27  C   UNL     1     -10.654   5.915  71.239  1.00  0.00    -0.311 A  
HETATM   28  C   UNL     1      -9.569   6.715  71.596  1.00  0.00    -0.167 A  
HETATM   29  C   UNL     1      -9.043   7.629  70.682  1.00  0.00    -0.158 A  
ENDBRANCH  23  24
ENDBRANCH  22  23
ENDBRANCH  21  22
ENDBRANCH  13  21
ENDBRANCH   2   7
TORSDOF 5
ENDMDL
MODEL       61
REMARK 921   NORMALIZED FREE ENERGY PREDICTED BY IDOCK:   -5.58 KCAL/MOL
REMARK 922        TOTAL FREE ENERGY PREDICTED BY IDOCK:   -7.86 KCAL/MOL
REMARK 923 INTER-LIGAND FREE ENERGY PREDICTED BY IDOCK:   -7.65 KCAL/MOL
REMARK 924 INTRA-LIGAND FREE ENERGY PREDICTED BY IDOCK:   -0.21 KCAL/MOL
REMARK 927      BINDING AFFINITY PREDICTED BY RF-SCORE:    0.00 PKD
ROOT
HETATM    1  N   UNL     1     -11.193   8.128  72.559  1.00  0.00    -0.378 N  
HETATM    2  S   UNL     1     -12.062   8.043  71.126  1.00  0.00    -0.222 S  
HETATM    3  H1  UNL     1     -11.643   8.874  73.090  1.00  0.00     0.000 HD 
HETATM    4  H2  UNL     1     -10.394   7.559  72.838  1.00  0.00     0.000 HD 
HETATM    5  O   UNL     1     -11.425   6.986  70.375  1.00  0.00    -0.299 OA 
HETATM    6  O   UNL     1     -13.461   7.998  71.468  1.00  0.00    -0.327 OA 
ENDROOT
BRANCH   2   7
HETATM    7  C   UNL     1     -11.705   9.582  70.341  1.00  0.00    -0.170 A  
HETATM    8  C   UNL     1     -10.838   9.577  69.242  1.00  0.00    -0.211 A  
HETATM    9  C   UNL     1     -10.555  10.780  68.586  1.00  0.00    -0.199 A  
HETATM   10  C   UNL     1     -11.108  11.990  68.978  1.00  0.00    -0.239 A  
HETATM   11  N   UNL     1     -10.840  13.231  68.383  1.00  0.00    -0.250 NA 
HETATM   12  C   UNL     1     -11.979  11.972  70.076  1.00  0.00    -0.400 A  
HETATM   13  C   UNL     1     -10.161  13.347  67.290  1.00  0.00    -0.238 C  
HETATM   14  C   UNL     1     -12.284  10.782  70.758  1.00  0.00    -0.381 A  
HETATM   15  N   UNL     1      -9.639  12.264  66.575  1.00  0.00    -0.232 N  
HETATM   16  O   UNL     1      -8.134  10.629  67.699  1.00  0.00    -0.106 OA 
HETATM   17 CL   UNL     1     -13.365  10.907  72.099  1.00  0.00    -0.458 Cl 
HETATM   18  S   UNL     1      -9.487  10.751  67.212  1.00  0.00    -0.159 S  
HETATM   19  H   UNL     1      -9.337  12.418  65.613  1.00  0.00     0.000 HD 
HETATM   20  O   UNL     1     -10.034   9.833  66.240  1.00  0.00    -0.233 OA 
BRANCH  13  21
HETATM   21  C   UNL     1      -9.868  14.711  66.697  1.00  0.00    -0.269 C  
BRANCH  21  22
HETATM   22  S   UNL     1      -8.167  15.250  67.073  1.00  0.00    -0.226 SA 
BRANCH  22  23
HETATM   23  C   UNL     1      -8.464  16.555  68.318  1.00  0.00    -0.199 C  
BRANCH  23  24
HETATM   24  C   UNL     1      -8.934  17.823  67.652  1.00  0.00    -0.249 A  
HETATM   25  C   UNL     1     -10.289  18.190  67.710  1.00  0.00    -0.413 A  
HETATM   26  C   UNL     1     -10.748  19.314  67.024  1.00  0.00    -0.565 A  
HETATM   27  C   UNL     1      -9.861  20.088  66.279  1.00  0.00    -0.576 A  
HETATM   28  C   UNL     1      -8.510  19.748  66.233  1.00  0.00    -0.390 A  
HETATM   29  C   UNL     1      -8.047  18.621  66.915  1.00  0.00    -0.256 A  
ENDBRANCH  23  24
ENDBRANCH  22  23
ENDBRANCH  21  22
ENDBRANCH  13  21
ENDBRANCH   2   7
TORSDOF 5
ENDMDL
MODEL       62
REMARK 921   NORMALIZED FREE ENERGY PREDICTED BY IDOCK:   -5.56 KCAL/MOL
REMARK 922        TOTAL FREE ENERGY PREDICTED BY IDOCK:   -7.83 KCAL/MOL
REMARK 923 INTER-LIGAND FREE ENERGY PREDICTED BY IDOCK:   -7.50 KCAL/MOL
REMARK 924 INTRA-LIGAND FREE ENERGY PREDICTED BY IDOCK:   -0.33 KCAL/MOL
REMARK 927      BINDING AFFINITY PREDICTED BY RF-SCORE:    0.00 PKD
ROOT
HETATM    1  N   UNL     1      -7.814  19.199  68.282  1.00  0.00    -0.302 N  
HETATM    2  S   UNL     1      -9.485  19.131  68.153  1.00  0.00    -0.362 S  
HETATM    3  H1  UNL     1      -7.472  18.755  67.430  1.00  0.00     0.000 HD 
HETATM    4  H2  UNL     1      -7.263  19.597  69.041  1.00  0.00     0.000 HD 
HETATM    5  O   UNL     1      -9.970  19.762  69.360  1.00  0.00    -0.384 OA 
HETATM    6  O   UNL     1      -9.841  19.617  66.844  1.00  0.00    -0.334 OA 
ENDROOT
BRANCH   2   7
HETATM    7  C   UNL     1      -9.832  17.403  68.246  1.00  0.00    -0.310 A  
HETATM    8  C   UNL     1     -10.646  16.949  69.289  1.00  0.00    -0.325 A  
HETATM    9  C   UNL     1     -10.956  15.587  69.374  1.00  0.00    -0.276 A  
HETATM   10  C   UNL     1     -10.491  14.659  68.453  1.00  0.00    -0.243 A  
HETATM   11  N   UNL     1     -10.740  13.280  68.502  1.00  0.00    -0.257 NA 
HETATM   12  C   UNL     1      -9.683  15.136  67.412  1.00  0.00    -0.209 A  
HETATM   13  C   UNL     1     -11.573  12.751  69.335  1.00  0.00    -0.298 C  
HETATM   14  C   UNL     1      -9.351  16.497  67.299  1.00  0.00    -0.222 A  
HETATM   15  N   UNL     1     -12.327  13.483  70.258  1.00  0.00    -0.322 N  
HETATM   16  O   UNL     1     -11.196  14.999  71.877  1.00  0.00    -0.333 OA 
HETATM   17 CL   UNL     1      -8.340  16.945  65.972  1.00  0.00    -0.272 Cl 
HETATM   18  S   UNL     1     -11.983  15.042  70.669  1.00  0.00    -0.348 S  
HETATM   19  H   UNL     1     -13.128  13.031  70.699  1.00  0.00     0.000 HD 
HETATM   20  O   UNL     1     -13.225  15.776  70.593  1.00  0.00    -0.501 OA 
BRANCH  13  21
HETATM   21  C   UNL     1     -11.789  11.251  69.374  1.00  0.00    -0.355 C  
BRANCH  21  22
HETATM   22  S   UNL     1     -13.235  10.811  70.393  1.00  0.00     0.372 SA 
BRANCH  22  23
HETATM   23  C   UNL     1     -12.434  10.250  71.938  1.00  0.00    -0.243 C  
BRANCH  23  24
HETATM   24  C   UNL     1     -11.890   8.853  71.774  1.00  0.00    -0.429 A  
HETATM   25  C   UNL     1     -10.503   8.632  71.773  1.00  0.00    -0.394 A  
HETATM   26  C   UNL     1      -9.988   7.358  71.536  1.00  0.00    -0.193 A  
HETATM   27  C   UNL     1     -10.852   6.290  71.303  1.00  0.00    -0.317 A  
HETATM   28  C   UNL     1     -12.231   6.491  71.324  1.00  0.00    -0.287 A  
HETATM   29  C   UNL     1     -12.749   7.766  71.559  1.00  0.00    -0.355 A  
ENDBRANCH  23  24
ENDBRANCH  22  23
ENDBRANCH  21  22
ENDBRANCH  13  21
ENDBRANCH   2   7
TORSDOF 5
ENDMDL
MODEL       63
REMARK 921   NORMALIZED FREE ENERGY PREDICTED BY IDOCK:   -5.56 KCAL/MOL
REMARK 922        TOTAL FREE ENERGY PREDICTED BY IDOCK:   -7.83 KCAL/MOL
REMARK 923 INTER-LIGAND FREE ENERGY PREDICTED BY IDOCK:   -7.60 KCAL/MOL
REMARK 924 INTRA-LIGAND FREE ENERGY PREDICTED BY IDOCK:   -0.22 KCAL/MOL
REMARK 927      BINDING AFFINITY PREDICTED BY RF-SCORE:    0.00 PKD
ROOT
HETATM    1  N   UNL     1      -9.261   3.844  69.756  1.00  0.00    -0.126 N  
HETATM    2  S   UNL     1      -8.938   4.663  68.328  1.00  0.00    -0.119 S  
HETATM    3  H1  UNL     1     -10.278   3.792  69.800  1.00  0.00     0.000 HD 
HETATM    4  H2  UNL     1      -8.589   3.480  70.431  1.00  0.00     0.000 HD 
HETATM    5  O   UNL     1      -7.496   4.736  68.267  1.00  0.00    -0.072 OA 
HETATM    6  O   UNL     1      -9.714   4.040  67.285  1.00  0.00    -0.199 OA 
ENDROOT
BRANCH   2   7
HETATM    7  C   UNL     1      -9.570   6.282  68.633  1.00  0.00    -0.123 A  
HETATM    8  C   UNL     1     -10.306   6.493  69.804  1.00  0.00    -0.234 A  
HETATM    9  C   UNL     1     -10.799   7.772  70.083  1.00  0.00    -0.244 A  
HETATM   10  C   UNL     1     -10.582   8.854  69.242  1.00  0.00    -0.207 A  
HETATM   11  N   UNL     1     -11.076  10.150  69.449  1.00  0.00    -0.240 NA 
HETATM   12  C   UNL     1      -9.836   8.622  68.078  1.00  0.00    -0.201 A  
HETATM   13  C   UNL     1     -11.659  10.506  70.546  1.00  0.00    -0.350 C  
HETATM   14  C   UNL     1      -9.328   7.349  67.767  1.00  0.00    -0.136 A  
HETATM   15  N   UNL     1     -11.846   9.659  71.642  1.00  0.00    -0.396 N  
HETATM   16  O   UNL     1     -13.026   7.484  71.361  1.00  0.00    -0.351 OA 
HETATM   17 CL   UNL     1      -8.434   7.206  66.296  1.00  0.00    -0.131 Cl 
HETATM   18  S   UNL     1     -11.699   8.019  71.552  1.00  0.00    -0.296 S  
HETATM   19  H   UNL     1     -12.084  10.076  72.543  1.00  0.00     0.000 HD 
HETATM   20  O   UNL     1     -10.865   7.614  72.660  1.00  0.00    -0.279 OA 
BRANCH  13  21
HETATM   21  C   UNL     1     -12.206  11.910  70.715  1.00  0.00    -0.303 C  
BRANCH  21  22
HETATM   22  S   UNL     1     -11.998  12.894  69.195  1.00  0.00    -0.203 SA 
BRANCH  22  23
HETATM   23  C   UNL     1     -11.230  14.419  69.851  1.00  0.00    -0.177 C  
BRANCH  23  24
HETATM   24  C   UNL     1     -12.053  14.979  70.984  1.00  0.00    -0.381 A  
HETATM   25  C   UNL     1     -11.419  15.562  72.094  1.00  0.00    -0.512 A  
HETATM   26  C   UNL     1     -12.166  16.004  73.185  1.00  0.00    -0.636 A  
HETATM   27  C   UNL     1     -13.554  15.875  73.179  1.00  0.00    -0.580 A  
HETATM   28  C   UNL     1     -14.196  15.319  72.074  1.00  0.00    -0.679 A  
HETATM   29  C   UNL     1     -13.451  14.873  70.981  1.00  0.00    -0.428 A  
ENDBRANCH  23  24
ENDBRANCH  22  23
ENDBRANCH  21  22
ENDBRANCH  13  21
ENDBRANCH   2   7
TORSDOF 5
ENDMDL
MODEL       64
REMARK 921   NORMALIZED FREE ENERGY PREDICTED BY IDOCK:   -5.46 KCAL/MOL
REMARK 922        TOTAL FREE ENERGY PREDICTED BY IDOCK:   -7.70 KCAL/MOL
REMARK 923 INTER-LIGAND FREE ENERGY PREDICTED BY IDOCK:   -6.92 KCAL/MOL
REMARK 924 INTRA-LIGAND FREE ENERGY PREDICTED BY IDOCK:   -0.78 KCAL/MOL
REMARK 927      BINDING AFFINITY PREDICTED BY RF-SCORE:    0.00 PKD
ROOT
HETATM    1  N   UNL     1      -5.961  19.457  67.364  1.00  0.00    -0.189 N  
HETATM    2  S   UNL     1      -7.297  19.230  66.374  1.00  0.00    -0.264 S  
HETATM    3  H1  UNL     1      -5.254  18.823  66.992  1.00  0.00     0.000 HD 
HETATM    4  H2  UNL     1      -5.875  20.088  68.160  1.00  0.00     0.000 HD 
HETATM    5  O   UNL     1      -8.299  20.129  66.901  1.00  0.00    -0.307 OA 
HETATM    6  O   UNL     1      -6.844  19.312  65.008  1.00  0.00    -0.446 OA 
ENDROOT
BRANCH   2   7
HETATM    7  C   UNL     1      -7.790  17.573  66.725  1.00  0.00    -0.230 A  
HETATM    8  C   UNL     1      -6.856  16.719  67.321  1.00  0.00    -0.205 A  
HETATM    9  C   UNL     1      -7.226  15.406  67.631  1.00  0.00    -0.182 A  
HETATM   10  C   UNL     1      -8.497  14.911  67.377  1.00  0.00    -0.195 A  
HETATM   11  N   UNL     1      -8.919  13.599  67.634  1.00  0.00    -0.191 NA 
HETATM   12  C   UNL     1      -9.420  15.785  66.786  1.00  0.00    -0.259 A  
HETATM   13  C   UNL     1      -8.199  12.752  68.293  1.00  0.00    -0.159 C  
HETATM   14  C   UNL     1      -9.079  17.109  66.460  1.00  0.00    -0.269 A  
HETATM   15  N   UNL     1      -6.943  13.048  68.833  1.00  0.00    -0.117 N  
HETATM   16  O   UNL     1      -5.126  13.924  67.373  1.00  0.00    -0.327 OA 
HETATM   17 CL   UNL     1     -10.312  18.073  65.729  1.00  0.00    -0.270 Cl 
HETATM   18  S   UNL     1      -6.055  14.363  68.386  1.00  0.00    -0.113 S  
HETATM   19  H   UNL     1      -6.557  12.418  69.536  1.00  0.00     0.000 HD 
HETATM   20  O   UNL     1      -5.611  14.998  69.605  1.00  0.00    -0.094 OA 
BRANCH  13  21
HETATM   21  C   UNL     1      -8.681  11.333  68.522  1.00  0.00    -0.156 C  
BRANCH  21  22
HETATM   22  S   UNL     1      -9.254  10.565  66.971  1.00  0.00    -0.151 SA 
BRANCH  22  23
HETATM   23  C   UNL     1     -11.041  10.951  67.012  1.00  0.00    -0.202 C  
BRANCH  23  24
HETATM   24  C   UNL     1     -11.384  11.973  65.958  1.00  0.00    -0.398 A  
HETATM   25  C   UNL     1     -12.202  13.069  66.279  1.00  0.00    -0.390 A  
HETATM   26  C   UNL     1     -12.596  13.973  65.293  1.00  0.00    -0.495 A  
HETATM   27  C   UNL     1     -12.174  13.796  63.976  1.00  0.00    -0.429 A  
HETATM   28  C   UNL     1     -11.343  12.726  63.650  1.00  0.00    -0.514 A  
HETATM   29  C   UNL     1     -10.949  11.818  64.635  1.00  0.00    -0.368 A  
ENDBRANCH  23  24
ENDBRANCH  22  23
ENDBRANCH  21  22
ENDBRANCH  13  21
ENDBRANCH   2   7
TORSDOF 5
ENDMDL
MODEL       65
REMARK 921   NORMALIZED FREE ENERGY PREDICTED BY IDOCK:   -5.45 KCAL/MOL
REMARK 922        TOTAL FREE ENERGY PREDICTED BY IDOCK:   -7.69 KCAL/MOL
REMARK 923 INTER-LIGAND FREE ENERGY PREDICTED BY IDOCK:   -7.16 KCAL/MOL
REMARK 924 INTRA-LIGAND FREE ENERGY PREDICTED BY IDOCK:   -0.52 KCAL/MOL
REMARK 927      BINDING AFFINITY PREDICTED BY RF-SCORE:    0.00 PKD
ROOT
HETATM    1  N   UNL     1      -7.166  19.454  68.221  1.00  0.00    -0.284 N  
HETATM    2  S   UNL     1      -8.468  19.350  67.168  1.00  0.00    -0.300 S  
HETATM    3  H1  UNL     1      -6.374  19.093  67.688  1.00  0.00     0.000 HD 
HETATM    4  H2  UNL     1      -7.165  19.801  69.179  1.00  0.00     0.000 HD 
HETATM    5  O   UNL     1      -9.589  19.863  67.923  1.00  0.00    -0.349 OA 
HETATM    6  O   UNL     1      -8.062  19.936  65.916  1.00  0.00    -0.356 OA 
ENDROOT
BRANCH   2   7
HETATM    7  C   UNL     1      -8.683  17.612  66.954  1.00  0.00    -0.246 A  
HETATM    8  C   UNL     1      -7.780  16.752  67.588  1.00  0.00    -0.183 A  
HETATM    9  C   UNL     1      -7.940  15.369  67.454  1.00  0.00    -0.188 A  
HETATM   10  C   UNL     1      -8.973  14.807  66.717  1.00  0.00    -0.266 A  
HETATM   11  N   UNL     1      -9.168  13.432  66.519  1.00  0.00    -0.213 NA 
HETATM   12  C   UNL     1      -9.871  15.686  66.096  1.00  0.00    -0.340 A  
HETATM   13  C   UNL     1      -8.485  12.534  67.148  1.00  0.00    -0.186 C  
HETATM   14  C   UNL     1      -9.737  17.080  66.209  1.00  0.00    -0.283 A  
HETATM   15  N   UNL     1      -7.499  12.824  68.097  1.00  0.00    -0.112 N  
HETATM   16  O   UNL     1      -5.587  14.305  67.506  1.00  0.00    -0.346 OA 
HETATM   17 CL   UNL     1     -10.910  18.044  65.385  1.00  0.00    -0.050 Cl 
HETATM   18  S   UNL     1      -6.816  14.315  68.262  1.00  0.00    -0.126 S  
HETATM   19  H   UNL     1      -7.188  12.076  68.717  1.00  0.00     0.000 HD 
HETATM   20  O   UNL     1      -6.843  14.630  69.672  1.00  0.00    -0.152 OA 
BRANCH  13  21
HETATM   21  C   UNL     1      -8.708  11.058  66.880  1.00  0.00    -0.148 C  
BRANCH  21  22
HETATM   22  S   UNL     1     -10.225  10.456  67.692  1.00  0.00    -0.215 SA 
BRANCH  22  23
HETATM   23  C   UNL     1      -9.622  10.118  69.385  1.00  0.00    -0.232 C  
BRANCH  23  24
HETATM   24  C   UNL     1     -10.782   9.936  70.331  1.00  0.00    -0.379 A  
HETATM   25  C   UNL     1     -10.702   8.996  71.372  1.00  0.00    -0.401 A  
HETATM   26  C   UNL     1     -11.800   8.759  72.199  1.00  0.00    -0.436 A  
HETATM   27  C   UNL     1     -12.987   9.461  72.001  1.00  0.00    -0.508 A  
HETATM   28  C   UNL     1     -13.071  10.413  70.986  1.00  0.00    -0.450 A  
HETATM   29  C   UNL     1     -11.975  10.651  70.155  1.00  0.00    -0.417 A  
ENDBRANCH  23  24
ENDBRANCH  22  23
ENDBRANCH  21  22
ENDBRANCH  13  21
ENDBRANCH   2   7
TORSDOF 5
ENDMDL
MODEL       66
REMARK 921   NORMALIZED FREE ENERGY PREDICTED BY IDOCK:   -5.42 KCAL/MOL
REMARK 922        TOTAL FREE ENERGY PREDICTED BY IDOCK:   -7.66 KCAL/MOL
REMARK 923 INTER-LIGAND FREE ENERGY PREDICTED BY IDOCK:   -7.20 KCAL/MOL
REMARK 924 INTRA-LIGAND FREE ENERGY PREDICTED BY IDOCK:   -0.46 KCAL/MOL
REMARK 927      BINDING AFFINITY PREDICTED BY RF-SCORE:    0.00 PKD
ROOT
HETATM    1  N   UNL     1      -6.150  17.552  69.838  1.00  0.00    -0.225 N  
HETATM    2  S   UNL     1      -6.676  18.664  68.698  1.00  0.00    -0.275 S  
HETATM    3  H1  UNL     1      -5.728  16.801  69.292  1.00  0.00     0.000 HD 
HETATM    4  H2  UNL     1      -6.232  17.612  70.853  1.00  0.00     0.000 HD 
HETATM    5  O   UNL     1      -7.273  19.728  69.474  1.00  0.00    -0.325 OA 
HETATM    6  O   UNL     1      -5.583  18.905  67.790  1.00  0.00    -0.177 OA 
ENDROOT
BRANCH   2   7
HETATM    7  C   UNL     1      -7.959  17.802  67.848  1.00  0.00    -0.233 A  
HETATM    8  C   UNL     1      -8.438  16.613  68.407  1.00  0.00    -0.216 A  
HETATM    9  C   UNL     1      -9.471  15.920  67.767  1.00  0.00    -0.216 A  
HETATM   10  C   UNL     1     -10.052  16.371  66.590  1.00  0.00    -0.284 A  
HETATM   11  N   UNL     1     -11.066  15.707  65.884  1.00  0.00    -0.221 NA 
HETATM   12  C   UNL     1      -9.562  17.568  66.050  1.00  0.00    -0.123 A  
HETATM   13  C   UNL     1     -11.679  14.672  66.355  1.00  0.00    -0.322 C  
HETATM   14  C   UNL     1      -8.525  18.287  66.668  1.00  0.00    -0.265 A  
HETATM   15  N   UNL     1     -11.420  14.114  67.611  1.00  0.00    -0.319 N  
HETATM   16  O   UNL     1      -9.111  13.401  68.213  1.00  0.00    -0.189 OA 
HETATM   17 CL   UNL     1      -8.014  19.741  65.888  1.00  0.00    -0.335 Cl 
HETATM   18  S   UNL     1     -10.064  14.451  68.486  1.00  0.00    -0.246 S  
HETATM   19  H   UNL     1     -12.103  13.466  68.004  1.00  0.00     0.000 HD 
HETATM   20  O   UNL     1     -10.501  14.755  69.829  1.00  0.00    -0.175 OA 
BRANCH  13  21
HETATM   21  C   UNL     1     -12.749  13.966  65.545  1.00  0.00    -0.499 C  
BRANCH  21  22
HETATM   22  S   UNL     1     -12.033  13.096  64.111  1.00  0.00    -0.459 SA 
BRANCH  22  23
HETATM   23  C   UNL     1     -10.307  12.849  64.660  1.00  0.00    -0.344 C  
BRANCH  23  24
HETATM   24  C   UNL     1     -10.096  11.428  65.117  1.00  0.00    -0.319 A  
HETATM   25  C   UNL     1     -10.650  10.987  66.330  1.00  0.00    -0.308 A  
HETATM   26  C   UNL     1     -10.389   9.701  66.803  1.00  0.00    -0.292 A  
HETATM   27  C   UNL     1      -9.577   8.839  66.068  1.00  0.00    -0.297 A  
HETATM   28  C   UNL     1      -9.041   9.256  64.852  1.00  0.00    -0.227 A  
HETATM   29  C   UNL     1      -9.298  10.544  64.377  1.00  0.00    -0.307 A  
ENDBRANCH  23  24
ENDBRANCH  22  23
ENDBRANCH  21  22
ENDBRANCH  13  21
ENDBRANCH   2   7
TORSDOF 5
ENDMDL
MODEL       67
REMARK 921   NORMALIZED FREE ENERGY PREDICTED BY IDOCK:   -5.41 KCAL/MOL
REMARK 922        TOTAL FREE ENERGY PREDICTED BY IDOCK:   -7.64 KCAL/MOL
REMARK 923 INTER-LIGAND FREE ENERGY PREDICTED BY IDOCK:   -7.11 KCAL/MOL
REMARK 924 INTRA-LIGAND FREE ENERGY PREDICTED BY IDOCK:   -0.53 KCAL/MOL
REMARK 927      BINDING AFFINITY PREDICTED BY RF-SCORE:    0.00 PKD
ROOT
HETATM    1  N   UNL     1      -8.120   2.353  70.096  1.00  0.00    -0.041 N  
HETATM    2  S   UNL     1      -8.730   3.031  68.688  1.00  0.00    -0.113 S  
HETATM    3  H1  UNL     1      -8.933   1.946  70.559  1.00  0.00     0.000 HD 
HETATM    4  H2  UNL     1      -7.153   2.348  70.417  1.00  0.00     0.000 HD 
HETATM    5  O   UNL     1      -7.579   3.607  68.031  1.00  0.00    -0.064 OA 
HETATM    6  O   UNL     1      -9.554   2.037  68.048  1.00  0.00    -0.194 OA 
ENDROOT
BRANCH   2   7
HETATM    7  C   UNL     1      -9.754   4.342  69.276  1.00  0.00    -0.182 A  
HETATM    8  C   UNL     1      -9.863   4.526  70.658  1.00  0.00    -0.292 A  
HETATM    9  C   UNL     1     -10.649   5.572  71.153  1.00  0.00    -0.233 A  
HETATM   10  C   UNL     1     -11.330   6.449  70.320  1.00  0.00    -0.403 A  
HETATM   11  N   UNL     1     -12.158   7.494  70.753  1.00  0.00    -0.216 NA 
HETATM   12  C   UNL     1     -11.202   6.252  68.938  1.00  0.00    -0.387 A  
HETATM   13  C   UNL     1     -12.243   7.848  71.993  1.00  0.00    -0.317 C  
HETATM   14  C   UNL     1     -10.421   5.210  68.410  1.00  0.00    -0.014 A  
HETATM   15  N   UNL     1     -11.516   7.250  73.028  1.00  0.00    -0.575 N  
HETATM   16  O   UNL     1     -11.656   4.792  73.400  1.00  0.00    -0.323 OA 
HETATM   17 CL   UNL     1     -10.360   5.079  66.688  1.00  0.00    -0.301 Cl 
HETATM   18  S   UNL     1     -10.760   5.794  72.875  1.00  0.00    -0.264 S  
HETATM   19  H   UNL     1     -11.452   7.739  73.921  1.00  0.00     0.000 HD 
HETATM   20  O   UNL     1      -9.420   5.965  73.390  1.00  0.00    -0.139 OA 
BRANCH  13  21
HETATM   21  C   UNL     1     -13.175   8.964  72.421  1.00  0.00    -0.430 C  
BRANCH  21  22
HETATM   22  S   UNL     1     -13.240  10.293  71.175  1.00  0.00    -0.270 SA 
BRANCH  22  23
HETATM   23  C   UNL     1     -11.478  10.443  70.710  1.00  0.00    -0.332 C  
BRANCH  23  24
HETATM   24  C   UNL     1     -11.345  10.789  69.249  1.00  0.00    -0.352 A  
HETATM   25  C   UNL     1     -10.629   9.942  68.386  1.00  0.00    -0.258 A  
HETATM   26  C   UNL     1     -10.427  10.296  67.052  1.00  0.00    -0.304 A  
HETATM   27  C   UNL     1     -10.941  11.495  66.563  1.00  0.00    -0.346 A  
HETATM   28  C   UNL     1     -11.673  12.333  67.403  1.00  0.00    -0.405 A  
HETATM   29  C   UNL     1     -11.875  11.983  68.739  1.00  0.00    -0.358 A  
ENDBRANCH  23  24
ENDBRANCH  22  23
ENDBRANCH  21  22
ENDBRANCH  13  21
ENDBRANCH   2   7
TORSDOF 5
ENDMDL
MODEL       68
REMARK 921   NORMALIZED FREE ENERGY PREDICTED BY IDOCK:   -5.37 KCAL/MOL
REMARK 922        TOTAL FREE ENERGY PREDICTED BY IDOCK:   -7.59 KCAL/MOL
REMARK 923 INTER-LIGAND FREE ENERGY PREDICTED BY IDOCK:   -7.19 KCAL/MOL
REMARK 924 INTRA-LIGAND FREE ENERGY PREDICTED BY IDOCK:   -0.40 KCAL/MOL
REMARK 927      BINDING AFFINITY PREDICTED BY RF-SCORE:    0.00 PKD
ROOT
HETATM    1  N   UNL     1     -11.495   4.757  73.575  1.00  0.00    -0.403 N  
HETATM    2  S   UNL     1     -10.081   5.028  72.715  1.00  0.00    -0.178 S  
HETATM    3  H1  UNL     1     -12.223   4.699  72.863  1.00  0.00     0.000 HD 
HETATM    4  H2  UNL     1     -11.604   4.669  74.585  1.00  0.00     0.000 HD 
HETATM    5  O   UNL     1      -9.050   5.110  73.725  1.00  0.00    -0.123 OA 
HETATM    6  O   UNL     1     -10.028   4.060  71.649  1.00  0.00    -0.183 OA 
ENDROOT
BRANCH   2   7
HETATM    7  C   UNL     1     -10.321   6.636  72.029  1.00  0.00    -0.197 A  
HETATM    8  C   UNL     1     -11.586   7.222  72.149  1.00  0.00    -0.324 A  
HETATM    9  C   UNL     1     -11.799   8.505  71.634  1.00  0.00    -0.311 A  
HETATM   10  C   UNL     1     -10.797   9.233  71.009  1.00  0.00    -0.314 A  
HETATM   11  N   UNL     1     -10.956  10.507  70.445  1.00  0.00    -0.252 NA 
HETATM   12  C   UNL     1      -9.536   8.630  70.905  1.00  0.00    -0.242 A  
HETATM   13  C   UNL     1     -12.031  11.207  70.597  1.00  0.00    -0.360 C  
HETATM   14  C   UNL     1      -9.289   7.342  71.410  1.00  0.00    -0.149 A  
HETATM   15  N   UNL     1     -13.136  10.789  71.345  1.00  0.00    -0.389 N  
HETATM   16  O   UNL     1     -14.252   8.623  70.831  1.00  0.00    -0.069 OA 
HETATM   17 CL   UNL     1      -7.691   6.719  71.205  1.00  0.00    -0.092 Cl 
HETATM   18  S   UNL     1     -13.374   9.224  71.807  1.00  0.00    -0.433 S  
HETATM   19  H   UNL     1     -13.829  11.486  71.618  1.00  0.00     0.000 HD 
HETATM   20  O   UNL     1     -13.702   9.251  73.214  1.00  0.00    -0.047 OA 
BRANCH  13  21
HETATM   21  C   UNL     1     -12.172  12.568  69.944  1.00  0.00    -0.163 C  
BRANCH  21  22
HETATM   22  S   UNL     1     -10.922  12.814  68.640  1.00  0.00    -0.266 SA 
BRANCH  22  23
HETATM   23  C   UNL     1     -11.535  11.692  67.332  1.00  0.00    -0.285 C  
BRANCH  23  24
HETATM   24  C   UNL     1     -11.658  12.427  66.021  1.00  0.00    -0.455 A  
HETATM   25  C   UNL     1     -11.617  13.831  65.993  1.00  0.00    -0.361 A  
HETATM   26  C   UNL     1     -11.816  14.522  64.798  1.00  0.00    -0.446 A  
HETATM   27  C   UNL     1     -12.052  13.820  63.618  1.00  0.00    -0.330 A  
HETATM   28  C   UNL     1     -12.072  12.427  63.628  1.00  0.00    -0.648 A  
HETATM   29  C   UNL     1     -11.876  11.732  64.823  1.00  0.00    -0.174 A  
ENDBRANCH  23  24
ENDBRANCH  22  23
ENDBRANCH  21  22
ENDBRANCH  13  21
ENDBRANCH   2   7
TORSDOF 5
ENDMDL
MODEL       69
REMARK 921   NORMALIZED FREE ENERGY PREDICTED BY IDOCK:   -5.35 KCAL/MOL
REMARK 922        TOTAL FREE ENERGY PREDICTED BY IDOCK:   -7.57 KCAL/MOL
REMARK 923 INTER-LIGAND FREE ENERGY PREDICTED BY IDOCK:   -7.00 KCAL/MOL
REMARK 924 INTRA-LIGAND FREE ENERGY PREDICTED BY IDOCK:   -0.57 KCAL/MOL
REMARK 927      BINDING AFFINITY PREDICTED BY RF-SCORE:    0.00 PKD
ROOT
HETATM    1  N   UNL     1      -9.501   5.254  68.406  1.00  0.00    -0.119 N  
HETATM    2  S   UNL     1      -9.272   5.656  66.794  1.00  0.00    -0.133 S  
HETATM    3  H1  UNL     1     -10.454   5.551  68.614  1.00  0.00     0.000 HD 
HETATM    4  H2  UNL     1      -8.836   4.810  69.039  1.00  0.00     0.000 HD 
HETATM    5  O   UNL     1      -7.921   5.234  66.501  1.00  0.00    -0.103 OA 
HETATM    6  O   UNL     1     -10.403   5.155  66.056  1.00  0.00    -0.217 OA 
ENDROOT
BRANCH   2   7
HETATM    7  C   UNL     1      -9.318   7.420  66.803  1.00  0.00    -0.160 A  
HETATM    8  C   UNL     1      -9.786   8.062  67.954  1.00  0.00    -0.204 A  
HETATM    9  C   UNL     1      -9.813   9.460  67.997  1.00  0.00    -0.164 A  
HETATM   10  C   UNL     1      -9.384  10.246  66.938  1.00  0.00    -0.158 A  
HETATM   11  N   UNL     1      -9.415  11.648  66.908  1.00  0.00    -0.182 NA 
HETATM   12  C   UNL     1      -8.912   9.583  65.797  1.00  0.00    -0.219 A  
HETATM   13  C   UNL     1      -9.705  12.361  67.946  1.00  0.00    -0.204 C  
HETATM   14  C   UNL     1      -8.873   8.180  65.720  1.00  0.00    -0.135 A  
HETATM   15  N   UNL     1      -9.997  11.826  69.204  1.00  0.00    -0.410 N  
HETATM   16  O   UNL     1     -11.825  10.154  69.462  1.00  0.00    -0.132 OA 
HETATM   17 CL   UNL     1      -8.276   7.497  64.250  1.00  0.00    -0.057 Cl 
HETATM   18  S   UNL     1     -10.384  10.241  69.444  1.00  0.00    -0.248 S  
HETATM   19  H   UNL     1      -9.970  12.446  70.014  1.00  0.00     0.000 HD 
HETATM   20  O   UNL     1      -9.578   9.778  70.550  1.00  0.00    -0.239 OA 
BRANCH  13  21
HETATM   21  C   UNL     1      -9.757  13.874  67.861  1.00  0.00    -0.231 C  
BRANCH  21  22
HETATM   22  S   UNL     1     -11.466  14.490  68.008  1.00  0.00    -0.337 SA 
BRANCH  22  23
HETATM   23  C   UNL     1     -11.295  15.720  69.350  1.00  0.00    -0.348 C  
BRANCH  23  24
HETATM   24  C   UNL     1     -11.913  15.201  70.624  1.00  0.00    -0.371 A  
HETATM   25  C   UNL     1     -12.509  13.929  70.651  1.00  0.00    -0.436 A  
HETATM   26  C   UNL     1     -13.159  13.475  71.798  1.00  0.00    -0.475 A  
HETATM   27  C   UNL     1     -13.217  14.282  72.933  1.00  0.00    -0.593 A  
HETATM   28  C   UNL     1     -12.609  15.537  72.926  1.00  0.00    -0.533 A  
HETATM   29  C   UNL     1     -11.960  15.995  71.778  1.00  0.00    -0.592 A  
ENDBRANCH  23  24
ENDBRANCH  22  23
ENDBRANCH  21  22
ENDBRANCH  13  21
ENDBRANCH   2   7
TORSDOF 5
ENDMDL
MODEL       70
REMARK 921   NORMALIZED FREE ENERGY PREDICTED BY IDOCK:   -5.35 KCAL/MOL
REMARK 922        TOTAL FREE ENERGY PREDICTED BY IDOCK:   -7.56 KCAL/MOL
REMARK 923 INTER-LIGAND FREE ENERGY PREDICTED BY IDOCK:   -7.22 KCAL/MOL
REMARK 924 INTRA-LIGAND FREE ENERGY PREDICTED BY IDOCK:   -0.34 KCAL/MOL
REMARK 927      BINDING AFFINITY PREDICTED BY RF-SCORE:    0.00 PKD
ROOT
HETATM    1  N   UNL     1      -9.445  19.208  66.361  1.00  0.00    -0.346 N  
HETATM    2  S   UNL     1      -7.924  18.615  66.747  1.00  0.00    -0.263 S  
HETATM    3  H1  UNL     1     -10.010  19.029  67.191  1.00  0.00     0.000 HD 
HETATM    4  H2  UNL     1      -9.740  19.650  65.491  1.00  0.00     0.000 HD 
HETATM    5  O   UNL     1      -7.124  18.869  65.571  1.00  0.00    -0.450 OA 
HETATM    6  O   UNL     1      -7.567  19.142  68.040  1.00  0.00    -0.262 OA 
ENDROOT
BRANCH   2   7
HETATM    7  C   UNL     1      -8.186  16.875  66.881  1.00  0.00    -0.213 A  
HETATM    8  C   UNL     1      -9.407  16.355  66.438  1.00  0.00    -0.322 A  
HETATM    9  C   UNL     1      -9.634  14.977  66.511  1.00  0.00    -0.277 A  
HETATM   10  C   UNL     1      -8.685  14.092  67.003  1.00  0.00    -0.203 A  
HETATM   11  N   UNL     1      -8.864  12.707  67.132  1.00  0.00    -0.197 NA 
HETATM   12  C   UNL     1      -7.466  14.632  67.435  1.00  0.00    -0.212 A  
HETATM   13  C   UNL     1      -9.889  12.088  66.648  1.00  0.00    -0.204 C  
HETATM   14  C   UNL     1      -7.208  16.012  67.377  1.00  0.00    -0.187 A  
HETATM   15  N   UNL     1     -10.915  12.716  65.933  1.00  0.00    -0.271 N  
HETATM   16  O   UNL     1     -12.157  14.625  66.940  1.00  0.00    -0.361 OA 
HETATM   17 CL   UNL     1      -5.666  16.541  67.951  1.00  0.00    -0.122 Cl 
HETATM   18  S   UNL     1     -11.153  14.347  65.942  1.00  0.00    -0.326 S  
HETATM   19  H   UNL     1     -11.547  12.136  65.381  1.00  0.00     0.000 HD 
HETATM   20  O   UNL     1     -11.315  14.751  64.564  1.00  0.00    -0.364 OA 
BRANCH  13  21
HETATM   21  C   UNL     1     -10.057  10.594  66.836  1.00  0.00    -0.214 C  
BRANCH  21  22
HETATM   22  S   UNL     1     -10.777  10.205  68.466  1.00  0.00    -0.240 SA 
BRANCH  22  23
HETATM   23  C   UNL     1     -10.410   8.419  68.609  1.00  0.00    -0.197 C  
BRANCH  23  24
HETATM   24  C   UNL     1     -10.745   7.920  69.992  1.00  0.00    -0.244 A  
HETATM   25  C   UNL     1     -10.913   8.831  71.048  1.00  0.00    -0.328 A  
HETATM   26  C   UNL     1     -11.137   8.376  72.347  1.00  0.00    -0.431 A  
HETATM   27  C   UNL     1     -11.201   7.008  72.606  1.00  0.00    -0.310 A  
HETATM   28  C   UNL     1     -11.059   6.095  71.563  1.00  0.00    -0.342 A  
HETATM   29  C   UNL     1     -10.832   6.547  70.261  1.00  0.00    -0.333 A  
ENDBRANCH  23  24
ENDBRANCH  22  23
ENDBRANCH  21  22
ENDBRANCH  13  21
ENDBRANCH   2   7
TORSDOF 5
ENDMDL
MODEL       71
REMARK 921   NORMALIZED FREE ENERGY PREDICTED BY IDOCK:   -5.34 KCAL/MOL
REMARK 922        TOTAL FREE ENERGY PREDICTED BY IDOCK:   -7.55 KCAL/MOL
REMARK 923 INTER-LIGAND FREE ENERGY PREDICTED BY IDOCK:   -7.34 KCAL/MOL
REMARK 924 INTRA-LIGAND FREE ENERGY PREDICTED BY IDOCK:   -0.22 KCAL/MOL
REMARK 927      BINDING AFFINITY PREDICTED BY RF-SCORE:    0.00 PKD
ROOT
HETATM    1  N   UNL     1      -8.486  20.498  65.854  1.00  0.00    -0.426 N  
HETATM    2  S   UNL     1      -9.875  19.860  66.544  1.00  0.00    -0.483 S  
HETATM    3  H1  UNL     1      -8.297  19.898  65.051  1.00  0.00     0.000 HD 
HETATM    4  H2  UNL     1      -7.949  21.306  66.167  1.00  0.00     0.000 HD 
HETATM    5  O   UNL     1     -10.142  20.711  67.682  1.00  0.00    -0.368 OA 
HETATM    6  O   UNL     1     -10.839  19.675  65.489  1.00  0.00    -0.452 OA 
ENDROOT
BRANCH   2   7
HETATM    7  C   UNL     1      -9.351  18.282  67.135  1.00  0.00    -0.264 A  
HETATM    8  C   UNL     1      -9.966  17.142  66.607  1.00  0.00    -0.298 A  
HETATM    9  C   UNL     1      -9.555  15.877  67.041  1.00  0.00    -0.223 A  
HETATM   10  C   UNL     1      -8.547  15.703  67.978  1.00  0.00    -0.155 A  
HETATM   11  N   UNL     1      -8.112  14.466  68.476  1.00  0.00    -0.142 NA 
HETATM   12  C   UNL     1      -7.939  16.858  68.489  1.00  0.00    -0.242 A  
HETATM   13  C   UNL     1      -8.507  13.339  67.983  1.00  0.00    -0.170 C  
HETATM   14  C   UNL     1      -8.329  18.143  68.076  1.00  0.00    -0.261 A  
HETATM   15  N   UNL     1      -9.386  13.224  66.901  1.00  0.00    -0.238 N  
HETATM   16  O   UNL     1     -11.618  14.325  66.977  1.00  0.00    -0.349 OA 
HETATM   17 CL   UNL     1      -7.501  19.478  68.795  1.00  0.00    -0.384 Cl 
HETATM   18  S   UNL     1     -10.321  14.470  66.361  1.00  0.00    -0.303 S  
HETATM   19  H   UNL     1      -9.452  12.326  66.422  1.00  0.00     0.000 HD 
HETATM   20  O   UNL     1     -10.158  14.522  64.927  1.00  0.00    -0.378 OA 
BRANCH  13  21
HETATM   21  C   UNL     1      -8.035  12.024  68.572  1.00  0.00    -0.132 C  
BRANCH  21  22
HETATM   22  S   UNL     1      -8.794  10.602  67.719  1.00  0.00    -0.134 SA 
BRANCH  22  23
HETATM   23  C   UNL     1      -9.511   9.676  69.124  1.00  0.00    -0.171 C  
BRANCH  23  24
HETATM   24  C   UNL     1      -9.980   8.316  68.674  1.00  0.00    -0.203 A  
HETATM   25  C   UNL     1     -10.005   7.994  67.307  1.00  0.00    -0.282 A  
HETATM   26  C   UNL     1     -10.518   6.771  66.875  1.00  0.00    -0.350 A  
HETATM   27  C   UNL     1     -11.007   5.854  67.803  1.00  0.00    -0.245 A  
HETATM   28  C   UNL     1     -10.966   6.151  69.164  1.00  0.00    -0.450 A  
HETATM   29  C   UNL     1     -10.455   7.375  69.599  1.00  0.00    -0.237 A  
ENDBRANCH  23  24
ENDBRANCH  22  23
ENDBRANCH  21  22
ENDBRANCH  13  21
ENDBRANCH   2   7
TORSDOF 5
ENDMDL
MODEL       72
REMARK 921   NORMALIZED FREE ENERGY PREDICTED BY IDOCK:   -5.34 KCAL/MOL
REMARK 922        TOTAL FREE ENERGY PREDICTED BY IDOCK:   -7.55 KCAL/MOL
REMARK 923 INTER-LIGAND FREE ENERGY PREDICTED BY IDOCK:   -6.84 KCAL/MOL
REMARK 924 INTRA-LIGAND FREE ENERGY PREDICTED BY IDOCK:   -0.71 KCAL/MOL
REMARK 927      BINDING AFFINITY PREDICTED BY RF-SCORE:    0.00 PKD
ROOT
HETATM    1  N   UNL     1      -8.050   5.640  68.414  1.00  0.00    -0.102 N  
HETATM    2  S   UNL     1      -9.720   5.620  68.256  1.00  0.00    -0.137 S  
HETATM    3  H1  UNL     1      -7.883   6.022  69.345  1.00  0.00     0.000 HD 
HETATM    4  H2  UNL     1      -7.356   5.337  67.732  1.00  0.00     0.000 HD 
HETATM    5  O   UNL     1      -9.956   5.077  66.937  1.00  0.00    -0.171 OA 
HETATM    6  O   UNL     1     -10.262   5.003  69.441  1.00  0.00    -0.228 OA 
ENDROOT
BRANCH   2   7
HETATM    7  C   UNL     1     -10.150   7.331  68.243  1.00  0.00    -0.170 A  
HETATM    8  C   UNL     1     -10.811   7.854  69.360  1.00  0.00    -0.114 A  
HETATM    9  C   UNL     1     -11.144   9.212  69.387  1.00  0.00    -0.008 A  
HETATM   10  C   UNL     1     -10.837  10.075  68.344  1.00  0.00    -0.235 A  
HETATM   11  N   UNL     1     -11.171  11.436  68.298  1.00  0.00    -0.239 NA 
HETATM   12  C   UNL     1     -10.168   9.533  67.238  1.00  0.00    -0.295 A  
HETATM   13  C   UNL     1     -11.667  12.067  69.310  1.00  0.00    -0.330 C  
HETATM   14  C   UNL     1      -9.821   8.172  67.179  1.00  0.00    -0.217 A  
HETATM   15  N   UNL     1     -11.906  11.479  70.556  1.00  0.00    -0.468 N  
HETATM   16  O   UNL     1     -13.338   9.449  70.730  1.00  0.00    -0.093 OA 
HETATM   17 CL   UNL     1      -9.008   7.637  65.752  1.00  0.00    -0.143 Cl 
HETATM   18  S   UNL     1     -11.952   9.848  70.791  1.00  0.00    -0.327 S  
HETATM   19  H   UNL     1     -12.061  12.089  71.359  1.00  0.00     0.000 HD 
HETATM   20  O   UNL     1     -11.128   9.570  71.945  1.00  0.00    -0.290 OA 
BRANCH  13  21
HETATM   21  C   UNL     1     -12.043  13.532  69.206  1.00  0.00    -0.288 C  
BRANCH  21  22
HETATM   22  S   UNL     1     -10.949  14.420  68.049  1.00  0.00    -0.266 SA 
BRANCH  22  23
HETATM   23  C   UNL     1     -12.016  14.555  66.571  1.00  0.00    -0.340 C  
BRANCH  23  24
HETATM   24  C   UNL     1     -11.711  13.445  65.597  1.00  0.00    -0.374 A  
HETATM   25  C   UNL     1     -10.387  13.013  65.410  1.00  0.00    -0.313 A  
HETATM   26  C   UNL     1     -10.085  12.048  64.450  1.00  0.00    -0.298 A  
HETATM   27  C   UNL     1     -11.100  11.499  63.670  1.00  0.00    -0.469 A  
HETATM   28  C   UNL     1     -12.421  11.901  63.861  1.00  0.00    -0.478 A  
HETATM   29  C   UNL     1     -12.726  12.869  64.820  1.00  0.00    -0.442 A  
ENDBRANCH  23  24
ENDBRANCH  22  23
ENDBRANCH  21  22
ENDBRANCH  13  21
ENDBRANCH   2   7
TORSDOF 5
ENDMDL
MODEL       73
REMARK 921   NORMALIZED FREE ENERGY PREDICTED BY IDOCK:   -5.34 KCAL/MOL
REMARK 922        TOTAL FREE ENERGY PREDICTED BY IDOCK:   -7.55 KCAL/MOL
REMARK 923 INTER-LIGAND FREE ENERGY PREDICTED BY IDOCK:   -7.15 KCAL/MOL
REMARK 924 INTRA-LIGAND FREE ENERGY PREDICTED BY IDOCK:   -0.40 KCAL/MOL
REMARK 927      BINDING AFFINITY PREDICTED BY RF-SCORE:    0.00 PKD
ROOT
HETATM    1  N   UNL     1     -13.182  14.391  73.026  1.00  0.00    -0.516 N  
HETATM    2  S   UNL     1     -12.968  15.344  71.662  1.00  0.00    -0.469 S  
HETATM    3  H1  UNL     1     -12.238  14.132  73.311  1.00  0.00     0.000 HD 
HETATM    4  H2  UNL     1     -14.061  14.130  73.473  1.00  0.00     0.000 HD 
HETATM    5  O   UNL     1     -14.306  15.711  71.260  1.00  0.00    -0.521 OA 
HETATM    6  O   UNL     1     -11.968  16.333  71.976  1.00  0.00    -0.500 OA 
ENDROOT
BRANCH   2   7
HETATM    7  C   UNL     1     -12.315  14.215  70.474  1.00  0.00    -0.364 A  
HETATM    8  C   UNL     1     -12.319  12.851  70.787  1.00  0.00    -0.385 A  
HETATM    9  C   UNL     1     -11.828  11.931  69.855  1.00  0.00    -0.343 A  
HETATM   10  C   UNL     1     -11.339  12.317  68.615  1.00  0.00    -0.291 A  
HETATM   11  N   UNL     1     -10.805  11.449  67.652  1.00  0.00    -0.222 NA 
HETATM   12  C   UNL     1     -11.350  13.687  68.318  1.00  0.00    -0.322 A  
HETATM   13  C   UNL     1     -10.865  10.163  67.763  1.00  0.00    -0.292 C  
HETATM   14  C   UNL     1     -11.835  14.637  69.233  1.00  0.00    -0.321 A  
HETATM   15  N   UNL     1     -11.476   9.499  68.832  1.00  0.00    -0.384 N  
HETATM   16  O   UNL     1     -10.772   9.977  71.172  1.00  0.00    -0.213 OA 
HETATM   17 CL   UNL     1     -11.781  16.292  68.740  1.00  0.00    -0.247 Cl 
HETATM   18  S   UNL     1     -11.856  10.238  70.256  1.00  0.00    -0.281 S  
HETATM   19  H   UNL     1     -11.697   8.509  68.725  1.00  0.00     0.000 HD 
HETATM   20  O   UNL     1     -13.220   9.874  70.563  1.00  0.00    -0.167 OA 
BRANCH  13  21
HETATM   21  C   UNL     1     -10.248   9.261  66.713  1.00  0.00    -0.255 C  
BRANCH  21  22
HETATM   22  S   UNL     1     -10.217   7.523  67.261  1.00  0.00    -0.297 SA 
BRANCH  22  23
HETATM   23  C   UNL     1      -8.448   7.108  67.058  1.00  0.00    -0.122 C  
BRANCH  23  24
HETATM   24  C   UNL     1      -8.217   5.641  67.316  1.00  0.00    -0.101 A  
HETATM   25  C   UNL     1      -9.297   4.802  67.634  1.00  0.00    -0.161 A  
HETATM   26  C   UNL     1      -9.083   3.462  67.959  1.00  0.00    -0.208 A  
HETATM   27  C   UNL     1      -7.789   2.944  67.965  1.00  0.00    -0.059 A  
HETATM   28  C   UNL     1      -6.711   3.761  67.629  1.00  0.00    -0.043 A  
HETATM   29  C   UNL     1      -6.922   5.102  67.305  1.00  0.00    -0.065 A  
ENDBRANCH  23  24
ENDBRANCH  22  23
ENDBRANCH  21  22
ENDBRANCH  13  21
ENDBRANCH   2   7
TORSDOF 5
ENDMDL
MODEL       74
REMARK 921   NORMALIZED FREE ENERGY PREDICTED BY IDOCK:   -5.33 KCAL/MOL
REMARK 922        TOTAL FREE ENERGY PREDICTED BY IDOCK:   -7.54 KCAL/MOL
REMARK 923 INTER-LIGAND FREE ENERGY PREDICTED BY IDOCK:   -6.77 KCAL/MOL
REMARK 924 INTRA-LIGAND FREE ENERGY PREDICTED BY IDOCK:   -0.77 KCAL/MOL
REMARK 927      BINDING AFFINITY PREDICTED BY RF-SCORE:    0.00 PKD
ROOT
HETATM    1  N   UNL     1     -10.471   7.538  70.053  1.00  0.00    -0.222 N  
HETATM    2  S   UNL     1     -11.247   8.686  70.999  1.00  0.00    -0.283 S  
HETATM    3  H1  UNL     1      -9.517   7.885  69.957  1.00  0.00     0.000 HD 
HETATM    4  H2  UNL     1     -10.865   6.683  69.662  1.00  0.00     0.000 HD 
HETATM    5  O   UNL     1     -12.598   8.193  71.136  1.00  0.00    -0.263 OA 
HETATM    6  O   UNL     1     -10.411   8.943  72.144  1.00  0.00    -0.333 OA 
ENDROOT
BRANCH   2   7
HETATM    7  C   UNL     1     -11.274  10.116  69.966  1.00  0.00    -0.299 A  
HETATM    8  C   UNL     1     -10.507  10.100  68.796  1.00  0.00    -0.223 A  
HETATM    9  C   UNL     1     -10.527  11.211  67.947  1.00  0.00    -0.190 A  
HETATM   10  C   UNL     1     -11.289  12.339  68.214  1.00  0.00    -0.289 A  
HETATM   11  N   UNL     1     -11.327  13.495  67.421  1.00  0.00    -0.298 NA 
HETATM   12  C   UNL     1     -12.056  12.332  69.388  1.00  0.00    -0.234 A  
HETATM   13  C   UNL     1     -10.767  13.560  66.258  1.00  0.00    -0.288 C  
HETATM   14  C   UNL     1     -12.057  11.233  70.263  1.00  0.00    -0.373 A  
HETATM   15  N   UNL     1     -10.086  12.497  65.658  1.00  0.00    -0.268 N  
HETATM   16  O   UNL     1      -8.198  11.389  66.844  1.00  0.00    -0.146 OA 
HETATM   17 CL   UNL     1     -13.041  11.364  71.677  1.00  0.00    -0.554 Cl 
HETATM   18  S   UNL     1      -9.579  11.166  66.489  1.00  0.00    -0.203 S  
HETATM   19  H   UNL     1      -9.893  12.547  64.658  1.00  0.00     0.000 HD 
HETATM   20  O   UNL     1      -9.993  10.014  65.721  1.00  0.00    -0.258 OA 
BRANCH  13  21
HETATM   21  C   UNL     1     -10.807  14.841  65.447  1.00  0.00    -0.363 C  
BRANCH  21  22
HETATM   22  S   UNL     1     -10.506  16.302  66.494  1.00  0.00    -0.261 SA 
BRANCH  22  23
HETATM   23  C   UNL     1      -8.719  16.583  66.223  1.00  0.00    -0.333 C  
BRANCH  23  24
HETATM   24  C   UNL     1      -7.931  16.191  67.447  1.00  0.00    -0.185 A  
HETATM   25  C   UNL     1      -7.480  17.176  68.341  1.00  0.00    -0.227 A  
HETATM   26  C   UNL     1      -6.678  16.833  69.429  1.00  0.00    -0.226 A  
HETATM   27  C   UNL     1      -6.322  15.502  69.640  1.00  0.00    -0.163 A  
HETATM   28  C   UNL     1      -6.782  14.512  68.774  1.00  0.00    -0.091 A  
HETATM   29  C   UNL     1      -7.583  14.853  67.682  1.00  0.00    -0.201 A  
ENDBRANCH  23  24
ENDBRANCH  22  23
ENDBRANCH  21  22
ENDBRANCH  13  21
ENDBRANCH   2   7
TORSDOF 5
ENDMDL
MODEL       75
REMARK 921   NORMALIZED FREE ENERGY PREDICTED BY IDOCK:   -5.33 KCAL/MOL
REMARK 922        TOTAL FREE ENERGY PREDICTED BY IDOCK:   -7.53 KCAL/MOL
REMARK 923 INTER-LIGAND FREE ENERGY PREDICTED BY IDOCK:   -6.75 KCAL/MOL
REMARK 924 INTRA-LIGAND FREE ENERGY PREDICTED BY IDOCK:   -0.78 KCAL/MOL
REMARK 927      BINDING AFFINITY PREDICTED BY RF-SCORE:    0.00 PKD
ROOT
HETATM    1  N   UNL     1     -10.882  19.330  67.261  1.00  0.00    -0.488 N  
HETATM    2  S   UNL     1     -10.099  18.436  66.076  1.00  0.00    -0.193 S  
HETATM    3  H1  UNL     1     -10.308  19.210  68.095  1.00  0.00     0.000 HD 
HETATM    4  H2  UNL     1     -11.740  19.873  67.167  1.00  0.00     0.000 HD 
HETATM    5  O   UNL     1     -10.912  18.607  64.893  1.00  0.00    -0.494 OA 
HETATM    6  O   UNL     1      -8.706  18.805  66.102  1.00  0.00    -0.439 OA 
ENDROOT
BRANCH   2   7
HETATM    7  C   UNL     1     -10.270  16.773  66.638  1.00  0.00    -0.309 A  
HETATM    8  C   UNL     1     -11.011  15.883  65.852  1.00  0.00    -0.151 A  
HETATM    9  C   UNL     1     -11.144  14.553  66.262  1.00  0.00    -0.332 A  
HETATM   10  C   UNL     1     -10.562  14.070  67.425  1.00  0.00    -0.278 A  
HETATM   11  N   UNL     1     -10.685  12.758  67.905  1.00  0.00    -0.215 NA 
HETATM   12  C   UNL     1      -9.818  14.975  68.194  1.00  0.00    -0.216 A  
HETATM   13  C   UNL     1     -11.232  11.812  67.216  1.00  0.00    -0.305 C  
HETATM   14  C   UNL     1      -9.666  16.319  67.812  1.00  0.00    -0.233 A  
HETATM   15  N   UNL     1     -11.740  11.980  65.924  1.00  0.00    -0.322 N  
HETATM   16  O   UNL     1     -13.459  13.724  65.470  1.00  0.00    -0.591 OA 
HETATM   17 CL   UNL     1      -8.731  17.326  68.859  1.00  0.00    -0.223 Cl 
HETATM   18  S   UNL     1     -12.056  13.457  65.263  1.00  0.00    -0.442 S  
HETATM   19  H   UNL     1     -11.925  11.149  65.363  1.00  0.00     0.000 HD 
HETATM   20  O   UNL     1     -11.465  13.458  63.945  1.00  0.00    -0.377 OA 
BRANCH  13  21
HETATM   21  C   UNL     1     -11.372  10.415  67.787  1.00  0.00    -0.128 C  
BRANCH  21  22
HETATM   22  S   UNL     1     -10.376  10.210  69.300  1.00  0.00    -0.239 SA 
BRANCH  22  23
HETATM   23  C   UNL     1      -8.870   9.411  68.638  1.00  0.00    -0.132 C  
BRANCH  23  24
HETATM   24  C   UNL     1      -7.862  10.451  68.218  1.00  0.00    -0.105 A  
HETATM   25  C   UNL     1      -7.755  11.657  68.929  1.00  0.00    -0.065 A  
HETATM   26  C   UNL     1      -6.888  12.661  68.498  1.00  0.00    -0.090 A  
HETATM   27  C   UNL     1      -6.114  12.469  67.355  1.00  0.00    -0.155 A  
HETATM   28  C   UNL     1      -6.194  11.267  66.653  1.00  0.00    -0.141 A  
HETATM   29  C   UNL     1      -7.063  10.262  67.081  1.00  0.00    -0.089 A  
ENDBRANCH  23  24
ENDBRANCH  22  23
ENDBRANCH  21  22
ENDBRANCH  13  21
ENDBRANCH   2   7
TORSDOF 5
ENDMDL
MODEL       76
REMARK 921   NORMALIZED FREE ENERGY PREDICTED BY IDOCK:   -5.31 KCAL/MOL
REMARK 922        TOTAL FREE ENERGY PREDICTED BY IDOCK:   -7.51 KCAL/MOL
REMARK 923 INTER-LIGAND FREE ENERGY PREDICTED BY IDOCK:   -7.08 KCAL/MOL
REMARK 924 INTRA-LIGAND FREE ENERGY PREDICTED BY IDOCK:   -0.44 KCAL/MOL
REMARK 927      BINDING AFFINITY PREDICTED BY RF-SCORE:    0.00 PKD
ROOT
HETATM    1  N   UNL     1     -11.023  11.298  63.181  1.00  0.00    -0.838 N  
HETATM    2  S   UNL     1     -11.737  12.395  64.230  1.00  0.00    -0.412 S  
HETATM    3  H1  UNL     1     -11.514  10.420  63.352  1.00  0.00     0.000 HD 
HETATM    4  H2  UNL     1     -10.267  11.469  62.519  1.00  0.00     0.000 HD 
HETATM    5  O   UNL     1     -11.041  13.638  63.986  1.00  0.00    -0.293 OA 
HETATM    6  O   UNL     1     -13.165  12.279  64.075  1.00  0.00    -0.757 OA 
ENDROOT
BRANCH   2   7
HETATM    7  C   UNL     1     -11.274  11.797  65.824  1.00  0.00    -0.281 A  
HETATM    8  C   UNL     1     -10.649  10.548  65.905  1.00  0.00    -0.149 A  
HETATM    9  C   UNL     1     -10.251  10.060  67.154  1.00  0.00    -0.228 A  
HETATM   10  C   UNL     1     -10.446  10.772  68.329  1.00  0.00    -0.181 A  
HETATM   11  N   UNL     1     -10.100  10.323  69.611  1.00  0.00    -0.236 NA 
HETATM   12  C   UNL     1     -11.067  12.024  68.225  1.00  0.00    -0.290 A  
HETATM   13  C   UNL     1      -9.407   9.251  69.811  1.00  0.00    -0.188 C  
HETATM   14  C   UNL     1     -11.481  12.543  66.986  1.00  0.00    -0.356 A  
HETATM   15  N   UNL     1      -8.916   8.436  68.786  1.00  0.00    -0.140 N  
HETATM   16  O   UNL     1     -10.467   7.486  67.086  1.00  0.00    -0.278 OA 
HETATM   17 CL   UNL     1     -12.241  14.094  67.006  1.00  0.00    -0.441 Cl 
HETATM   18  S   UNL     1      -9.462   8.511  67.233  1.00  0.00    -0.166 S  
HETATM   19  H   UNL     1      -8.184   7.762  69.011  1.00  0.00     0.000 HD 
HETATM   20  O   UNL     1      -8.294   8.561  66.383  1.00  0.00    -0.108 OA 
BRANCH  13  21
HETATM   21  C   UNL     1      -9.081   8.786  71.217  1.00  0.00    -0.234 C  
BRANCH  21  22
HETATM   22  S   UNL     1      -8.163   7.211  71.202  1.00  0.00    -0.112 SA 
BRANCH  22  23
HETATM   23  C   UNL     1      -8.197   6.753  72.971  1.00  0.00    -0.108 C  
BRANCH  23  24
HETATM   24  C   UNL     1      -9.170   5.626  73.207  1.00  0.00    -0.132 A  
HETATM   25  C   UNL     1     -10.525   5.782  72.871  1.00  0.00    -0.244 A  
HETATM   26  C   UNL     1     -11.448   4.779  73.164  1.00  0.00    -0.348 A  
HETATM   27  C   UNL     1     -11.029   3.607  73.790  1.00  0.00    -0.311 A  
HETATM   28  C   UNL     1      -9.684   3.430  74.107  1.00  0.00    -0.142 A  
HETATM   29  C   UNL     1      -8.758   4.433  73.818  1.00  0.00    -0.105 A  
ENDBRANCH  23  24
ENDBRANCH  22  23
ENDBRANCH  21  22
ENDBRANCH  13  21
ENDBRANCH   2   7
TORSDOF 5
ENDMDL
MODEL       77
REMARK 921   NORMALIZED FREE ENERGY PREDICTED BY IDOCK:   -5.30 KCAL/MOL
REMARK 922        TOTAL FREE ENERGY PREDICTED BY IDOCK:   -7.50 KCAL/MOL
REMARK 923 INTER-LIGAND FREE ENERGY PREDICTED BY IDOCK:   -7.09 KCAL/MOL
REMARK 924 INTRA-LIGAND FREE ENERGY PREDICTED BY IDOCK:   -0.41 KCAL/MOL
REMARK 927      BINDING AFFINITY PREDICTED BY RF-SCORE:    0.00 PKD
ROOT
HETATM    1  N   UNL     1     -11.351   4.848  65.503  1.00  0.00    -0.942 N  
HETATM    2  S   UNL     1      -9.785   4.927  66.099  1.00  0.00    -0.209 S  
HETATM    3  H1  UNL     1     -11.340   5.436  64.670  1.00  0.00     0.000 HD 
HETATM    4  H2  UNL     1     -12.139   4.327  65.888  1.00  0.00     0.000 HD 
HETATM    5  O   UNL     1      -9.801   4.093  67.280  1.00  0.00    -0.196 OA 
HETATM    6  O   UNL     1      -8.888   4.674  65.000  1.00  0.00    -0.139 OA 
ENDROOT
BRANCH   2   7
HETATM    7  C   UNL     1      -9.625   6.610  66.604  1.00  0.00    -0.163 A  
HETATM    8  C   UNL     1      -8.804   7.451  65.846  1.00  0.00    -0.149 A  
HETATM    9  C   UNL     1      -8.676   8.796  66.209  1.00  0.00    -0.147 A  
HETATM   10  C   UNL     1      -9.341   9.339  67.299  1.00  0.00    -0.131 A  
HETATM   11  N   UNL     1      -9.229  10.668  67.733  1.00  0.00    -0.145 NA 
HETATM   12  C   UNL     1     -10.164   8.481  68.042  1.00  0.00    -0.264 A  
HETATM   13  C   UNL     1      -8.607  11.573  67.053  1.00  0.00    -0.161 C  
HETATM   14  C   UNL     1     -10.313   7.125  67.704  1.00  0.00    -0.215 A  
HETATM   15  N   UNL     1      -7.999  11.340  65.815  1.00  0.00    -0.372 N  
HETATM   16  O   UNL     1      -6.287   9.548  65.577  1.00  0.00    -0.064 OA 
HETATM   17 CL   UNL     1     -11.351   6.181  68.712  1.00  0.00    -0.321 Cl 
HETATM   18  S   UNL     1      -7.662   9.831  65.245  1.00  0.00    -0.127 S  
HETATM   19  H   UNL     1      -7.752  12.144  65.237  1.00  0.00     0.000 HD 
HETATM   20  O   UNL     1      -8.144   9.783  63.883  1.00  0.00    -0.132 OA 
BRANCH  13  21
HETATM   21  C   UNL     1      -8.484  12.991  67.574  1.00  0.00    -0.190 C  
BRANCH  21  22
HETATM   22  S   UNL     1     -10.121  13.732  67.882  1.00  0.00    -0.253 SA 
BRANCH  22  23
HETATM   23  C   UNL     1     -10.399  14.659  66.331  1.00  0.00    -0.289 C  
BRANCH  23  24
HETATM   24  C   UNL     1     -11.031  13.770  65.290  1.00  0.00    -0.322 A  
HETATM   25  C   UNL     1     -12.404  13.480  65.351  1.00  0.00    -0.517 A  
HETATM   26  C   UNL     1     -12.981  12.590  64.445  1.00  0.00    -0.248 A  
HETATM   27  C   UNL     1     -12.196  11.985  63.465  1.00  0.00    -0.653 A  
HETATM   28  C   UNL     1     -10.837  12.283  63.380  1.00  0.00    -0.457 A  
HETATM   29  C   UNL     1     -10.256  13.171  64.287  1.00  0.00    -0.283 A  
ENDBRANCH  23  24
ENDBRANCH  22  23
ENDBRANCH  21  22
ENDBRANCH  13  21
ENDBRANCH   2   7
TORSDOF 5
ENDMDL
MODEL       78
REMARK 921   NORMALIZED FREE ENERGY PREDICTED BY IDOCK:   -5.28 KCAL/MOL
REMARK 922        TOTAL FREE ENERGY PREDICTED BY IDOCK:   -7.47 KCAL/MOL
REMARK 923 INTER-LIGAND FREE ENERGY PREDICTED BY IDOCK:   -7.27 KCAL/MOL
REMARK 924 INTRA-LIGAND FREE ENERGY PREDICTED BY IDOCK:   -0.20 KCAL/MOL
REMARK 927      BINDING AFFINITY PREDICTED BY RF-SCORE:    0.00 PKD
ROOT
HETATM    1  N   UNL     1     -12.795  14.374  64.870  1.00  0.00    -0.615 N  
HETATM    2  S   UNL     1     -11.415  14.420  65.823  1.00  0.00    -0.338 S  
HETATM    3  H1  UNL     1     -13.513  13.975  65.475  1.00  0.00     0.000 HD 
HETATM    4  H2  UNL     1     -12.894  14.678  63.902  1.00  0.00     0.000 HD 
HETATM    5  O   UNL     1     -10.398  14.986  64.966  1.00  0.00    -0.387 OA 
HETATM    6  O   UNL     1     -11.775  15.027  67.080  1.00  0.00    -0.327 OA 
ENDROOT
BRANCH   2   7
HETATM    7  C   UNL     1     -11.042  12.716  66.086  1.00  0.00    -0.292 A  
HETATM    8  C   UNL     1     -11.164  12.206  67.383  1.00  0.00    -0.362 A  
HETATM    9  C   UNL     1     -10.897  10.853  67.616  1.00  0.00    -0.266 A  
HETATM   10  C   UNL     1     -10.518   9.983  66.604  1.00  0.00    -0.174 A  
HETATM   11  N   UNL     1     -10.205   8.627  66.778  1.00  0.00    -0.290 NA 
HETATM   12  C   UNL     1     -10.408  10.513  65.310  1.00  0.00    -0.300 A  
HETATM   13  C   UNL     1     -10.398   8.006  67.895  1.00  0.00    -0.222 C  
HETATM   14  C   UNL     1     -10.668  11.868  65.042  1.00  0.00    -0.292 A  
HETATM   15  N   UNL     1     -10.949   8.601  69.034  1.00  0.00    -0.437 N  
HETATM   16  O   UNL     1      -9.920  10.653  69.999  1.00  0.00     0.009 OA 
HETATM   17 CL   UNL     1     -10.485  12.387  63.405  1.00  0.00    -0.424 Cl 
HETATM   18  S   UNL     1     -11.069  10.233  69.233  1.00  0.00    -0.239 S  
HETATM   19  H   UNL     1     -11.293   7.995  69.780  1.00  0.00     0.000 HD 
HETATM   20  O   UNL     1     -12.419  10.500  69.672  1.00  0.00    -0.208 OA 
BRANCH  13  21
HETATM   21  C   UNL     1     -10.018   6.547  68.049  1.00  0.00    -0.134 C  
BRANCH  21  22
HETATM   22  S   UNL     1     -10.875   5.781  69.463  1.00  0.00    -0.282 SA 
BRANCH  22  23
HETATM   23  C   UNL     1      -9.472   5.373  70.563  1.00  0.00    -0.165 C  
BRANCH  23  24
HETATM   24  C   UNL     1      -9.918   4.450  71.668  1.00  0.00    -0.256 A  
HETATM   25  C   UNL     1     -10.460   4.977  72.852  1.00  0.00    -0.256 A  
HETATM   26  C   UNL     1     -10.795   4.137  73.914  1.00  0.00    -0.321 A  
HETATM   27  C   UNL     1     -10.599   2.762  73.803  1.00  0.00    -0.252 A  
HETATM   28  C   UNL     1     -10.085   2.224  72.625  1.00  0.00    -0.216 A  
HETATM   29  C   UNL     1      -9.746   3.062  71.561  1.00  0.00    -0.223 A  
ENDBRANCH  23  24
ENDBRANCH  22  23
ENDBRANCH  21  22
ENDBRANCH  13  21
ENDBRANCH   2   7
TORSDOF 5
ENDMDL
MODEL       79
REMARK 921   NORMALIZED FREE ENERGY PREDICTED BY IDOCK:   -5.28 KCAL/MOL
REMARK 922        TOTAL FREE ENERGY PREDICTED BY IDOCK:   -7.47 KCAL/MOL
REMARK 923 INTER-LIGAND FREE ENERGY PREDICTED BY IDOCK:   -7.36 KCAL/MOL
REMARK 924 INTRA-LIGAND FREE ENERGY PREDICTED BY IDOCK:   -0.11 KCAL/MOL
REMARK 927      BINDING AFFINITY PREDICTED BY RF-SCORE:    0.00 PKD
ROOT
HETATM    1  N   UNL     1     -10.891  18.051  67.233  1.00  0.00    -0.279 N  
HETATM    2  S   UNL     1     -10.086  17.504  65.867  1.00  0.00    -0.116 S  
HETATM    3  H1  UNL     1     -10.223  17.927  67.993  1.00  0.00     0.000 HD 
HETATM    4  H2  UNL     1     -11.838  18.425  67.291  1.00  0.00     0.000 HD 
HETATM    5  O   UNL     1     -11.033  17.681  64.789  1.00  0.00    -0.917 OA 
HETATM    6  O   UNL     1      -8.787  18.128  65.848  1.00  0.00    -0.500 OA 
ENDROOT
BRANCH   2   7
HETATM    7  C   UNL     1      -9.896  15.776  66.168  1.00  0.00    -0.315 A  
HETATM    8  C   UNL     1     -10.622  14.883  65.373  1.00  0.00    -0.391 A  
HETATM    9  C   UNL     1     -10.474  13.507  65.574  1.00  0.00    -0.299 A  
HETATM   10  C   UNL     1      -9.623  12.983  66.537  1.00  0.00    -0.260 A  
HETATM   11  N   UNL     1      -9.455  11.618  66.809  1.00  0.00    -0.182 NA 
HETATM   12  C   UNL     1      -8.899  13.894  67.318  1.00  0.00    -0.227 A  
HETATM   13  C   UNL     1      -9.967  10.691  66.068  1.00  0.00    -0.239 C  
HETATM   14  C   UNL     1      -9.026  15.283  67.142  1.00  0.00    -0.209 A  
HETATM   15  N   UNL     1     -10.721  10.940  64.917  1.00  0.00    -0.234 N  
HETATM   16  O   UNL     1     -12.740  12.393  65.029  1.00  0.00    -0.631 OA 
HETATM   17 CL   UNL     1      -8.082  16.289  68.181  1.00  0.00    -0.155 Cl 
HETATM   18  S   UNL     1     -11.373  12.412  64.565  1.00  0.00    -0.348 S  
HETATM   19  H   UNL     1     -10.875  10.172  64.263  1.00  0.00     0.000 HD 
HETATM   20  O   UNL     1     -11.039  12.697  63.188  1.00  0.00    -0.325 OA 
BRANCH  13  21
HETATM   21  C   UNL     1      -9.786   9.227  66.417  1.00  0.00    -0.277 C  
BRANCH  21  22
HETATM   22  S   UNL     1     -10.045   8.929  68.196  1.00  0.00    -0.197 SA 
BRANCH  22  23
HETATM   23  C   UNL     1      -9.009   7.448  68.472  1.00  0.00    -0.128 C  
BRANCH  23  24
HETATM   24  C   UNL     1      -9.153   6.482  67.324  1.00  0.00    -0.117 A  
HETATM   25  C   UNL     1     -10.422   6.003  66.960  1.00  0.00    -0.334 A  
HETATM   26  C   UNL     1     -10.557   5.044  65.957  1.00  0.00    -0.286 A  
HETATM   27  C   UNL     1      -9.428   4.556  65.302  1.00  0.00    -0.175 A  
HETATM   28  C   UNL     1      -8.165   5.040  65.637  1.00  0.00    -0.117 A  
HETATM   29  C   UNL     1      -8.026   5.999  66.643  1.00  0.00    -0.102 A  
ENDBRANCH  23  24
ENDBRANCH  22  23
ENDBRANCH  21  22
ENDBRANCH  13  21
ENDBRANCH   2   7
TORSDOF 5
ENDMDL
MODEL       80
REMARK 921   NORMALIZED FREE ENERGY PREDICTED BY IDOCK:   -5.27 KCAL/MOL
REMARK 922        TOTAL FREE ENERGY PREDICTED BY IDOCK:   -7.46 KCAL/MOL
REMARK 923 INTER-LIGAND FREE ENERGY PREDICTED BY IDOCK:   -7.13 KCAL/MOL
REMARK 924 INTRA-LIGAND FREE ENERGY PREDICTED BY IDOCK:   -0.33 KCAL/MOL
REMARK 927      BINDING AFFINITY PREDICTED BY RF-SCORE:    0.00 PKD
ROOT
HETATM    1  N   UNL     1      -5.735   4.398  71.838  1.00  0.00    -0.011 N  
HETATM    2  S   UNL     1      -6.850   3.490  70.974  1.00  0.00    -0.033 S  
HETATM    3  H1  UNL     1      -6.122   4.453  72.780  1.00  0.00     0.000 HD 
HETATM    4  H2  UNL     1      -4.863   4.803  71.499  1.00  0.00     0.000 HD 
HETATM    5  O   UNL     1      -6.300   3.411  69.639  1.00  0.00    -0.027 OA 
HETATM    6  O   UNL     1      -7.143   2.310  71.747  1.00  0.00    -0.029 OA 
ENDROOT
BRANCH   2   7
HETATM    7  C   UNL     1      -8.277   4.528  70.932  1.00  0.00    -0.088 A  
HETATM    8  C   UNL     1      -8.354   5.581  71.849  1.00  0.00    -0.119 A  
HETATM    9  C   UNL     1      -9.463   6.433  71.824  1.00  0.00    -0.153 A  
HETATM   10  C   UNL     1     -10.499   6.281  70.913  1.00  0.00    -0.223 A  
HETATM   11  N   UNL     1     -11.650   7.080  70.858  1.00  0.00    -0.311 NA 
HETATM   12  C   UNL     1     -10.398   5.223  69.999  1.00  0.00    -0.365 A  
HETATM   13  C   UNL     1     -11.785   8.155  71.561  1.00  0.00    -0.286 C  
HETATM   14  C   UNL     1      -9.299   4.348  69.999  1.00  0.00    -0.157 A  
HETATM   15  N   UNL     1     -10.807   8.649  72.430  1.00  0.00    -0.311 N  
HETATM   16  O   UNL     1      -9.903   7.208  74.248  1.00  0.00    -0.267 OA 
HETATM   17 CL   UNL     1      -9.310   3.083  68.822  1.00  0.00    -0.236 Cl 
HETATM   18  S   UNL     1      -9.534   7.748  72.962  1.00  0.00    -0.278 S  
HETATM   19  H   UNL     1     -10.886   9.614  72.751  1.00  0.00     0.000 HD 
HETATM   20  O   UNL     1      -8.349   8.556  72.785  1.00  0.00    -0.335 OA 
BRANCH  13  21
HETATM   21  C   UNL     1     -13.060   8.973  71.493  1.00  0.00    -0.335 C  
BRANCH  21  22
HETATM   22  S   UNL     1     -12.746  10.642  70.830  1.00  0.00    -0.408 SA 
BRANCH  22  23
HETATM   23  C   UNL     1     -13.387  11.696  72.180  1.00  0.00    -0.205 C  
BRANCH  23  24
HETATM   24  C   UNL     1     -13.175  13.154  71.858  1.00  0.00    -0.526 A  
HETATM   25  C   UNL     1     -12.382  13.525  70.760  1.00  0.00    -0.440 A  
HETATM   26  C   UNL     1     -12.109  14.869  70.505  1.00  0.00    -0.378 A  
HETATM   27  C   UNL     1     -12.630  15.857  71.338  1.00  0.00    -0.437 A  
HETATM   28  C   UNL     1     -13.438  15.503  72.417  1.00  0.00    -0.606 A  
HETATM   29  C   UNL     1     -13.710  14.158  72.677  1.00  0.00    -0.568 A  
ENDBRANCH  23  24
ENDBRANCH  22  23
ENDBRANCH  21  22
ENDBRANCH  13  21
ENDBRANCH   2   7
TORSDOF 5
ENDMDL
MODEL       81
REMARK 921   NORMALIZED FREE ENERGY PREDICTED BY IDOCK:   -5.20 KCAL/MOL
REMARK 922        TOTAL FREE ENERGY PREDICTED BY IDOCK:   -7.37 KCAL/MOL
REMARK 923 INTER-LIGAND FREE ENERGY PREDICTED BY IDOCK:   -6.95 KCAL/MOL
REMARK 924 INTRA-LIGAND FREE ENERGY PREDICTED BY IDOCK:   -0.41 KCAL/MOL
REMARK 927      BINDING AFFINITY PREDICTED BY RF-SCORE:    0.00 PKD
ROOT
HETATM    1  N   UNL     1     -10.030  18.569  69.221  1.00  0.00    -0.287 N  
HETATM    2  S   UNL     1      -9.710  18.701  67.579  1.00  0.00    -0.321 S  
HETATM    3  H1  UNL     1      -9.201  18.120  69.610  1.00  0.00     0.000 HD 
HETATM    4  H2  UNL     1     -10.867  18.871  69.719  1.00  0.00     0.000 HD 
HETATM    5  O   UNL     1     -10.884  19.338  67.028  1.00  0.00    -0.464 OA 
HETATM    6  O   UNL     1      -8.395  19.274  67.437  1.00  0.00    -0.279 OA 
ENDROOT
BRANCH   2   7
HETATM    7  C   UNL     1      -9.674  17.023  67.034  1.00  0.00    -0.263 A  
HETATM    8  C   UNL     1     -10.722  16.569  66.226  1.00  0.00    -0.146 A  
HETATM    9  C   UNL     1     -10.708  15.250  65.761  1.00  0.00    -0.348 A  
HETATM   10  C   UNL     1      -9.684  14.364  66.064  1.00  0.00    -0.294 A  
HETATM   11  N   UNL     1      -9.629  13.024  65.656  1.00  0.00    -0.088 NA 
HETATM   12  C   UNL     1      -8.641  14.841  66.869  1.00  0.00    -0.254 A  
HETATM   13  C   UNL     1     -10.463  12.518  64.808  1.00  0.00    -0.311 C  
HETATM   14  C   UNL     1      -8.625  16.160  67.355  1.00  0.00    -0.180 A  
HETATM   15  N   UNL     1     -11.490  13.243  64.196  1.00  0.00    -0.398 N  
HETATM   16  O   UNL     1     -13.162  14.463  65.581  1.00  0.00    -0.465 OA 
HETATM   17 CL   UNL     1      -7.282  16.610  68.343  1.00  0.00    -0.166 Cl 
HETATM   18  S   UNL     1     -12.012  14.708  64.744  1.00  0.00    -0.415 S  
HETATM   19  H   UNL     1     -11.939  12.846  63.370  1.00  0.00     0.000 HD 
HETATM   20  O   UNL     1     -12.077  15.583  63.596  1.00  0.00    -0.377 OA 
BRANCH  13  21
HETATM   21  C   UNL     1     -10.386  11.056  64.418  1.00  0.00    -0.358 C  
BRANCH  21  22
HETATM   22  S   UNL     1      -8.662  10.461  64.401  1.00  0.00    -0.197 SA 
BRANCH  22  23
HETATM   23  C   UNL     1      -8.865   8.739  64.982  1.00  0.00    -0.107 C  
BRANCH  23  24
HETATM   24  C   UNL     1      -9.213   8.715  66.449  1.00  0.00    -0.245 A  
HETATM   25  C   UNL     1      -8.361   9.323  67.386  1.00  0.00    -0.122 A  
HETATM   26  C   UNL     1      -8.628   9.231  68.751  1.00  0.00    -0.131 A  
HETATM   27  C   UNL     1      -9.751   8.537  69.197  1.00  0.00    -0.170 A  
HETATM   28  C   UNL     1     -10.617   7.949  68.277  1.00  0.00    -0.163 A  
HETATM   29  C   UNL     1     -10.350   8.036  66.909  1.00  0.00    -0.408 A  
ENDBRANCH  23  24
ENDBRANCH  22  23
ENDBRANCH  21  22
ENDBRANCH  13  21
ENDBRANCH   2   7
TORSDOF 5
ENDMDL
MODEL       82
REMARK 921   NORMALIZED FREE ENERGY PREDICTED BY IDOCK:   -5.16 KCAL/MOL
REMARK 922        TOTAL FREE ENERGY PREDICTED BY IDOCK:   -7.31 KCAL/MOL
REMARK 923 INTER-LIGAND FREE ENERGY PREDICTED BY IDOCK:   -7.18 KCAL/MOL
REMARK 924 INTRA-LIGAND FREE ENERGY PREDICTED BY IDOCK:   -0.13 KCAL/MOL
REMARK 927      BINDING AFFINITY PREDICTED BY RF-SCORE:    0.00 PKD
ROOT
HETATM    1  N   UNL     1     -14.247  15.771  72.718  1.00  0.00    -0.494 N  
HETATM    2  S   UNL     1     -12.608  15.480  72.921  1.00  0.00    -0.486 S  
HETATM    3  H1  UNL     1     -14.681  14.849  72.766  1.00  0.00     0.000 HD 
HETATM    4  H2  UNL     1     -14.709  16.669  72.578  1.00  0.00     0.000 HD 
HETATM    5  O   UNL     1     -11.994  16.787  72.853  1.00  0.00    -0.439 OA 
HETATM    6  O   UNL     1     -12.457  14.627  74.073  1.00  0.00    -0.475 OA 
ENDROOT
BRANCH   2   7
HETATM    7  C   UNL     1     -12.169  14.579  71.469  1.00  0.00    -0.347 A  
HETATM    8  C   UNL     1     -11.392  15.224  70.501  1.00  0.00    -0.340 A  
HETATM    9  C   UNL     1     -11.010  14.527  69.351  1.00  0.00    -0.249 A  
HETATM   10  C   UNL     1     -11.368  13.205  69.128  1.00  0.00    -0.281 A  
HETATM   11  N   UNL     1     -11.045  12.462  67.983  1.00  0.00    -0.230 NA 
HETATM   12  C   UNL     1     -12.140  12.574  70.113  1.00  0.00    -0.368 A  
HETATM   13  C   UNL     1     -10.231  12.897  67.078  1.00  0.00    -0.243 C  
HETATM   14  C   UNL     1     -12.542  13.247  71.280  1.00  0.00    -0.308 A  
HETATM   15  N   UNL     1      -9.576  14.130  67.144  1.00  0.00    -0.236 N  
HETATM   16  O   UNL     1     -10.883  16.232  67.414  1.00  0.00    -0.313 OA 
HETATM   17 CL   UNL     1     -13.499  12.351  72.405  1.00  0.00    -0.491 Cl 
HETATM   18  S   UNL     1     -10.031  15.341  68.165  1.00  0.00    -0.223 S  
HETATM   19  H   UNL     1      -8.777  14.288  66.529  1.00  0.00     0.000 HD 
HETATM   20  O   UNL     1      -8.830  15.806  68.821  1.00  0.00    -0.180 OA 
BRANCH  13  21
HETATM   21  C   UNL     1      -9.934  12.073  65.840  1.00  0.00    -0.236 C  
BRANCH  21  22
HETATM   22  S   UNL     1      -8.840  10.666  66.223  1.00  0.00    -0.166 SA 
BRANCH  22  23
HETATM   23  C   UNL     1     -10.027   9.460  66.915  1.00  0.00    -0.229 C  
BRANCH  23  24
HETATM   24  C   UNL     1      -9.493   8.056  66.780  1.00  0.00    -0.259 A  
HETATM   25  C   UNL     1      -9.623   7.147  67.842  1.00  0.00    -0.145 A  
HETATM   26  C   UNL     1      -9.057   5.875  67.760  1.00  0.00    -0.109 A  
HETATM   27  C   UNL     1      -8.360   5.495  66.615  1.00  0.00    -0.109 A  
HETATM   28  C   UNL     1      -8.243   6.380  65.545  1.00  0.00    -0.142 A  
HETATM   29  C   UNL     1      -8.806   7.655  65.625  1.00  0.00    -0.086 A  
ENDBRANCH  23  24
ENDBRANCH  22  23
ENDBRANCH  21  22
ENDBRANCH  13  21
ENDBRANCH   2   7
TORSDOF 5
ENDMDL
MODEL       83
REMARK 921   NORMALIZED FREE ENERGY PREDICTED BY IDOCK:   -5.15 KCAL/MOL
REMARK 922        TOTAL FREE ENERGY PREDICTED BY IDOCK:   -7.30 KCAL/MOL
REMARK 923 INTER-LIGAND FREE ENERGY PREDICTED BY IDOCK:   -6.58 KCAL/MOL
REMARK 924 INTRA-LIGAND FREE ENERGY PREDICTED BY IDOCK:   -0.72 KCAL/MOL
REMARK 927      BINDING AFFINITY PREDICTED BY RF-SCORE:    0.00 PKD
ROOT
HETATM    1  N   UNL     1      -9.175  14.275  67.441  1.00  0.00    -0.192 N  
HETATM    2  S   UNL     1      -8.974  12.720  66.846  1.00  0.00    -0.189 S  
HETATM    3  H1  UNL     1      -8.557  14.323  68.252  1.00  0.00     0.000 HD 
HETATM    4  H2  UNL     1      -9.779  15.010  67.075  1.00  0.00     0.000 HD 
HETATM    5  O   UNL     1      -9.849  12.653  65.697  1.00  0.00    -0.260 OA 
HETATM    6  O   UNL     1      -7.558  12.475  66.739  1.00  0.00     0.016 OA 
ENDROOT
BRANCH   2   7
HETATM    7  C   UNL     1      -9.645  11.704  68.122  1.00  0.00    -0.190 A  
HETATM    8  C   UNL     1      -8.783  10.830  68.793  1.00  0.00    -0.163 A  
HETATM    9  C   UNL     1      -9.283  10.029  69.824  1.00  0.00    -0.199 A  
HETATM   10  C   UNL     1     -10.612  10.068  70.220  1.00  0.00    -0.295 A  
HETATM   11  N   UNL     1     -11.181   9.269  71.222  1.00  0.00    -0.324 NA 
HETATM   12  C   UNL     1     -11.458  10.955  69.539  1.00  0.00    -0.372 A  
HETATM   13  C   UNL     1     -10.473   8.517  71.998  1.00  0.00    -0.336 C  
HETATM   14  C   UNL     1     -10.988  11.772  68.497  1.00  0.00    -0.227 A  
HETATM   15  N   UNL     1      -9.078   8.429  71.942  1.00  0.00    -0.199 N  
HETATM   16  O   UNL     1      -7.946   7.819  69.809  1.00  0.00    -0.110 OA 
HETATM   17 CL   UNL     1     -12.142  12.811  67.741  1.00  0.00    -0.304 Cl 
HETATM   18  S   UNL     1      -8.192   8.960  70.658  1.00  0.00    -0.180 S  
HETATM   19  H   UNL     1      -8.586   8.015  72.733  1.00  0.00     0.000 HD 
HETATM   20  O   UNL     1      -7.113   9.756  71.197  1.00  0.00    -0.332 OA 
BRANCH  13  21
HETATM   21  C   UNL     1     -11.132   7.645  73.049  1.00  0.00    -0.381 C  
BRANCH  21  22
HETATM   22  S   UNL     1     -11.890   6.163  72.306  1.00  0.00    -0.198 SA 
BRANCH  22  23
HETATM   23  C   UNL     1     -10.416   5.258  71.714  1.00  0.00    -0.214 C  
BRANCH  23  24
HETATM   24  C   UNL     1     -10.372   5.249  70.207  1.00  0.00    -0.350 A  
HETATM   25  C   UNL     1      -9.610   4.284  69.529  1.00  0.00    -0.274 A  
HETATM   26  C   UNL     1      -9.493   4.319  68.140  1.00  0.00    -0.213 A  
HETATM   27  C   UNL     1     -10.141   5.315  67.411  1.00  0.00    -0.228 A  
HETATM   28  C   UNL     1     -10.919   6.265  68.070  1.00  0.00    -0.418 A  
HETATM   29  C   UNL     1     -11.036   6.233  69.460  1.00  0.00    -0.445 A  
ENDBRANCH  23  24
ENDBRANCH  22  23
ENDBRANCH  21  22
ENDBRANCH  13  21
ENDBRANCH   2   7
TORSDOF 5
ENDMDL
MODEL       84
REMARK 921   NORMALIZED FREE ENERGY PREDICTED BY IDOCK:   -5.14 KCAL/MOL
REMARK 922        TOTAL FREE ENERGY PREDICTED BY IDOCK:   -7.30 KCAL/MOL
REMARK 923 INTER-LIGAND FREE ENERGY PREDICTED BY IDOCK:   -6.60 KCAL/MOL
REMARK 924 INTRA-LIGAND FREE ENERGY PREDICTED BY IDOCK:   -0.69 KCAL/MOL
REMARK 927      BINDING AFFINITY PREDICTED BY RF-SCORE:    0.00 PKD
ROOT
HETATM    1  N   UNL     1      -5.586  19.593  66.993  1.00  0.00    -0.174 N  
HETATM    2  S   UNL     1      -7.082  20.065  66.401  1.00  0.00    -0.254 S  
HETATM    3  H1  UNL     1      -5.293  18.833  66.380  1.00  0.00     0.000 HD 
HETATM    4  H2  UNL     1      -5.080  19.981  67.789  1.00  0.00     0.000 HD 
HETATM    5  O   UNL     1      -7.496  21.143  67.270  1.00  0.00    -0.412 OA 
HETATM    6  O   UNL     1      -6.950  20.244  64.977  1.00  0.00    -0.302 OA 
ENDROOT
BRANCH   2   7
HETATM    7  C   UNL     1      -8.108  18.665  66.718  1.00  0.00    -0.265 A  
HETATM    8  C   UNL     1      -7.521  17.536  67.300  1.00  0.00    -0.214 A  
HETATM    9  C   UNL     1      -8.315  16.419  67.584  1.00  0.00    -0.165 A  
HETATM   10  C   UNL     1      -9.676  16.385  67.315  1.00  0.00    -0.239 A  
HETATM   11  N   UNL     1     -10.517  15.287  67.546  1.00  0.00    -0.260 NA 
HETATM   12  C   UNL     1     -10.245  17.529  66.738  1.00  0.00    -0.327 A  
HETATM   13  C   UNL     1     -10.130  14.237  68.191  1.00  0.00    -0.232 C  
HETATM   14  C   UNL     1      -9.475  18.666  66.439  1.00  0.00    -0.311 A  
HETATM   15  N   UNL     1      -8.854  14.083  68.741  1.00  0.00    -0.356 N  
HETATM   16  O   UNL     1      -6.833  14.322  67.305  1.00  0.00    -0.234 OA 
HETATM   17 CL   UNL     1     -10.305  20.001  65.721  1.00  0.00    -0.546 Cl 
HETATM   18  S   UNL     1      -7.571  15.031  68.323  1.00  0.00    -0.118 S  
HETATM   19  H   UNL     1      -8.709  13.349  69.434  1.00  0.00     0.000 HD 
HETATM   20  O   UNL     1      -6.951  15.459  69.556  1.00  0.00    -0.162 OA 
BRANCH  13  21
HETATM   21  C   UNL     1     -11.064  13.059  68.391  1.00  0.00    -0.262 C  
BRANCH  21  22
HETATM   22  S   UNL     1     -11.748  12.475  66.805  1.00  0.00    -0.350 SA 
BRANCH  22  23
HETATM   23  C   UNL     1     -10.236  12.324  65.789  1.00  0.00    -0.255 C  
BRANCH  23  24
HETATM   24  C   UNL     1      -9.571  10.992  66.026  1.00  0.00    -0.249 A  
HETATM   25  C   UNL     1     -10.349   9.833  66.183  1.00  0.00    -0.215 A  
HETATM   26  C   UNL     1      -9.748   8.612  66.488  1.00  0.00    -0.325 A  
HETATM   27  C   UNL     1      -8.365   8.533  66.635  1.00  0.00    -0.112 A  
HETATM   28  C   UNL     1      -7.580   9.671  66.459  1.00  0.00    -0.098 A  
HETATM   29  C   UNL     1      -8.178  10.895  66.156  1.00  0.00    -0.168 A  
ENDBRANCH  23  24
ENDBRANCH  22  23
ENDBRANCH  21  22
ENDBRANCH  13  21
ENDBRANCH   2   7
TORSDOF 5
ENDMDL
MODEL       85
REMARK 921   NORMALIZED FREE ENERGY PREDICTED BY IDOCK:   -5.14 KCAL/MOL
REMARK 922        TOTAL FREE ENERGY PREDICTED BY IDOCK:   -7.29 KCAL/MOL
REMARK 923 INTER-LIGAND FREE ENERGY PREDICTED BY IDOCK:   -7.79 KCAL/MOL
REMARK 924 INTRA-LIGAND FREE ENERGY PREDICTED BY IDOCK:    0.49 KCAL/MOL
REMARK 927      BINDING AFFINITY PREDICTED BY RF-SCORE:    0.00 PKD
ROOT
HETATM    1  N   UNL     1     -10.859  10.695  62.344  1.00  0.00     0.140 N  
HETATM    2  S   UNL     1      -9.538  10.954  63.345  1.00  0.00    -0.366 S  
HETATM    3  H1  UNL     1     -11.041  11.603  61.917  1.00  0.00     0.000 HD 
HETATM    4  H2  UNL     1     -11.367   9.824  62.195  1.00  0.00     0.000 HD 
HETATM    5  O   UNL     1      -9.280   9.666  63.949  1.00  0.00    -0.249 OA 
HETATM    6  O   UNL     1      -8.537  11.647  62.573  1.00  0.00    -0.227 OA 
ENDROOT
BRANCH   2   7
HETATM    7  C   UNL     1     -10.170  12.038  64.585  1.00  0.00    -0.282 A  
HETATM    8  C   UNL     1      -9.300  12.464  65.594  1.00  0.00     0.045 A  
HETATM    9  C   UNL     1      -9.768  13.342  66.578  1.00  0.00    -0.273 A  
HETATM   10  C   UNL     1     -11.070  13.819  66.591  1.00  0.00    -0.311 A  
HETATM   11  N   UNL     1     -11.607  14.673  67.565  1.00  0.00    -0.364 NA 
HETATM   12  C   UNL     1     -11.923  13.386  65.567  1.00  0.00    -0.433 A  
HETATM   13  C   UNL     1     -10.882  15.236  68.474  1.00  0.00    -0.253 C  
HETATM   14  C   UNL     1     -11.486  12.503  64.565  1.00  0.00    -0.337 A  
HETATM   15  N   UNL     1      -9.497  15.076  68.579  1.00  0.00    -0.197 N  
HETATM   16  O   UNL     1      -8.509  12.798  68.767  1.00  0.00    -0.005 OA 
HETATM   17 CL   UNL     1     -12.645  12.045  63.369  1.00  0.00    -0.681 Cl 
HETATM   18  S   UNL     1      -8.667  13.873  67.817  1.00  0.00    -0.201 S  
HETATM   19  H   UNL     1      -8.974  15.736  69.156  1.00  0.00     0.000 HD 
HETATM   20  O   UNL     1      -7.533  14.493  67.171  1.00  0.00    -0.153 OA 
BRANCH  13  21
HETATM   21  C   UNL     1     -11.509  16.129  69.527  1.00  0.00    -0.292 C  
BRANCH  21  22
HETATM   22  S   UNL     1     -11.324  15.421  71.197  1.00  0.00    -0.377 SA 
BRANCH  22  23
HETATM   23  C   UNL     1     -12.910  14.533  71.393  1.00  0.00    -0.336 C  
BRANCH  23  24
HETATM   24  C   UNL     1     -12.717  13.053  71.179  1.00  0.00    -0.372 A  
HETATM   25  C   UNL     1     -13.306  12.130  72.059  1.00  0.00    -0.470 A  
HETATM   26  C   UNL     1     -13.062  10.764  71.920  1.00  0.00    -0.557 A  
HETATM   27  C   UNL     1     -12.233  10.303  70.899  1.00  0.00    -0.465 A  
HETATM   28  C   UNL     1     -11.661  11.207  70.005  1.00  0.00    -0.438 A  
HETATM   29  C   UNL     1     -11.901  12.575  70.143  1.00  0.00    -0.336 A  
ENDBRANCH  23  24
ENDBRANCH  22  23
ENDBRANCH  21  22
ENDBRANCH  13  21
ENDBRANCH   2   7
TORSDOF 5
ENDMDL
MODEL       86
REMARK 921   NORMALIZED FREE ENERGY PREDICTED BY IDOCK:   -5.14 KCAL/MOL
REMARK 922        TOTAL FREE ENERGY PREDICTED BY IDOCK:   -7.29 KCAL/MOL
REMARK 923 INTER-LIGAND FREE ENERGY PREDICTED BY IDOCK:   -6.96 KCAL/MOL
REMARK 924 INTRA-LIGAND FREE ENERGY PREDICTED BY IDOCK:   -0.33 KCAL/MOL
REMARK 927      BINDING AFFINITY PREDICTED BY RF-SCORE:    0.00 PKD
ROOT
HETATM    1  N   UNL     1      -8.386   6.190  68.196  1.00  0.00    -0.114 N  
HETATM    2  S   UNL     1      -9.433   6.301  69.502  1.00  0.00    -0.141 S  
HETATM    3  H1  UNL     1      -7.579   6.753  68.464  1.00  0.00     0.000 HD 
HETATM    4  H2  UNL     1      -8.525   5.674  67.328  1.00  0.00     0.000 HD 
HETATM    5  O   UNL     1     -10.576   5.503  69.123  1.00  0.00    -0.255 OA 
HETATM    6  O   UNL     1      -8.672   6.023  70.695  1.00  0.00    -0.135 OA 
ENDROOT
BRANCH   2   7
HETATM    7  C   UNL     1      -9.910   8.000  69.500  1.00  0.00    -0.181 A  
HETATM    8  C   UNL     1      -9.637   8.761  68.358  1.00  0.00    -0.157 A  
HETATM    9  C   UNL     1     -10.024  10.104  68.320  1.00  0.00    -0.148 A  
HETATM   10  C   UNL     1     -10.681  10.720  69.375  1.00  0.00    -0.233 A  
HETATM   11  N   UNL     1     -11.065  12.068  69.410  1.00  0.00    -0.180 NA 
HETATM   12  C   UNL     1     -10.951   9.939  70.507  1.00  0.00    -0.391 A  
HETATM   13  C   UNL     1     -10.986  12.843  68.379  1.00  0.00    -0.258 C  
HETATM   14  C   UNL     1     -10.574   8.587  70.578  1.00  0.00    -0.213 A  
HETATM   15  N   UNL     1     -10.531  12.427  67.123  1.00  0.00    -0.219 N  
HETATM   16  O   UNL     1      -8.287  11.373  66.888  1.00  0.00    -0.147 OA 
HETATM   17 CL   UNL     1     -10.963   7.746  72.036  1.00  0.00    -0.285 Cl 
HETATM   18  S   UNL     1      -9.689  11.030  66.885  1.00  0.00    -0.191 S  
HETATM   19  H   UNL     1     -10.729  13.018  66.316  1.00  0.00     0.000 HD 
HETATM   20  O   UNL     1     -10.308  10.358  65.765  1.00  0.00    -0.248 OA 
BRANCH  13  21
HETATM   21  C   UNL     1     -11.384  14.303  68.470  1.00  0.00    -0.282 C  
BRANCH  21  22
HETATM   22  S   UNL     1      -9.943  15.366  68.811  1.00  0.00    -0.218 SA 
BRANCH  22  23
HETATM   23  C   UNL     1     -10.753  16.942  69.265  1.00  0.00    -0.288 C  
BRANCH  23  24
HETATM   24  C   UNL     1     -10.440  18.009  68.247  1.00  0.00    -0.355 A  
HETATM   25  C   UNL     1     -10.140  19.316  68.665  1.00  0.00    -0.499 A  
HETATM   26  C   UNL     1      -9.934  20.330  67.730  1.00  0.00    -0.529 A  
HETATM   27  C   UNL     1     -10.018  20.049  66.367  1.00  0.00    -0.601 A  
HETATM   28  C   UNL     1     -10.291  18.751  65.939  1.00  0.00    -0.385 A  
HETATM   29  C   UNL     1     -10.501  17.735  66.873  1.00  0.00    -0.308 A  
ENDBRANCH  23  24
ENDBRANCH  22  23
ENDBRANCH  21  22
ENDBRANCH  13  21
ENDBRANCH   2   7
TORSDOF 5
ENDMDL
MODEL       87
REMARK 921   NORMALIZED FREE ENERGY PREDICTED BY IDOCK:   -5.14 KCAL/MOL
REMARK 922        TOTAL FREE ENERGY PREDICTED BY IDOCK:   -7.29 KCAL/MOL
REMARK 923 INTER-LIGAND FREE ENERGY PREDICTED BY IDOCK:   -6.99 KCAL/MOL
REMARK 924 INTRA-LIGAND FREE ENERGY PREDICTED BY IDOCK:   -0.30 KCAL/MOL
REMARK 927      BINDING AFFINITY PREDICTED BY RF-SCORE:    0.00 PKD
ROOT
HETATM    1  N   UNL     1      -6.844   9.249  62.540  1.00  0.00    -0.092 N  
HETATM    2  S   UNL     1      -8.276   8.866  63.326  1.00  0.00    -0.172 S  
HETATM    3  H1  UNL     1      -6.113   9.047  63.221  1.00  0.00     0.000 HD 
HETATM    4  H2  UNL     1      -6.730   9.605  61.591  1.00  0.00     0.000 HD 
HETATM    5  O   UNL     1      -9.312   9.153  62.360  1.00  0.00    -0.045 OA 
HETATM    6  O   UNL     1      -8.116   7.556  63.905  1.00  0.00    -0.116 OA 
ENDROOT
BRANCH   2   7
HETATM    7  C   UNL     1      -8.366  10.065  64.617  1.00  0.00    -0.165 A  
HETATM    8  C   UNL     1      -9.448  10.952  64.620  1.00  0.00    -0.285 A  
HETATM    9  C   UNL     1      -9.557  11.899  65.644  1.00  0.00    -0.204 A  
HETATM   10  C   UNL     1      -8.632  11.992  66.673  1.00  0.00    -0.143 A  
HETATM   11  N   UNL     1      -8.668  12.937  67.709  1.00  0.00    -0.176 NA 
HETATM   12  C   UNL     1      -7.559  11.089  66.656  1.00  0.00    -0.146 A  
HETATM   13  C   UNL     1      -9.673  13.727  67.896  1.00  0.00    -0.229 C  
HETATM   14  C   UNL     1      -7.419  10.128  65.641  1.00  0.00    -0.144 A  
HETATM   15  N   UNL     1     -10.831  13.717  67.112  1.00  0.00    -0.283 N  
HETATM   16  O   UNL     1     -10.676  14.001  64.643  1.00  0.00    -0.407 OA 
HETATM   17 CL   UNL     1      -6.045   9.085  65.740  1.00  0.00    -0.052 Cl 
HETATM   18  S   UNL     1     -10.917  12.984  65.638  1.00  0.00    -0.277 S  
HETATM   19  H   UNL     1     -11.663  14.187  67.470  1.00  0.00     0.000 HD 
HETATM   20  O   UNL     1     -12.124  12.188  65.639  1.00  0.00    -0.545 OA 
BRANCH  13  21
HETATM   21  C   UNL     1      -9.658  14.755  69.010  1.00  0.00    -0.178 C  
BRANCH  21  22
HETATM   22  S   UNL     1     -10.913  16.049  68.739  1.00  0.00    -0.341 SA 
BRANCH  22  23
HETATM   23  C   UNL     1     -11.126  16.709  70.431  1.00  0.00     0.009 C  
BRANCH  23  24
HETATM   24  C   UNL     1     -11.950  15.762  71.267  1.00  0.00    -0.485 A  
HETATM   25  C   UNL     1     -12.812  14.842  70.648  1.00  0.00    -0.406 A  
HETATM   26  C   UNL     1     -13.642  14.022  71.412  1.00  0.00    -0.327 A  
HETATM   27  C   UNL     1     -13.616  14.107  72.803  1.00  0.00    -0.528 A  
HETATM   28  C   UNL     1     -12.748  14.999  73.430  1.00  0.00    -0.654 A  
HETATM   29  C   UNL     1     -11.918  15.822  72.668  1.00  0.00    -0.597 A  
ENDBRANCH  23  24
ENDBRANCH  22  23
ENDBRANCH  21  22
ENDBRANCH  13  21
ENDBRANCH   2   7
TORSDOF 5
ENDMDL
MODEL       88
REMARK 921   NORMALIZED FREE ENERGY PREDICTED BY IDOCK:   -5.12 KCAL/MOL
REMARK 922        TOTAL FREE ENERGY PREDICTED BY IDOCK:   -7.27 KCAL/MOL
REMARK 923 INTER-LIGAND FREE ENERGY PREDICTED BY IDOCK:   -6.88 KCAL/MOL
REMARK 924 INTRA-LIGAND FREE ENERGY PREDICTED BY IDOCK:   -0.39 KCAL/MOL
REMARK 927      BINDING AFFINITY PREDICTED BY RF-SCORE:    0.00 PKD
ROOT
HETATM    1  N   UNL     1      -8.734   6.939  70.124  1.00  0.00    -0.141 N  
HETATM    2  S   UNL     1      -8.712   7.192  68.465  1.00  0.00    -0.125 S  
HETATM    3  H1  UNL     1      -9.633   7.313  70.430  1.00  0.00     0.000 HD 
HETATM    4  H2  UNL     1      -8.011   6.507  70.698  1.00  0.00     0.000 HD 
HETATM    5  O   UNL     1      -7.439   6.662  68.032  1.00  0.00    -0.093 OA 
HETATM    6  O   UNL     1      -9.961   6.705  67.934  1.00  0.00    -0.125 OA 
ENDROOT
BRANCH   2   7
HETATM    7  C   UNL     1      -8.665   8.950  68.321  1.00  0.00    -0.134 A  
HETATM    8  C   UNL     1      -9.839   9.613  67.948  1.00  0.00    -0.182 A  
HETATM    9  C   UNL     1      -9.837  11.008  67.848  1.00  0.00    -0.171 A  
HETATM   10  C   UNL     1      -8.710  11.772  68.112  1.00  0.00    -0.168 A  
HETATM   11  N   UNL     1      -8.635  13.168  67.999  1.00  0.00    -0.173 NA 
HETATM   12  C   UNL     1      -7.546  11.089  68.491  1.00  0.00    -0.114 A  
HETATM   13  C   UNL     1      -9.674  13.906  67.787  1.00  0.00    -0.225 C  
HETATM   14  C   UNL     1      -7.514   9.688  68.600  1.00  0.00    -0.075 A  
HETATM   15  N   UNL     1     -10.975  13.408  67.666  1.00  0.00    -0.254 N  
HETATM   16  O   UNL     1     -11.495  11.656  65.975  1.00  0.00    -0.305 OA 
HETATM   17 CL   UNL     1      -6.011   8.978  69.068  1.00  0.00    -0.043 Cl 
HETATM   18  S   UNL     1     -11.311  11.817  67.398  1.00  0.00    -0.305 S  
HETATM   19  H   UNL     1     -11.754  14.061  67.748  1.00  0.00     0.000 HD 
HETATM   20  O   UNL     1     -12.334  11.442  68.346  1.00  0.00    -0.505 OA 
BRANCH  13  21
HETATM   21  C   UNL     1      -9.543  15.410  67.640  1.00  0.00    -0.210 C  
BRANCH  21  22
HETATM   22  S   UNL     1     -10.715  16.289  68.725  1.00  0.00    -0.331 SA 
BRANCH  22  23
HETATM   23  C   UNL     1     -10.298  15.584  70.360  1.00  0.00    -0.108 C  
BRANCH  23  24
HETATM   24  C   UNL     1     -11.548  15.354  71.170  1.00  0.00    -0.425 A  
HETATM   25  C   UNL     1     -11.869  16.216  72.231  1.00  0.00    -0.631 A  
HETATM   26  C   UNL     1     -12.976  15.963  73.041  1.00  0.00    -0.630 A  
HETATM   27  C   UNL     1     -13.777  14.849  72.798  1.00  0.00    -0.501 A  
HETATM   28  C   UNL     1     -13.483  13.998  71.734  1.00  0.00    -0.473 A  
HETATM   29  C   UNL     1     -12.374  14.248  70.923  1.00  0.00    -0.429 A  
ENDBRANCH  23  24
ENDBRANCH  22  23
ENDBRANCH  21  22
ENDBRANCH  13  21
ENDBRANCH   2   7
TORSDOF 5
ENDMDL
MODEL       89
REMARK 921   NORMALIZED FREE ENERGY PREDICTED BY IDOCK:   -5.09 KCAL/MOL
REMARK 922        TOTAL FREE ENERGY PREDICTED BY IDOCK:   -7.22 KCAL/MOL
REMARK 923 INTER-LIGAND FREE ENERGY PREDICTED BY IDOCK:   -7.28 KCAL/MOL
REMARK 924 INTRA-LIGAND FREE ENERGY PREDICTED BY IDOCK:    0.06 KCAL/MOL
REMARK 927      BINDING AFFINITY PREDICTED BY RF-SCORE:    0.00 PKD
ROOT
HETATM    1  N   UNL     1     -10.638  19.502  66.973  1.00  0.00    -0.470 N  
HETATM    2  S   UNL     1     -10.091  18.318  65.918  1.00  0.00    -0.044 S  
HETATM    3  H1  UNL     1     -10.047  19.406  67.798  1.00  0.00     0.000 HD 
HETATM    4  H2  UNL     1     -11.394  20.171  66.822  1.00  0.00     0.000 HD 
HETATM    5  O   UNL     1     -10.928  18.455  64.748  1.00  0.00    -0.483 OA 
HETATM    6  O   UNL     1      -8.656  18.431  65.845  1.00  0.00    -0.503 OA 
ENDROOT
BRANCH   2   7
HETATM    7  C   UNL     1     -10.515  16.814  66.738  1.00  0.00    -0.258 A  
HETATM    8  C   UNL     1     -10.874  15.713  65.953  1.00  0.00    -0.297 A  
HETATM    9  C   UNL     1     -11.193  14.502  66.574  1.00  0.00    -0.344 A  
HETATM   10  C   UNL     1     -11.161  14.340  67.952  1.00  0.00    -0.285 A  
HETATM   11  N   UNL     1     -11.500  13.164  68.635  1.00  0.00    -0.282 NA 
HETATM   12  C   UNL     1     -10.792  15.453  68.720  1.00  0.00    -0.252 A  
HETATM   13  C   UNL     1     -11.726  12.046  68.028  1.00  0.00    -0.331 C  
HETATM   14  C   UNL     1     -10.467  16.685  68.127  1.00  0.00    -0.321 A  
HETATM   15  N   UNL     1     -11.642  11.879  66.642  1.00  0.00    -0.321 N  
HETATM   16  O   UNL     1     -12.978  13.328  65.121  1.00  0.00    -0.705 OA 
HETATM   17 CL   UNL     1     -10.038  17.974  69.194  1.00  0.00    -0.294 Cl 
HETATM   18  S   UNL     1     -11.623  13.139  65.580  1.00  0.00    -0.356 S  
HETATM   19  H   UNL     1     -11.591  10.930  66.270  1.00  0.00     0.000 HD 
HETATM   20  O   UNL     1     -10.533  12.894  64.663  1.00  0.00    -0.327 OA 
BRANCH  13  21
HETATM   21  C   UNL     1     -12.120  10.805  68.805  1.00  0.00     0.029 C  
BRANCH  21  22
HETATM   22  S   UNL     1     -11.520  10.876  70.525  1.00  0.00    -0.098 SA 
BRANCH  22  23
HETATM   23  C   UNL     1     -10.789   9.212  70.724  1.00  0.00    -0.268 C  
BRANCH  23  24
HETATM   24  C   UNL     1      -9.284   9.299  70.775  1.00  0.00    -0.316 A  
HETATM   25  C   UNL     1      -8.589  10.058  69.819  1.00  0.00    -0.192 A  
HETATM   26  C   UNL     1      -7.195  10.076  69.804  1.00  0.00    -0.127 A  
HETATM   27  C   UNL     1      -6.479   9.340  70.747  1.00  0.00    -0.079 A  
HETATM   28  C   UNL     1      -7.156   8.601  71.715  1.00  0.00    -0.102 A  
HETATM   29  C   UNL     1      -8.552   8.580  71.730  1.00  0.00    -0.254 A  
ENDBRANCH  23  24
ENDBRANCH  22  23
ENDBRANCH  21  22
ENDBRANCH  13  21
ENDBRANCH   2   7
TORSDOF 5
ENDMDL
MODEL       90
REMARK 921   NORMALIZED FREE ENERGY PREDICTED BY IDOCK:   -5.06 KCAL/MOL
REMARK 922        TOTAL FREE ENERGY PREDICTED BY IDOCK:   -7.18 KCAL/MOL
REMARK 923 INTER-LIGAND FREE ENERGY PREDICTED BY IDOCK:   -6.78 KCAL/MOL
REMARK 924 INTRA-LIGAND FREE ENERGY PREDICTED BY IDOCK:   -0.40 KCAL/MOL
REMARK 927      BINDING AFFINITY PREDICTED BY RF-SCORE:    0.00 PKD
ROOT
HETATM    1  N   UNL     1     -11.371   6.277  67.295  1.00  0.00    -0.667 N  
HETATM    2  S   UNL     1     -10.741   6.383  68.847  1.00  0.00    -0.320 S  
HETATM    3  H1  UNL     1     -10.554   6.196  66.690  1.00  0.00     0.000 HD 
HETATM    4  H2  UNL     1     -12.352   6.290  67.018  1.00  0.00     0.000 HD 
HETATM    5  O   UNL     1     -11.900   6.497  69.703  1.00  0.00    -0.310 OA 
HETATM    6  O   UNL     1      -9.782   5.319  69.000  1.00  0.00    -0.133 OA 
ENDROOT
BRANCH   2   7
HETATM    7  C   UNL     1      -9.895   7.932  68.839  1.00  0.00    -0.173 A  
HETATM    8  C   UNL     1      -9.610   8.522  67.604  1.00  0.00    -0.187 A  
HETATM    9  C   UNL     1      -8.960   9.760  67.568  1.00  0.00    -0.131 A  
HETATM   10  C   UNL     1      -8.588  10.439  68.720  1.00  0.00    -0.141 A  
HETATM   11  N   UNL     1      -7.907  11.665  68.750  1.00  0.00    -0.125 NA 
HETATM   12  C   UNL     1      -8.889   9.833  69.947  1.00  0.00    -0.248 A  
HETATM   13  C   UNL     1      -7.698  12.372  67.689  1.00  0.00    -0.151 C  
HETATM   14  C   UNL     1      -9.539   8.589  70.018  1.00  0.00    -0.169 A  
HETATM   15  N   UNL     1      -8.135  12.011  66.411  1.00  0.00    -0.388 N  
HETATM   16  O   UNL     1      -7.494   9.808  65.442  1.00  0.00    -0.110 OA 
HETATM   17 CL   UNL     1      -9.840   7.956  71.597  1.00  0.00    -0.201 Cl 
HETATM   18  S   UNL     1      -8.628  10.487  66.022  1.00  0.00    -0.166 S  
HETATM   19  H   UNL     1      -8.148  12.726  65.683  1.00  0.00     0.000 HD 
HETATM   20  O   UNL     1      -9.880  10.622  65.314  1.00  0.00    -0.235 OA 
BRANCH  13  21
HETATM   21  C   UNL     1      -6.930  13.677  67.763  1.00  0.00    -0.162 C  
BRANCH  21  22
HETATM   22  S   UNL     1      -8.015  15.107  67.447  1.00  0.00    -0.205 SA 
BRANCH  22  23
HETATM   23  C   UNL     1      -9.644  14.446  67.950  1.00  0.00    -0.219 C  
BRANCH  23  24
HETATM   24  C   UNL     1     -10.583  14.402  66.771  1.00  0.00    -0.282 A  
HETATM   25  C   UNL     1     -10.405  15.286  65.694  1.00  0.00    -0.389 A  
HETATM   26  C   UNL     1     -11.317  15.312  64.640  1.00  0.00    -0.364 A  
HETATM   27  C   UNL     1     -12.414  14.452  64.645  1.00  0.00    -0.364 A  
HETATM   28  C   UNL     1     -12.589  13.553  65.696  1.00  0.00    -0.512 A  
HETATM   29  C   UNL     1     -11.678  13.527  66.755  1.00  0.00    -0.430 A  
ENDBRANCH  23  24
ENDBRANCH  22  23
ENDBRANCH  21  22
ENDBRANCH  13  21
ENDBRANCH   2   7
TORSDOF 5
ENDMDL
MODEL       91
REMARK 921   NORMALIZED FREE ENERGY PREDICTED BY IDOCK:   -5.04 KCAL/MOL
REMARK 922        TOTAL FREE ENERGY PREDICTED BY IDOCK:   -7.16 KCAL/MOL
REMARK 923 INTER-LIGAND FREE ENERGY PREDICTED BY IDOCK:   -6.85 KCAL/MOL
REMARK 924 INTRA-LIGAND FREE ENERGY PREDICTED BY IDOCK:   -0.31 KCAL/MOL
REMARK 927      BINDING AFFINITY PREDICTED BY RF-SCORE:    0.00 PKD
ROOT
HETATM    1  N   UNL     1     -10.048   4.074  66.165  1.00  0.00    -0.420 N  
HETATM    2  S   UNL     1      -8.696   4.956  66.623  1.00  0.00    -0.107 S  
HETATM    3  H1  UNL     1     -10.197   4.320  65.187  1.00  0.00     0.000 HD 
HETATM    4  H2  UNL     1     -10.598   3.434  66.738  1.00  0.00     0.000 HD 
HETATM    5  O   UNL     1      -8.485   4.606  68.010  1.00  0.00    -0.101 OA 
HETATM    6  O   UNL     1      -7.681   4.746  65.622  1.00  0.00    -0.088 OA 
ENDROOT
BRANCH   2   7
HETATM    7  C   UNL     1      -9.253   6.628  66.545  1.00  0.00    -0.158 A  
HETATM    8  C   UNL     1      -8.685   7.469  65.583  1.00  0.00    -0.105 A  
HETATM    9  C   UNL     1      -9.123   8.793  65.483  1.00  0.00    -0.163 A  
HETATM   10  C   UNL     1     -10.114   9.313  66.303  1.00  0.00    -0.252 A  
HETATM   11  N   UNL     1     -10.574  10.638  66.274  1.00  0.00    -0.201 NA 
HETATM   12  C   UNL     1     -10.676   8.452  67.256  1.00  0.00    -0.230 A  
HETATM   13  C   UNL     1     -10.224  11.477  65.356  1.00  0.00    -0.264 C  
HETATM   14  C   UNL     1     -10.257   7.117  67.383  1.00  0.00    -0.226 A  
HETATM   15  N   UNL     1      -9.374  11.161  64.291  1.00  0.00    -0.325 N  
HETATM   16  O   UNL     1      -7.109  10.225  64.731  1.00  0.00    -0.138 OA 
HETATM   17 CL   UNL     1     -11.029   6.172  68.606  1.00  0.00    -0.399 Cl 
HETATM   18  S   UNL     1      -8.415   9.820  64.269  1.00  0.00    -0.195 S  
HETATM   19  H   UNL     1      -9.346  11.790  63.489  1.00  0.00     0.000 HD 
HETATM   20  O   UNL     1      -8.609   9.190  62.983  1.00  0.00    -0.206 OA 
BRANCH  13  21
HETATM   21  C   UNL     1     -10.721  12.909  65.380  1.00  0.00    -0.285 C  
BRANCH  21  22
HETATM   22  S   UNL     1      -9.843  13.897  66.636  1.00  0.00    -0.292 SA 
BRANCH  22  23
HETATM   23  C   UNL     1     -11.162  15.037  67.190  1.00  0.00    -0.336 C  
BRANCH  23  24
HETATM   24  C   UNL     1     -11.597  14.698  68.593  1.00  0.00    -0.343 A  
HETATM   25  C   UNL     1     -11.704  13.356  68.994  1.00  0.00    -0.368 A  
HETATM   26  C   UNL     1     -12.188  13.031  70.261  1.00  0.00    -0.368 A  
HETATM   27  C   UNL     1     -12.565  14.041  71.143  1.00  0.00    -0.445 A  
HETATM   28  C   UNL     1     -12.442  15.377  70.766  1.00  0.00    -0.476 A  
HETATM   29  C   UNL     1     -11.960  15.706  69.498  1.00  0.00    -0.363 A  
ENDBRANCH  23  24
ENDBRANCH  22  23
ENDBRANCH  21  22
ENDBRANCH  13  21
ENDBRANCH   2   7
TORSDOF 5
ENDMDL
MODEL       92
REMARK 921   NORMALIZED FREE ENERGY PREDICTED BY IDOCK:   -5.04 KCAL/MOL
REMARK 922        TOTAL FREE ENERGY PREDICTED BY IDOCK:   -7.16 KCAL/MOL
REMARK 923 INTER-LIGAND FREE ENERGY PREDICTED BY IDOCK:   -6.68 KCAL/MOL
REMARK 924 INTRA-LIGAND FREE ENERGY PREDICTED BY IDOCK:   -0.49 KCAL/MOL
REMARK 927      BINDING AFFINITY PREDICTED BY RF-SCORE:    0.00 PKD
ROOT
HETATM    1  N   UNL     1     -12.445  14.244  67.540  1.00  0.00    -0.524 N  
HETATM    2  S   UNL     1     -12.005  13.902  65.958  1.00  0.00    -0.436 S  
HETATM    3  H1  UNL     1     -11.561  14.376  68.031  1.00  0.00     0.000 HD 
HETATM    4  H2  UNL     1     -13.387  14.307  67.925  1.00  0.00     0.000 HD 
HETATM    5  O   UNL     1     -13.258  13.715  65.262  1.00  0.00    -0.724 OA 
HETATM    6  O   UNL     1     -11.048  14.898  65.547  1.00  0.00    -0.329 OA 
ENDROOT
BRANCH   2   7
HETATM    7  C   UNL     1     -11.198  12.338  66.087  1.00  0.00    -0.328 A  
HETATM    8  C   UNL     1     -11.028  11.787  67.362  1.00  0.00    -0.314 A  
HETATM    9  C   UNL     1     -10.412  10.538  67.493  1.00  0.00    -0.239 A  
HETATM   10  C   UNL     1      -9.962   9.811  66.400  1.00  0.00    -0.247 A  
HETATM   11  N   UNL     1      -9.309   8.572  66.467  1.00  0.00    -0.187 NA 
HETATM   12  C   UNL     1     -10.148  10.378  65.131  1.00  0.00    -0.379 A  
HETATM   13  C   UNL     1      -9.203   7.899  67.565  1.00  0.00    -0.136 C  
HETATM   14  C   UNL     1     -10.762  11.632  64.965  1.00  0.00    -0.296 A  
HETATM   15  N   UNL     1      -9.735   8.314  68.790  1.00  0.00    -0.154 N  
HETATM   16  O   UNL     1      -9.126  10.537  69.733  1.00  0.00    -0.065 OA 
HETATM   17 CL   UNL     1     -10.918  12.214  63.346  1.00  0.00    -0.489 Cl 
HETATM   18  S   UNL     1     -10.224   9.861  69.084  1.00  0.00    -0.220 S  
HETATM   19  H   UNL     1      -9.825   7.626  69.538  1.00  0.00     0.000 HD 
HETATM   20  O   UNL     1     -11.533   9.775  69.691  1.00  0.00    -0.175 OA 
BRANCH  13  21
HETATM   21  C   UNL     1      -8.462   6.577  67.599  1.00  0.00    -0.117 C  
BRANCH  21  22
HETATM   22  S   UNL     1      -9.603   5.180  67.865  1.00  0.00    -0.142 SA 
BRANCH  22  23
HETATM   23  C   UNL     1     -10.555   5.186  66.304  1.00  0.00    -0.266 C  
BRANCH  23  24
HETATM   24  C   UNL     1      -9.951   4.223  65.313  1.00  0.00    -0.229 A  
HETATM   25  C   UNL     1      -8.636   3.762  65.490  1.00  0.00    -0.111 A  
HETATM   26  C   UNL     1      -8.038   2.940  64.535  1.00  0.00    -0.082 A  
HETATM   27  C   UNL     1      -8.748   2.566  63.395  1.00  0.00    -0.085 A  
HETATM   28  C   UNL     1     -10.061   2.998  63.219  1.00  0.00    -0.139 A  
HETATM   29  C   UNL     1     -10.661   3.822  64.172  1.00  0.00    -0.263 A  
ENDBRANCH  23  24
ENDBRANCH  22  23
ENDBRANCH  21  22
ENDBRANCH  13  21
ENDBRANCH   2   7
TORSDOF 5
ENDMDL
MODEL       93
REMARK 921   NORMALIZED FREE ENERGY PREDICTED BY IDOCK:   -5.02 KCAL/MOL
REMARK 922        TOTAL FREE ENERGY PREDICTED BY IDOCK:   -7.14 KCAL/MOL
REMARK 923 INTER-LIGAND FREE ENERGY PREDICTED BY IDOCK:   -6.87 KCAL/MOL
REMARK 924 INTRA-LIGAND FREE ENERGY PREDICTED BY IDOCK:   -0.26 KCAL/MOL
REMARK 927      BINDING AFFINITY PREDICTED BY RF-SCORE:    0.00 PKD
ROOT
HETATM    1  N   UNL     1     -10.770  19.744  68.193  1.00  0.00    -0.344 N  
HETATM    2  S   UNL     1      -9.759  19.461  66.885  1.00  0.00    -0.370 S  
HETATM    3  H1  UNL     1     -10.160  19.692  69.008  1.00  0.00     0.000 HD 
HETATM    4  H2  UNL     1     -11.773  19.929  68.177  1.00  0.00     0.000 HD 
HETATM    5  O   UNL     1     -10.625  19.536  65.731  1.00  0.00    -0.508 OA 
HETATM    6  O   UNL     1      -8.609  20.318  67.031  1.00  0.00    -0.328 OA 
ENDROOT
BRANCH   2   7
HETATM    7  C   UNL     1      -9.264  17.782  67.107  1.00  0.00    -0.253 A  
HETATM    8  C   UNL     1     -10.113  16.934  67.826  1.00  0.00    -0.292 A  
HETATM    9  C   UNL     1      -9.757  15.592  67.998  1.00  0.00    -0.207 A  
HETATM   10  C   UNL     1      -8.588  15.058  67.474  1.00  0.00    -0.180 A  
HETATM   11  N   UNL     1      -8.161  13.733  67.639  1.00  0.00    -0.163 NA 
HETATM   12  C   UNL     1      -7.756  15.923  66.752  1.00  0.00    -0.245 A  
HETATM   13  C   UNL     1      -8.907  12.821  68.170  1.00  0.00    -0.194 C  
HETATM   14  C   UNL     1      -8.083  17.277  66.562  1.00  0.00    -0.278 A  
HETATM   15  N   UNL     1     -10.213  13.044  68.619  1.00  0.00    -0.372 N  
HETATM   16  O   UNL     1     -10.678  14.831  70.289  1.00  0.00    -0.115 OA 
HETATM   17 CL   UNL     1      -6.961  18.230  65.658  1.00  0.00    -0.287 Cl 
HETATM   18  S   UNL     1     -10.833  14.548  68.882  1.00  0.00    -0.260 S  
HETATM   19  H   UNL     1     -10.811  12.235  68.792  1.00  0.00     0.000 HD 
HETATM   20  O   UNL     1     -12.124  14.585  68.234  1.00  0.00    -0.292 OA 
BRANCH  13  21
HETATM   21  C   UNL     1      -8.393  11.407  68.357  1.00  0.00    -0.153 C  
BRANCH  21  22
HETATM   22  S   UNL     1      -8.897  10.328  66.977  1.00  0.00    -0.136 SA 
BRANCH  22  23
HETATM   23  C   UNL     1     -10.409   9.553  67.655  1.00  0.00    -0.244 C  
BRANCH  23  24
HETATM   24  C   UNL     1     -10.226   9.227  69.116  1.00  0.00    -0.214 A  
HETATM   25  C   UNL     1      -9.247   8.303  69.515  1.00  0.00    -0.158 A  
HETATM   26  C   UNL     1      -9.127   7.930  70.853  1.00  0.00    -0.157 A  
HETATM   27  C   UNL     1      -9.980   8.480  71.809  1.00  0.00    -0.345 A  
HETATM   28  C   UNL     1     -10.940   9.416  71.429  1.00  0.00    -0.443 A  
HETATM   29  C   UNL     1     -11.064   9.789  70.090  1.00  0.00    -0.335 A  
ENDBRANCH  23  24
ENDBRANCH  22  23
ENDBRANCH  21  22
ENDBRANCH  13  21
ENDBRANCH   2   7
TORSDOF 5
ENDMDL
MODEL       94
REMARK 921   NORMALIZED FREE ENERGY PREDICTED BY IDOCK:   -5.02 KCAL/MOL
REMARK 922        TOTAL FREE ENERGY PREDICTED BY IDOCK:   -7.14 KCAL/MOL
REMARK 923 INTER-LIGAND FREE ENERGY PREDICTED BY IDOCK:   -6.14 KCAL/MOL
REMARK 924 INTRA-LIGAND FREE ENERGY PREDICTED BY IDOCK:   -1.00 KCAL/MOL
REMARK 927      BINDING AFFINITY PREDICTED BY RF-SCORE:    0.00 PKD
ROOT
HETATM    1  N   UNL     1     -10.042  10.121  64.016  1.00  0.00    -0.474 N  
HETATM    2  S   UNL     1     -10.297  11.025  65.406  1.00  0.00    -0.253 S  
HETATM    3  H1  UNL     1     -10.900   9.583  63.897  1.00  0.00     0.000 HD 
HETATM    4  H2  UNL     1      -9.213  10.111  63.422  1.00  0.00     0.000 HD 
HETATM    5  O   UNL     1      -9.081  11.788  65.574  1.00  0.00    -0.124 OA 
HETATM    6  O   UNL     1     -11.584  11.662  65.279  1.00  0.00    -0.189 OA 
ENDROOT
BRANCH   2   7
HETATM    7  C   UNL     1     -10.375   9.806  66.679  1.00  0.00    -0.206 A  
HETATM    8  C   UNL     1     -10.093   8.478  66.339  1.00  0.00    -0.271 A  
HETATM    9  C   UNL     1     -10.125   7.494  67.332  1.00  0.00    -0.216 A  
HETATM   10  C   UNL     1     -10.421   7.782  68.657  1.00  0.00    -0.172 A  
HETATM   11  N   UNL     1     -10.501   6.838  69.691  1.00  0.00    -0.204 NA 
HETATM   12  C   UNL     1     -10.694   9.119  68.977  1.00  0.00    -0.176 A  
HETATM   13  C   UNL     1     -10.142   5.606  69.538  1.00  0.00    -0.225 C  
HETATM   14  C   UNL     1     -10.672  10.132  68.003  1.00  0.00    -0.260 A  
HETATM   15  N   UNL     1      -9.625   5.085  68.348  1.00  0.00    -0.137 N  
HETATM   16  O   UNL     1     -10.907   5.296  66.224  1.00  0.00    -0.285 OA 
HETATM   17 CL   UNL     1     -11.036  11.734  68.536  1.00  0.00    -0.260 Cl 
HETATM   18  S   UNL     1      -9.756   5.851  66.894  1.00  0.00    -0.158 S  
HETATM   19  H   UNL     1      -9.143   4.186  68.381  1.00  0.00     0.000 HD 
HETATM   20  O   UNL     1      -8.442   5.833  66.294  1.00  0.00    -0.119 OA 
BRANCH  13  21
HETATM   21  C   UNL     1     -10.274   4.611  70.674  1.00  0.00    -0.141 C  
BRANCH  21  22
HETATM   22  S   UNL     1      -9.687   5.317  72.249  1.00  0.00    -0.161 SA 
BRANCH  22  23
HETATM   23  C   UNL     1     -11.262   5.581  73.139  1.00  0.00    -0.267 C  
BRANCH  23  24
HETATM   24  C   UNL     1     -11.999   6.766  72.569  1.00  0.00    -0.083 A  
HETATM   25  C   UNL     1     -11.481   8.062  72.728  1.00  0.00    -0.420 A  
HETATM   26  C   UNL     1     -12.196   9.172  72.281  1.00  0.00    -0.348 A  
HETATM   27  C   UNL     1     -13.434   9.001  71.664  1.00  0.00    -0.442 A  
HETATM   28  C   UNL     1     -13.948   7.719  71.478  1.00  0.00    -0.468 A  
HETATM   29  C   UNL     1     -13.235   6.606  71.928  1.00  0.00    -0.085 A  
ENDBRANCH  23  24
ENDBRANCH  22  23
ENDBRANCH  21  22
ENDBRANCH  13  21
ENDBRANCH   2   7
TORSDOF 5
ENDMDL
MODEL       95
REMARK 921   NORMALIZED FREE ENERGY PREDICTED BY IDOCK:   -5.01 KCAL/MOL
REMARK 922        TOTAL FREE ENERGY PREDICTED BY IDOCK:   -7.12 KCAL/MOL
REMARK 923 INTER-LIGAND FREE ENERGY PREDICTED BY IDOCK:   -6.40 KCAL/MOL
REMARK 924 INTRA-LIGAND FREE ENERGY PREDICTED BY IDOCK:   -0.72 KCAL/MOL
REMARK 927      BINDING AFFINITY PREDICTED BY RF-SCORE:    0.00 PKD
ROOT
HETATM    1  N   UNL     1      -8.601  18.007  67.224  1.00  0.00    -0.236 N  
HETATM    2  S   UNL     1      -9.964  17.156  66.741  1.00  0.00    -0.302 S  
HETATM    3  H1  UNL     1      -7.921  17.850  66.480  1.00  0.00     0.000 HD 
HETATM    4  H2  UNL     1      -8.479  18.559  68.072  1.00  0.00     0.000 HD 
HETATM    5  O   UNL     1     -10.927  17.380  67.795  1.00  0.00    -0.317 OA 
HETATM    6  O   UNL     1     -10.237  17.514  65.371  1.00  0.00    -0.593 OA 
ENDROOT
BRANCH   2   7
HETATM    7  C   UNL     1      -9.440  15.473  66.808  1.00  0.00    -0.237 A  
HETATM    8  C   UNL     1      -8.221  15.185  67.431  1.00  0.00    -0.215 A  
HETATM    9  C   UNL     1      -7.791  13.857  67.519  1.00  0.00    -0.181 A  
HETATM   10  C   UNL     1      -8.534  12.799  67.014  1.00  0.00    -0.153 A  
HETATM   11  N   UNL     1      -8.144  11.453  67.042  1.00  0.00    -0.151 NA 
HETATM   12  C   UNL     1      -9.755  13.108  66.400  1.00  0.00    -0.269 A  
HETATM   13  C   UNL     1      -7.108  11.041  67.696  1.00  0.00    -0.088 C  
HETATM   14  C   UNL     1     -10.215  14.432  66.293  1.00  0.00    -0.299 A  
HETATM   15  N   UNL     1      -6.280  11.875  68.454  1.00  0.00    -0.050 N  
HETATM   16  O   UNL     1      -5.211  13.866  67.408  1.00  0.00    -0.335 OA 
HETATM   17 CL   UNL     1     -11.733  14.668  65.504  1.00  0.00    -0.341 Cl 
HETATM   18  S   UNL     1      -6.280  13.517  68.312  1.00  0.00    -0.120 S  
HETATM   19  H   UNL     1      -5.644  11.446  69.127  1.00  0.00     0.000 HD 
HETATM   20  O   UNL     1      -6.349  14.051  69.653  1.00  0.00    -0.118 OA 
BRANCH  13  21
HETATM   21  C   UNL     1      -6.705   9.580  67.674  1.00  0.00    -0.063 C  
BRANCH  21  22
HETATM   22  S   UNL     1      -7.499   8.649  69.026  1.00  0.00    -0.090 SA 
BRANCH  22  23
HETATM   23  C   UNL     1      -9.188   8.417  68.365  1.00  0.00    -0.135 C  
BRANCH  23  24
HETATM   24  C   UNL     1     -10.173   9.269  69.125  1.00  0.00    -0.214 A  
HETATM   25  C   UNL     1     -10.447   8.996  70.475  1.00  0.00    -0.271 A  
HETATM   26  C   UNL     1     -11.419   9.722  71.162  1.00  0.00    -0.472 A  
HETATM   27  C   UNL     1     -12.125  10.732  70.511  1.00  0.00    -0.459 A  
HETATM   28  C   UNL     1     -11.847  11.028  69.178  1.00  0.00    -0.407 A  
HETATM   29  C   UNL     1     -10.876  10.301  68.487  1.00  0.00    -0.281 A  
ENDBRANCH  23  24
ENDBRANCH  22  23
ENDBRANCH  21  22
ENDBRANCH  13  21
ENDBRANCH   2   7
TORSDOF 5
ENDMDL
MODEL       96
REMARK 921   NORMALIZED FREE ENERGY PREDICTED BY IDOCK:   -5.01 KCAL/MOL
REMARK 922        TOTAL FREE ENERGY PREDICTED BY IDOCK:   -7.12 KCAL/MOL
REMARK 923 INTER-LIGAND FREE ENERGY PREDICTED BY IDOCK:   -6.66 KCAL/MOL
REMARK 924 INTRA-LIGAND FREE ENERGY PREDICTED BY IDOCK:   -0.46 KCAL/MOL
REMARK 927      BINDING AFFINITY PREDICTED BY RF-SCORE:    0.00 PKD
ROOT
HETATM    1  N   UNL     1      -8.458   5.966  63.262  1.00  0.00    -0.323 N  
HETATM    2  S   UNL     1      -8.361   4.475  64.023  1.00  0.00    -0.122 S  
HETATM    3  H1  UNL     1      -7.813   6.563  63.779  1.00  0.00     0.000 HD 
HETATM    4  H2  UNL     1      -9.034   6.220  62.460  1.00  0.00     0.000 HD 
HETATM    5  O   UNL     1      -9.275   3.630  63.289  1.00  0.00    -0.096 OA 
HETATM    6  O   UNL     1      -6.964   4.147  64.160  1.00  0.00    -0.044 OA 
ENDROOT
BRANCH   2   7
HETATM    7  C   UNL     1      -9.044   4.786  65.620  1.00  0.00    -0.145 A  
HETATM    8  C   UNL     1      -9.236   6.116  66.008  1.00  0.00    -0.116 A  
HETATM    9  C   UNL     1      -9.797   6.391  67.260  1.00  0.00    -0.138 A  
HETATM   10  C   UNL     1     -10.182   5.390  68.140  1.00  0.00    -0.165 A  
HETATM   11  N   UNL     1     -10.718   5.602  69.418  1.00  0.00    -0.308 NA 
HETATM   12  C   UNL     1      -9.987   4.065  67.729  1.00  0.00     0.008 A  
HETATM   13  C   UNL     1     -11.061   6.772  69.845  1.00  0.00    -0.323 C  
HETATM   14  C   UNL     1      -9.424   3.753  66.479  1.00  0.00    -0.187 A  
HETATM   15  N   UNL     1     -10.955   7.942  69.087  1.00  0.00    -0.428 N  
HETATM   16  O   UNL     1      -8.766   8.605  68.103  1.00  0.00    -0.139 OA 
HETATM   17 CL   UNL     1      -9.234   2.077  66.107  1.00  0.00    -0.034 Cl 
HETATM   18  S   UNL     1     -10.043   8.052  67.719  1.00  0.00    -0.209 S  
HETATM   19  H   UNL     1     -11.468   8.768  69.396  1.00  0.00     0.000 HD 
HETATM   20  O   UNL     1     -10.873   8.675  66.713  1.00  0.00    -0.145 OA 
BRANCH  13  21
HETATM   21  C   UNL     1     -11.609   6.959  71.246  1.00  0.00    -0.310 C  
BRANCH  21  22
HETATM   22  S   UNL     1     -11.280   8.639  71.872  1.00  0.00    -0.365 SA 
BRANCH  22  23
HETATM   23  C   UNL     1     -12.871   9.473  71.531  1.00  0.00    -0.377 C  
BRANCH  23  24
HETATM   24  C   UNL     1     -12.645  10.924  71.189  1.00  0.00    -0.532 A  
HETATM   25  C   UNL     1     -13.204  11.933  71.990  1.00  0.00    -0.461 A  
HETATM   26  C   UNL     1     -13.073  13.275  71.634  1.00  0.00    -0.453 A  
HETATM   27  C   UNL     1     -12.378  13.625  70.478  1.00  0.00    -0.425 A  
HETATM   28  C   UNL     1     -11.799  12.635  69.687  1.00  0.00    -0.379 A  
HETATM   29  C   UNL     1     -11.930  11.290  70.040  1.00  0.00    -0.447 A  
ENDBRANCH  23  24
ENDBRANCH  22  23
ENDBRANCH  21  22
ENDBRANCH  13  21
ENDBRANCH   2   7
TORSDOF 5
ENDMDL
MODEL       97
REMARK 921   NORMALIZED FREE ENERGY PREDICTED BY IDOCK:   -4.96 KCAL/MOL
REMARK 922        TOTAL FREE ENERGY PREDICTED BY IDOCK:   -7.06 KCAL/MOL
REMARK 923 INTER-LIGAND FREE ENERGY PREDICTED BY IDOCK:   -6.80 KCAL/MOL
REMARK 924 INTRA-LIGAND FREE ENERGY PREDICTED BY IDOCK:   -0.26 KCAL/MOL
REMARK 927      BINDING AFFINITY PREDICTED BY RF-SCORE:    0.00 PKD
ROOT
HETATM    1  N   UNL     1      -8.831  20.279  65.824  1.00  0.00    -0.490 N  
HETATM    2  S   UNL     1     -10.079  19.303  66.376  1.00  0.00    -0.462 S  
HETATM    3  H1  UNL     1      -8.493  19.813  64.983  1.00  0.00     0.000 HD 
HETATM    4  H2  UNL     1      -8.488  21.145  66.237  1.00  0.00     0.000 HD 
HETATM    5  O   UNL     1     -10.559  19.963  67.569  1.00  0.00    -0.408 OA 
HETATM    6  O   UNL     1     -10.944  19.028  65.257  1.00  0.00    -0.511 OA 
ENDROOT
BRANCH   2   7
HETATM    7  C   UNL     1      -9.255  17.816  66.852  1.00  0.00    -0.258 A  
HETATM    8  C   UNL     1      -9.824  16.596  66.473  1.00  0.00    -0.295 A  
HETATM    9  C   UNL     1      -9.181  15.403  66.817  1.00  0.00    -0.249 A  
HETATM   10  C   UNL     1      -7.985  15.377  67.521  1.00  0.00    -0.170 A  
HETATM   11  N   UNL     1      -7.309  14.216  67.922  1.00  0.00    -0.138 NA 
HETATM   12  C   UNL     1      -7.428  16.611  67.885  1.00  0.00    -0.169 A  
HETATM   13  C   UNL     1      -7.659  13.035  67.531  1.00  0.00    -0.165 C  
HETATM   14  C   UNL     1      -8.050  17.828  67.556  1.00  0.00    -0.223 A  
HETATM   15  N   UNL     1      -8.724  12.785  66.660  1.00  0.00    -0.407 N  
HETATM   16  O   UNL     1     -11.008  13.617  67.200  1.00  0.00    -0.282 OA 
HETATM   17 CL   UNL     1      -7.258  19.272  68.076  1.00  0.00    -0.282 Cl 
HETATM   18  S   UNL     1      -9.895  13.895  66.323  1.00  0.00    -0.299 S  
HETATM   19  H   UNL     1      -8.779  11.870  66.211  1.00  0.00     0.000 HD 
HETATM   20  O   UNL     1     -10.044  13.920  64.886  1.00  0.00    -0.369 OA 
BRANCH  13  21
HETATM   21  C   UNL     1      -6.918  11.804  68.014  1.00  0.00    -0.076 C  
BRANCH  21  22
HETATM   22  S   UNL     1      -6.940  10.479  66.762  1.00  0.00    -0.111 SA 
BRANCH  22  23
HETATM   23  C   UNL     1      -7.411   9.030  67.774  1.00  0.00    -0.085 C  
BRANCH  23  24
HETATM   24  C   UNL     1      -8.652   9.328  68.577  1.00  0.00    -0.128 A  
HETATM   25  C   UNL     1      -8.635   9.196  69.975  1.00  0.00    -0.172 A  
HETATM   26  C   UNL     1      -9.800   9.385  70.719  1.00  0.00    -0.348 A  
HETATM   27  C   UNL     1     -10.992   9.714  70.077  1.00  0.00    -0.297 A  
HETATM   28  C   UNL     1     -11.016   9.872  68.692  1.00  0.00    -0.222 A  
HETATM   29  C   UNL     1      -9.853   9.680  67.945  1.00  0.00    -0.182 A  
ENDBRANCH  23  24
ENDBRANCH  22  23
ENDBRANCH  21  22
ENDBRANCH  13  21
ENDBRANCH   2   7
TORSDOF 5
ENDMDL
MODEL       98
REMARK 921   NORMALIZED FREE ENERGY PREDICTED BY IDOCK:   -4.96 KCAL/MOL
REMARK 922        TOTAL FREE ENERGY PREDICTED BY IDOCK:   -7.06 KCAL/MOL
REMARK 923 INTER-LIGAND FREE ENERGY PREDICTED BY IDOCK:   -6.34 KCAL/MOL
REMARK 924 INTRA-LIGAND FREE ENERGY PREDICTED BY IDOCK:   -0.72 KCAL/MOL
REMARK 927      BINDING AFFINITY PREDICTED BY RF-SCORE:    0.00 PKD
ROOT
HETATM    1  N   UNL     1     -10.209  15.165  67.943  1.00  0.00    -0.231 N  
HETATM    2  S   UNL     1     -10.824  14.132  66.773  1.00  0.00    -0.299 S  
HETATM    3  H1  UNL     1      -9.199  15.028  67.902  1.00  0.00     0.000 HD 
HETATM    4  H2  UNL     1     -10.728  15.791  68.558  1.00  0.00     0.000 HD 
HETATM    5  O   UNL     1     -12.255  14.327  66.831  1.00  0.00    -0.438 OA 
HETATM    6  O   UNL     1     -10.074  14.351  65.562  1.00  0.00    -0.331 OA 
ENDROOT
BRANCH   2   7
HETATM    7  C   UNL     1     -10.450  12.528  67.407  1.00  0.00    -0.219 A  
HETATM    8  C   UNL     1      -9.627  11.693  66.644  1.00  0.00    -0.220 A  
HETATM    9  C   UNL     1      -9.295  10.425  67.132  1.00  0.00    -0.157 A  
HETATM   10  C   UNL     1      -9.748   9.956  68.357  1.00  0.00    -0.149 A  
HETATM   11  N   UNL     1      -9.479   8.686  68.886  1.00  0.00    -0.146 NA 
HETATM   12  C   UNL     1     -10.567  10.811  69.108  1.00  0.00    -0.254 A  
HETATM   13  C   UNL     1      -8.634   7.871  68.345  1.00  0.00    -0.128 C  
HETATM   14  C   UNL     1     -10.920  12.091  68.646  1.00  0.00    -0.240 A  
HETATM   15  N   UNL     1      -7.890   8.165  67.198  1.00  0.00    -0.100 N  
HETATM   16  O   UNL     1      -9.040   8.852  65.099  1.00  0.00    -0.187 OA 
HETATM   17 CL   UNL     1     -11.942  13.034  69.671  1.00  0.00    -0.379 Cl 
HETATM   18  S   UNL     1      -8.257   9.406  66.177  1.00  0.00    -0.112 S  
HETATM   19  H   UNL     1      -7.081   7.582  66.982  1.00  0.00     0.000 HD 
HETATM   20  O   UNL     1      -7.026  10.124  65.936  1.00  0.00    -0.102 OA 
BRANCH  13  21
HETATM   21  C   UNL     1      -8.396   6.494  68.933  1.00  0.00    -0.122 C  
BRANCH  21  22
HETATM   22  S   UNL     1      -9.833   5.402  68.677  1.00  0.00    -0.159 SA 
BRANCH  22  23
HETATM   23  C   UNL     1     -10.275   4.973  70.399  1.00  0.00    -0.254 C  
BRANCH  23  24
HETATM   24  C   UNL     1     -10.809   6.183  71.124  1.00  0.00    -0.328 A  
HETATM   25  C   UNL     1     -10.151   6.668  72.266  1.00  0.00    -0.191 A  
HETATM   26  C   UNL     1     -10.684   7.732  72.993  1.00  0.00    -0.446 A  
HETATM   27  C   UNL     1     -11.877   8.327  72.586  1.00  0.00    -0.382 A  
HETATM   28  C   UNL     1     -12.527   7.869  71.442  1.00  0.00    -0.330 A  
HETATM   29  C   UNL     1     -11.997   6.803  70.713  1.00  0.00    -0.433 A  
ENDBRANCH  23  24
ENDBRANCH  22  23
ENDBRANCH  21  22
ENDBRANCH  13  21
ENDBRANCH   2   7
TORSDOF 5
ENDMDL
MODEL       99
REMARK 921   NORMALIZED FREE ENERGY PREDICTED BY IDOCK:   -4.96 KCAL/MOL
REMARK 922        TOTAL FREE ENERGY PREDICTED BY IDOCK:   -7.05 KCAL/MOL
REMARK 923 INTER-LIGAND FREE ENERGY PREDICTED BY IDOCK:   -6.56 KCAL/MOL
REMARK 924 INTRA-LIGAND FREE ENERGY PREDICTED BY IDOCK:   -0.50 KCAL/MOL
REMARK 927      BINDING AFFINITY PREDICTED BY RF-SCORE:    0.00 PKD
ROOT
HETATM    1  N   UNL     1      -7.381   6.573  68.640  1.00  0.00    -0.085 N  
HETATM    2  S   UNL     1      -8.522   6.941  69.813  1.00  0.00    -0.134 S  
HETATM    3  H1  UNL     1      -6.777   7.394  68.600  1.00  0.00     0.000 HD 
HETATM    4  H2  UNL     1      -7.308   5.719  68.088  1.00  0.00     0.000 HD 
HETATM    5  O   UNL     1      -9.377   5.777  69.869  1.00  0.00    -0.144 OA 
HETATM    6  O   UNL     1      -7.813   7.421  70.973  1.00  0.00    -0.090 OA 
ENDROOT
BRANCH   2   7
HETATM    7  C   UNL     1      -9.432   8.272  69.096  1.00  0.00    -0.155 A  
HETATM    8  C   UNL     1      -9.027   8.749  67.845  1.00  0.00    -0.142 A  
HETATM    9  C   UNL     1      -9.744   9.788  67.242  1.00  0.00    -0.169 A  
HETATM   10  C   UNL     1     -10.856  10.368  67.836  1.00  0.00    -0.279 A  
HETATM   11  N   UNL     1     -11.596  11.431  67.299  1.00  0.00    -0.560 NA 
HETATM   12  C   UNL     1     -11.249   9.870  69.086  1.00  0.00    -0.151 A  
HETATM   13  C   UNL     1     -11.406  11.878  66.102  1.00  0.00    -0.324 C  
HETATM   14  C   UNL     1     -10.550   8.829  69.720  1.00  0.00    -0.224 A  
HETATM   15  N   UNL     1     -10.467  11.348  65.210  1.00  0.00    -0.274 N  
HETATM   16  O   UNL     1      -8.069  11.189  65.862  1.00  0.00    -0.123 OA 
HETATM   17 CL   UNL     1     -11.139   8.320  71.262  1.00  0.00    -0.282 Cl 
HETATM   18  S   UNL     1      -9.235  10.358  65.679  1.00  0.00    -0.196 S  
HETATM   19  H   UNL     1     -10.549  11.586  64.221  1.00  0.00     0.000 HD 
HETATM   20  O   UNL     1      -9.236   9.234  64.771  1.00  0.00    -0.209 OA 
BRANCH  13  21
HETATM   21  C   UNL     1     -12.207  13.050  65.572  1.00  0.00    -0.469 C  
BRANCH  21  22
HETATM   22  S   UNL     1     -11.207  14.573  65.522  1.00  0.00    -0.347 SA 
BRANCH  22  23
HETATM   23  C   UNL     1     -11.457  15.229  67.210  1.00  0.00    -0.224 C  
BRANCH  23  24
HETATM   24  C   UNL     1     -10.769  16.561  67.367  1.00  0.00    -0.260 A  
HETATM   25  C   UNL     1     -10.280  17.240  66.238  1.00  0.00    -0.347 A  
HETATM   26  C   UNL     1      -9.567  18.429  66.379  1.00  0.00    -0.312 A  
HETATM   27  C   UNL     1      -9.337  18.958  67.648  1.00  0.00    -0.331 A  
HETATM   28  C   UNL     1      -9.837  18.307  68.774  1.00  0.00    -0.377 A  
HETATM   29  C   UNL     1     -10.549  17.115  68.636  1.00  0.00    -0.352 A  
ENDBRANCH  23  24
ENDBRANCH  22  23
ENDBRANCH  21  22
ENDBRANCH  13  21
ENDBRANCH   2   7
TORSDOF 5
ENDMDL
MODEL      100
REMARK 921   NORMALIZED FREE ENERGY PREDICTED BY IDOCK:   -4.95 KCAL/MOL
REMARK 922        TOTAL FREE ENERGY PREDICTED BY IDOCK:   -7.05 KCAL/MOL
REMARK 923 INTER-LIGAND FREE ENERGY PREDICTED BY IDOCK:   -6.77 KCAL/MOL
REMARK 924 INTRA-LIGAND FREE ENERGY PREDICTED BY IDOCK:   -0.28 KCAL/MOL
REMARK 927      BINDING AFFINITY PREDICTED BY RF-SCORE:    0.00 PKD
ROOT
HETATM    1  N   UNL     1      -7.131   8.911  68.437  1.00  0.00    -0.076 N  
HETATM    2  S   UNL     1      -8.015   9.842  69.517  1.00  0.00    -0.164 S  
HETATM    3  H1  UNL     1      -6.255   9.418  68.316  1.00  0.00     0.000 HD 
HETATM    4  H2  UNL     1      -7.408   8.033  67.999  1.00  0.00     0.000 HD 
HETATM    5  O   UNL     1      -9.257   9.123  69.688  1.00  0.00    -0.154 OA 
HETATM    6  O   UNL     1      -7.154  10.151  70.631  1.00  0.00    -0.312 OA 
ENDROOT
BRANCH   2   7
HETATM    7  C   UNL     1      -8.344  11.319  68.609  1.00  0.00    -0.146 A  
HETATM    8  C   UNL     1      -9.678  11.678  68.393  1.00  0.00    -0.199 A  
HETATM    9  C   UNL     1      -9.968  12.856  67.697  1.00  0.00    -0.218 A  
HETATM   10  C   UNL     1      -8.977  13.697  67.211  1.00  0.00    -0.225 A  
HETATM   11  N   UNL     1      -9.202  14.872  66.479  1.00  0.00    -0.274 NA 
HETATM   12  C   UNL     1      -7.647  13.323  67.444  1.00  0.00    -0.137 A  
HETATM   13  C   UNL     1     -10.380  15.379  66.320  1.00  0.00    -0.294 C  
HETATM   14  C   UNL     1      -7.321  12.145  68.139  1.00  0.00    -0.103 A  
HETATM   15  N   UNL     1     -11.546  14.833  66.866  1.00  0.00    -0.353 N  
HETATM   16  O   UNL     1     -12.164  12.468  66.393  1.00  0.00    -0.584 OA 
HETATM   17 CL   UNL     1      -5.641  11.803  68.346  1.00  0.00    -0.045 Cl 
HETATM   18  S   UNL     1     -11.634  13.294  67.451  1.00  0.00    -0.373 S  
HETATM   19  H   UNL     1     -12.383  15.415  66.905  1.00  0.00     0.000 HD 
HETATM   20  O   UNL     1     -12.270  13.377  68.746  1.00  0.00    -0.295 OA 
BRANCH  13  21
HETATM   21  C   UNL     1     -10.581  16.634  65.494  1.00  0.00    -0.258 C  
BRANCH  21  22
HETATM   22  S   UNL     1     -10.283  18.137  66.483  1.00  0.00    -0.395 SA 
BRANCH  22  23
HETATM   23  C   UNL     1      -9.848  17.422  68.109  1.00  0.00    -0.301 C  
BRANCH  23  24
HETATM   24  C   UNL     1      -8.482  17.890  68.543  1.00  0.00    -0.303 A  
HETATM   25  C   UNL     1      -7.514  16.959  68.954  1.00  0.00    -0.238 A  
HETATM   26  C   UNL     1      -6.279  17.387  69.439  1.00  0.00    -0.250 A  
HETATM   27  C   UNL     1      -5.993  18.749  69.513  1.00  0.00    -0.275 A  
HETATM   28  C   UNL     1      -6.936  19.683  69.086  1.00  0.00    -0.386 A  
HETATM   29  C   UNL     1      -8.174  19.257  68.603  1.00  0.00    -0.408 A  
ENDBRANCH  23  24
ENDBRANCH  22  23
ENDBRANCH  21  22
ENDBRANCH  13  21
ENDBRANCH   2   7
TORSDOF 5
ENDMDL
MODEL      101
REMARK 921   NORMALIZED FREE ENERGY PREDICTED BY IDOCK:   -4.93 KCAL/MOL
REMARK 922        TOTAL FREE ENERGY PREDICTED BY IDOCK:   -7.02 KCAL/MOL
REMARK 923 INTER-LIGAND FREE ENERGY PREDICTED BY IDOCK:   -5.96 KCAL/MOL
REMARK 924 INTRA-LIGAND FREE ENERGY PREDICTED BY IDOCK:   -1.07 KCAL/MOL
REMARK 927      BINDING AFFINITY PREDICTED BY RF-SCORE:    0.00 PKD
ROOT
HETATM    1  N   UNL     1     -10.159  14.625  69.001  1.00  0.00    -0.278 N  
HETATM    2  S   UNL     1     -11.673  13.929  68.806  1.00  0.00    -0.377 S  
HETATM    3  H1  UNL     1      -9.695  14.489  68.103  1.00  0.00     0.000 HD 
HETATM    4  H2  UNL     1      -9.786  15.083  69.832  1.00  0.00     0.000 HD 
HETATM    5  O   UNL     1     -12.331  14.123  70.078  1.00  0.00    -0.332 OA 
HETATM    6  O   UNL     1     -12.229  14.436  67.576  1.00  0.00    -0.342 OA 
ENDROOT
BRANCH   2   7
HETATM    7  C   UNL     1     -11.313  12.212  68.617  1.00  0.00    -0.280 A  
HETATM    8  C   UNL     1     -11.530  11.368  69.711  1.00  0.00    -0.376 A  
HETATM    9  C   UNL     1     -11.274   9.999  69.583  1.00  0.00    -0.239 A  
HETATM   10  C   UNL     1     -10.816   9.434  68.402  1.00  0.00    -0.109 A  
HETATM   11  N   UNL     1     -10.511   8.078  68.220  1.00  0.00    -0.191 NA 
HETATM   12  C   UNL     1     -10.611  10.297  67.316  1.00  0.00    -0.324 A  
HETATM   13  C   UNL     1     -10.784   7.178  69.105  1.00  0.00    -0.198 C  
HETATM   14  C   UNL     1     -10.856  11.677  67.411  1.00  0.00    -0.250 A  
HETATM   15  N   UNL     1     -11.423   7.445  70.320  1.00  0.00    -0.444 N  
HETATM   16  O   UNL     1     -10.481   9.138  71.885  1.00  0.00    -0.348 OA 
HETATM   17 CL   UNL     1     -10.553  12.622  65.998  1.00  0.00    -0.286 Cl 
HETATM   18  S   UNL     1     -11.566   8.962  70.950  1.00  0.00    -0.268 S  
HETATM   19  H   UNL     1     -11.819   6.664  70.843  1.00  0.00     0.000 HD 
HETATM   20  O   UNL     1     -12.947   9.121  71.345  1.00  0.00    -0.323 OA 
BRANCH  13  21
HETATM   21  C   UNL     1     -10.409   5.726  68.880  1.00  0.00    -0.227 C  
BRANCH  21  22
HETATM   22  S   UNL     1      -8.770   5.575  68.096  1.00  0.00    -0.101 SA 
BRANCH  22  23
HETATM   23  C   UNL     1      -7.676   6.216  69.414  1.00  0.00    -0.099 C  
BRANCH  23  24
HETATM   24  C   UNL     1      -7.402   7.684  69.204  1.00  0.00    -0.089 A  
HETATM   25  C   UNL     1      -7.616   8.597  70.250  1.00  0.00    -0.074 A  
HETATM   26  C   UNL     1      -7.448   9.966  70.041  1.00  0.00    -0.173 A  
HETATM   27  C   UNL     1      -7.059  10.438  68.788  1.00  0.00    -0.074 A  
HETATM   28  C   UNL     1      -6.821   9.540  67.750  1.00  0.00    -0.078 A  
HETATM   29  C   UNL     1      -6.990   8.169  67.955  1.00  0.00    -0.077 A  
ENDBRANCH  23  24
ENDBRANCH  22  23
ENDBRANCH  21  22
ENDBRANCH  13  21
ENDBRANCH   2   7
TORSDOF 5
ENDMDL
MODEL      102
REMARK 921   NORMALIZED FREE ENERGY PREDICTED BY IDOCK:   -4.93 KCAL/MOL
REMARK 922        TOTAL FREE ENERGY PREDICTED BY IDOCK:   -7.02 KCAL/MOL
REMARK 923 INTER-LIGAND FREE ENERGY PREDICTED BY IDOCK:   -6.59 KCAL/MOL
REMARK 924 INTRA-LIGAND FREE ENERGY PREDICTED BY IDOCK:   -0.43 KCAL/MOL
REMARK 927      BINDING AFFINITY PREDICTED BY RF-SCORE:    0.00 PKD
ROOT
HETATM    1  N   UNL     1     -10.086   3.203  71.698  1.00  0.00    -0.093 N  
HETATM    2  S   UNL     1      -9.180   3.561  70.333  1.00  0.00    -0.164 S  
HETATM    3  H1  UNL     1     -11.055   3.233  71.381  1.00  0.00     0.000 HD 
HETATM    4  H2  UNL     1      -9.744   2.999  72.637  1.00  0.00     0.000 HD 
HETATM    5  O   UNL     1      -7.807   3.516  70.783  1.00  0.00    -0.049 OA 
HETATM    6  O   UNL     1      -9.658   2.722  69.262  1.00  0.00    -0.124 OA 
ENDROOT
BRANCH   2   7
HETATM    7  C   UNL     1      -9.603   5.239  69.990  1.00  0.00    -0.174 A  
HETATM    8  C   UNL     1     -10.499   5.882  70.850  1.00  0.00    -0.305 A  
HETATM    9  C   UNL     1     -10.836   7.220  70.615  1.00  0.00    -0.242 A  
HETATM   10  C   UNL     1     -10.307   7.946  69.558  1.00  0.00    -0.217 A  
HETATM   11  N   UNL     1     -10.628   9.276  69.251  1.00  0.00    -0.224 NA 
HETATM   12  C   UNL     1      -9.406   7.285  68.712  1.00  0.00    -0.143 A  
HETATM   13  C   UNL     1     -11.340  10.019  70.033  1.00  0.00    -0.275 C  
HETATM   14  C   UNL     1      -9.048   5.941  68.919  1.00  0.00    -0.120 A  
HETATM   15  N   UNL     1     -11.850   9.594  71.264  1.00  0.00    -0.351 N  
HETATM   16  O   UNL     1     -13.275   7.556  71.395  1.00  0.00    -0.349 OA 
HETATM   17 CL   UNL     1      -7.934   5.250  67.794  1.00  0.00    -0.099 Cl 
HETATM   18  S   UNL     1     -11.940   8.008  71.705  1.00  0.00    -0.312 S  
HETATM   19  H   UNL     1     -12.182  10.300  71.921  1.00  0.00     0.000 HD 
HETATM   20  O   UNL     1     -11.393   7.915  73.039  1.00  0.00    -0.408 OA 
BRANCH  13  21
HETATM   21  C   UNL     1     -11.689  11.443  69.648  1.00  0.00    -0.345 C  
BRANCH  21  22
HETATM   22  S   UNL     1     -10.563  12.081  68.364  1.00  0.00    -0.223 SA 
BRANCH  22  23
HETATM   23  C   UNL     1     -11.744  12.811  67.174  1.00  0.00    -0.380 C  
BRANCH  23  24
HETATM   24  C   UNL     1     -11.269  14.169  66.724  1.00  0.00    -0.330 A  
HETATM   25  C   UNL     1     -11.388  14.548  65.377  1.00  0.00    -0.341 A  
HETATM   26  C   UNL     1     -10.874  15.766  64.934  1.00  0.00    -0.433 A  
HETATM   27  C   UNL     1     -10.239  16.623  65.832  1.00  0.00    -0.358 A  
HETATM   28  C   UNL     1     -10.135  16.269  67.176  1.00  0.00    -0.268 A  
HETATM   29  C   UNL     1     -10.647  15.049  67.622  1.00  0.00    -0.267 A  
ENDBRANCH  23  24
ENDBRANCH  22  23
ENDBRANCH  21  22
ENDBRANCH  13  21
ENDBRANCH   2   7
TORSDOF 5
ENDMDL
MODEL      103
REMARK 921   NORMALIZED FREE ENERGY PREDICTED BY IDOCK:   -4.92 KCAL/MOL
REMARK 922        TOTAL FREE ENERGY PREDICTED BY IDOCK:   -7.01 KCAL/MOL
REMARK 923 INTER-LIGAND FREE ENERGY PREDICTED BY IDOCK:   -7.08 KCAL/MOL
REMARK 924 INTRA-LIGAND FREE ENERGY PREDICTED BY IDOCK:    0.07 KCAL/MOL
REMARK 927      BINDING AFFINITY PREDICTED BY RF-SCORE:    0.00 PKD
ROOT
HETATM    1  N   UNL     1      -6.438   8.441  69.712  1.00  0.00    -0.035 N  
HETATM    2  S   UNL     1      -7.143   9.777  70.443  1.00  0.00    -0.126 S  
HETATM    3  H1  UNL     1      -5.711   8.830  69.111  1.00  0.00     0.000 HD 
HETATM    4  H2  UNL     1      -6.681   7.460  69.840  1.00  0.00     0.000 HD 
HETATM    5  O   UNL     1      -8.172   9.226  71.295  1.00  0.00    -0.324 OA 
HETATM    6  O   UNL     1      -6.080  10.598  70.966  1.00  0.00    -0.325 OA 
ENDROOT
BRANCH   2   7
HETATM    7  C   UNL     1      -7.918  10.617  69.099  1.00  0.00    -0.139 A  
HETATM    8  C   UNL     1      -9.254  11.005  69.245  1.00  0.00     0.063 A  
HETATM    9  C   UNL     1      -9.887  11.693  68.205  1.00  0.00    -0.191 A  
HETATM   10  C   UNL     1      -9.237  12.016  67.022  1.00  0.00    -0.195 A  
HETATM   11  N   UNL     1      -9.824  12.673  65.931  1.00  0.00    -0.261 NA 
HETATM   12  C   UNL     1      -7.897  11.623  66.898  1.00  0.00    -0.156 A  
HETATM   13  C   UNL     1     -11.006  13.194  65.986  1.00  0.00    -0.279 C  
HETATM   14  C   UNL     1      -7.232  10.930  67.924  1.00  0.00    -0.086 A  
HETATM   15  N   UNL     1     -11.815  13.178  67.126  1.00  0.00    -0.372 N  
HETATM   16  O   UNL     1     -12.380  11.020  68.232  1.00  0.00    -0.479 OA 
HETATM   17 CL   UNL     1      -5.585  10.500  67.633  1.00  0.00    -0.044 Cl 
HETATM   18  S   UNL     1     -11.544  12.182  68.412  1.00  0.00    -0.345 S  
HETATM   19  H   UNL     1     -12.612  13.813  67.164  1.00  0.00     0.000 HD 
HETATM   20  O   UNL     1     -11.623  13.003  69.598  1.00  0.00    -0.286 OA 
BRANCH  13  21
HETATM   21  C   UNL     1     -11.615  13.869  64.773  1.00  0.00    -0.374 C  
BRANCH  21  22
HETATM   22  S   UNL     1     -11.260  15.657  64.758  1.00  0.00    -0.308 SA 
BRANCH  22  23
HETATM   23  C   UNL     1     -10.175  15.825  66.220  1.00  0.00    -0.303 C  
BRANCH  23  24
HETATM   24  C   UNL     1     -10.211  17.239  66.745  1.00  0.00    -0.318 A  
HETATM   25  C   UNL     1     -10.576  18.297  65.896  1.00  0.00    -0.274 A  
HETATM   26  C   UNL     1     -10.530  19.616  66.347  1.00  0.00    -0.618 A  
HETATM   27  C   UNL     1     -10.124  19.893  67.651  1.00  0.00    -0.564 A  
HETATM   28  C   UNL     1      -9.782  18.850  68.510  1.00  0.00    -0.441 A  
HETATM   29  C   UNL     1      -9.825  17.529  68.061  1.00  0.00    -0.299 A  
ENDBRANCH  23  24
ENDBRANCH  22  23
ENDBRANCH  21  22
ENDBRANCH  13  21
ENDBRANCH   2   7
TORSDOF 5
ENDMDL
MODEL      104
REMARK 921   NORMALIZED FREE ENERGY PREDICTED BY IDOCK:   -4.91 KCAL/MOL
REMARK 922        TOTAL FREE ENERGY PREDICTED BY IDOCK:   -6.99 KCAL/MOL
REMARK 923 INTER-LIGAND FREE ENERGY PREDICTED BY IDOCK:   -6.73 KCAL/MOL
REMARK 924 INTRA-LIGAND FREE ENERGY PREDICTED BY IDOCK:   -0.26 KCAL/MOL
REMARK 927      BINDING AFFINITY PREDICTED BY RF-SCORE:    0.00 PKD
ROOT
HETATM    1  N   UNL     1     -10.536   3.927  72.538  1.00  0.00    -0.143 N  
HETATM    2  S   UNL     1      -9.183   4.647  71.856  1.00  0.00    -0.140 S  
HETATM    3  H1  UNL     1     -11.200   3.844  71.768  1.00  0.00     0.000 HD 
HETATM    4  H2  UNL     1     -10.665   3.636  73.506  1.00  0.00     0.000 HD 
HETATM    5  O   UNL     1      -8.242   4.763  72.947  1.00  0.00    -0.100 OA 
HETATM    6  O   UNL     1      -8.866   3.923  70.651  1.00  0.00    -0.074 OA 
ENDROOT
BRANCH   2   7
HETATM    7  C   UNL     1      -9.750   6.263  71.431  1.00  0.00    -0.173 A  
HETATM    8  C   UNL     1      -9.762   6.624  70.079  1.00  0.00    -0.172 A  
HETATM    9  C   UNL     1     -10.227   7.890  69.711  1.00  0.00    -0.212 A  
HETATM   10  C   UNL     1     -10.690   8.812  70.639  1.00  0.00    -0.225 A  
HETATM   11  N   UNL     1     -11.139  10.106  70.337  1.00  0.00    -0.306 NA 
HETATM   12  C   UNL     1     -10.677   8.428  71.987  1.00  0.00    -0.387 A  
HETATM   13  C   UNL     1     -11.318  10.516  69.125  1.00  0.00    -0.257 C  
HETATM   14  C   UNL     1     -10.214   7.164  72.391  1.00  0.00    -0.189 A  
HETATM   15  N   UNL     1     -11.105   9.724  67.993  1.00  0.00    -0.506 N  
HETATM   16  O   UNL     1      -8.899   8.631  67.624  1.00  0.00    -0.134 OA 
HETATM   17 CL   UNL     1     -10.245   6.827  74.085  1.00  0.00    -0.390 Cl 
HETATM   18  S   UNL     1     -10.249   8.315  68.024  1.00  0.00    -0.214 S  
HETATM   19  H   UNL     1     -11.499  10.033  67.104  1.00  0.00     0.000 HD 
HETATM   20  O   UNL     1     -11.042   7.331  67.325  1.00  0.00    -0.258 OA 
BRANCH  13  21
HETATM   21  C   UNL     1     -11.775  11.934  68.843  1.00  0.00    -0.323 C  
BRANCH  21  22
HETATM   22  S   UNL     1     -11.432  12.414  67.118  1.00  0.00    -0.369 SA 
BRANCH  22  23
HETATM   23  C   UNL     1     -12.158  14.091  67.056  1.00  0.00    -0.420 C  
BRANCH  23  24
HETATM   24  C   UNL     1     -11.198  15.103  67.629  1.00  0.00    -0.329 A  
HETATM   25  C   UNL     1      -9.934  15.286  67.045  1.00  0.00    -0.235 A  
HETATM   26  C   UNL     1      -9.008  16.156  67.618  1.00  0.00    -0.194 A  
HETATM   27  C   UNL     1      -9.334  16.858  68.777  1.00  0.00    -0.260 A  
HETATM   28  C   UNL     1     -10.593  16.703  69.353  1.00  0.00    -0.333 A  
HETATM   29  C   UNL     1     -11.522  15.831  68.783  1.00  0.00    -0.391 A  
ENDBRANCH  23  24
ENDBRANCH  22  23
ENDBRANCH  21  22
ENDBRANCH  13  21
ENDBRANCH   2   7
TORSDOF 5
ENDMDL
MODEL      105
REMARK 921   NORMALIZED FREE ENERGY PREDICTED BY IDOCK:   -4.90 KCAL/MOL
REMARK 922        TOTAL FREE ENERGY PREDICTED BY IDOCK:   -6.98 KCAL/MOL
REMARK 923 INTER-LIGAND FREE ENERGY PREDICTED BY IDOCK:   -6.24 KCAL/MOL
REMARK 924 INTRA-LIGAND FREE ENERGY PREDICTED BY IDOCK:   -0.73 KCAL/MOL
REMARK 927      BINDING AFFINITY PREDICTED BY RF-SCORE:    0.00 PKD
ROOT
HETATM    1  N   UNL     1     -11.421   6.267  67.383  1.00  0.00    -0.616 N  
HETATM    2  S   UNL     1     -10.841   6.427  68.949  1.00  0.00    -0.344 S  
HETATM    3  H1  UNL     1     -10.586   6.147  66.810  1.00  0.00     0.000 HD 
HETATM    4  H2  UNL     1     -12.392   6.285  67.074  1.00  0.00     0.000 HD 
HETATM    5  O   UNL     1     -12.024   6.596  69.762  1.00  0.00    -0.245 OA 
HETATM    6  O   UNL     1      -9.907   5.354  69.179  1.00  0.00    -0.149 OA 
ENDROOT
BRANCH   2   7
HETATM    7  C   UNL     1      -9.966   7.959  68.906  1.00  0.00    -0.190 A  
HETATM    8  C   UNL     1      -9.768   8.571  67.664  1.00  0.00    -0.201 A  
HETATM    9  C   UNL     1      -9.098   9.797  67.602  1.00  0.00    -0.131 A  
HETATM   10  C   UNL     1      -8.621  10.443  68.734  1.00  0.00    -0.141 A  
HETATM   11  N   UNL     1      -7.915  11.655  68.735  1.00  0.00    -0.122 NA 
HETATM   12  C   UNL     1      -8.836   9.817  69.969  1.00  0.00    -0.245 A  
HETATM   13  C   UNL     1      -7.776  12.381  67.676  1.00  0.00    -0.151 C  
HETATM   14  C   UNL     1      -9.504   8.584  70.066  1.00  0.00    -0.164 A  
HETATM   15  N   UNL     1      -8.321  12.057  66.429  1.00  0.00    -0.391 N  
HETATM   16  O   UNL     1      -7.804   9.865  65.367  1.00  0.00    -0.120 OA 
HETATM   17 CL   UNL     1      -9.692   7.922  71.650  1.00  0.00    -0.196 Cl 
HETATM   18  S   UNL     1      -8.875  10.551  66.050  1.00  0.00    -0.172 S  
HETATM   19  H   UNL     1      -8.378  12.788  65.719  1.00  0.00     0.000 HD 
HETATM   20  O   UNL     1     -10.176  10.726  65.447  1.00  0.00    -0.265 OA 
BRANCH  13  21
HETATM   21  C   UNL     1      -6.978  13.670  67.715  1.00  0.00    -0.162 C  
BRANCH  21  22
HETATM   22  S   UNL     1      -7.985  15.093  67.182  1.00  0.00    -0.191 SA 
BRANCH  22  23
HETATM   23  C   UNL     1      -8.598  15.726  68.784  1.00  0.00    -0.203 C  
BRANCH  23  24
HETATM   24  C   UNL     1      -9.958  15.153  69.093  1.00  0.00    -0.238 A  
HETATM   25  C   UNL     1     -10.551  15.380  70.345  1.00  0.00    -0.274 A  
HETATM   26  C   UNL     1     -11.769  14.784  70.672  1.00  0.00    -0.353 A  
HETATM   27  C   UNL     1     -12.411  13.959  69.750  1.00  0.00    -0.330 A  
HETATM   28  C   UNL     1     -11.844  13.745  68.495  1.00  0.00    -0.406 A  
HETATM   29  C   UNL     1     -10.624  14.339  68.166  1.00  0.00    -0.246 A  
ENDBRANCH  23  24
ENDBRANCH  22  23
ENDBRANCH  21  22
ENDBRANCH  13  21
ENDBRANCH   2   7
TORSDOF 5
ENDMDL
MODEL      106
REMARK 921   NORMALIZED FREE ENERGY PREDICTED BY IDOCK:   -4.89 KCAL/MOL
REMARK 922        TOTAL FREE ENERGY PREDICTED BY IDOCK:   -6.97 KCAL/MOL
REMARK 923 INTER-LIGAND FREE ENERGY PREDICTED BY IDOCK:   -6.39 KCAL/MOL
REMARK 924 INTRA-LIGAND FREE ENERGY PREDICTED BY IDOCK:   -0.59 KCAL/MOL
REMARK 927      BINDING AFFINITY PREDICTED BY RF-SCORE:    0.00 PKD
ROOT
HETATM    1  N   UNL     1      -6.655  14.746  70.567  1.00  0.00    -0.204 N  
HETATM    2  S   UNL     1      -6.314  15.689  69.222  1.00  0.00    -0.146 S  
HETATM    3  H1  UNL     1      -6.619  13.786  70.225  1.00  0.00     0.000 HD 
HETATM    4  H2  UNL     1      -6.854  15.062  71.516  1.00  0.00     0.000 HD 
HETATM    5  O   UNL     1      -6.365  17.049  69.708  1.00  0.00    -0.234 OA 
HETATM    6  O   UNL     1      -5.132  15.147  68.600  1.00  0.00    -0.086 OA 
ENDROOT
BRANCH   2   7
HETATM    7  C   UNL     1      -7.703  15.417  68.169  1.00  0.00    -0.124 A  
HETATM    8  C   UNL     1      -8.721  14.574  68.625  1.00  0.00    -0.172 A  
HETATM    9  C   UNL     1      -9.845  14.358  67.821  1.00  0.00    -0.221 A  
HETATM   10  C   UNL     1      -9.998  14.957  66.578  1.00  0.00    -0.265 A  
HETATM   11  N   UNL     1     -11.083  14.756  65.713  1.00  0.00    -0.331 NA 
HETATM   12  C   UNL     1      -8.969  15.804  66.144  1.00  0.00    -0.372 A  
HETATM   13  C   UNL     1     -12.143  14.105  66.063  1.00  0.00    -0.432 C  
HETATM   14  C   UNL     1      -7.826  16.041  66.927  1.00  0.00    -0.249 A  
HETATM   15  N   UNL     1     -12.334  13.550  67.333  1.00  0.00    -0.300 N  
HETATM   16  O   UNL     1     -10.669  11.951  68.266  1.00  0.00    -0.204 OA 
HETATM   17 CL   UNL     1      -6.634  17.100  66.263  1.00  0.00    -0.244 Cl 
HETATM   18  S   UNL     1     -11.109  13.318  68.411  1.00  0.00    -0.287 S  
HETATM   19  H   UNL     1     -13.278  13.275  67.604  1.00  0.00     0.000 HD 
HETATM   20  O   UNL     1     -11.565  13.842  69.678  1.00  0.00    -0.268 OA 
BRANCH  13  21
HETATM   21  C   UNL     1     -13.280  13.885  65.085  1.00  0.00     0.111 C  
BRANCH  21  22
HETATM   22  S   UNL     1     -13.026  12.375  64.097  1.00  0.00     0.011 SA 
BRANCH  22  23
HETATM   23  C   UNL     1     -11.330  12.634  63.464  1.00  0.00    -0.463 C  
BRANCH  23  24
HETATM   24  C   UNL     1     -10.466  11.435  63.761  1.00  0.00    -0.456 A  
HETATM   25  C   UNL     1     -10.389  10.928  65.069  1.00  0.00    -0.356 A  
HETATM   26  C   UNL     1      -9.527   9.874  65.370  1.00  0.00    -0.319 A  
HETATM   27  C   UNL     1      -8.738   9.310  64.370  1.00  0.00    -0.211 A  
HETATM   28  C   UNL     1      -8.823   9.788  63.063  1.00  0.00    -0.255 A  
HETATM   29  C   UNL     1      -9.683  10.845  62.759  1.00  0.00    -0.307 A  
ENDBRANCH  23  24
ENDBRANCH  22  23
ENDBRANCH  21  22
ENDBRANCH  13  21
ENDBRANCH   2   7
TORSDOF 5
ENDMDL
MODEL      107
REMARK 921   NORMALIZED FREE ENERGY PREDICTED BY IDOCK:   -4.88 KCAL/MOL
REMARK 922        TOTAL FREE ENERGY PREDICTED BY IDOCK:   -6.96 KCAL/MOL
REMARK 923 INTER-LIGAND FREE ENERGY PREDICTED BY IDOCK:   -6.40 KCAL/MOL
REMARK 924 INTRA-LIGAND FREE ENERGY PREDICTED BY IDOCK:   -0.56 KCAL/MOL
REMARK 927      BINDING AFFINITY PREDICTED BY RF-SCORE:    0.00 PKD
ROOT
HETATM    1  N   UNL     1      -7.807   5.166  68.825  1.00  0.00    -0.078 N  
HETATM    2  S   UNL     1      -7.968   6.614  69.655  1.00  0.00    -0.126 S  
HETATM    3  H1  UNL     1      -7.150   5.372  68.072  1.00  0.00     0.000 HD 
HETATM    4  H2  UNL     1      -8.262   4.277  69.028  1.00  0.00     0.000 HD 
HETATM    5  O   UNL     1      -8.897   6.322  70.723  1.00  0.00    -0.141 OA 
HETATM    6  O   UNL     1      -6.642   7.116  69.916  1.00  0.00    -0.042 OA 
ENDROOT
BRANCH   2   7
HETATM    7  C   UNL     1      -8.769   7.668  68.488  1.00  0.00    -0.128 A  
HETATM    8  C   UNL     1      -8.057   8.766  67.994  1.00  0.00    -0.107 A  
HETATM    9  C   UNL     1      -8.659   9.605  67.050  1.00  0.00    -0.128 A  
HETATM   10  C   UNL     1      -9.944   9.389  66.573  1.00  0.00    -0.269 A  
HETATM   11  N   UNL     1     -10.613  10.209  65.654  1.00  0.00    -0.029 NA 
HETATM   12  C   UNL     1     -10.637   8.279  67.076  1.00  0.00    -0.328 A  
HETATM   13  C   UNL     1     -10.028  11.177  65.029  1.00  0.00    -0.273 C  
HETATM   14  C   UNL     1     -10.061   7.417  68.026  1.00  0.00    -0.179 A  
HETATM   15  N   UNL     1      -8.676  11.502  65.182  1.00  0.00    -0.372 N  
HETATM   16  O   UNL     1      -7.752  11.992  67.442  1.00  0.00    -0.143 OA 
HETATM   17 CL   UNL     1     -11.032   6.094  68.565  1.00  0.00    -0.393 Cl 
HETATM   18  S   UNL     1      -7.753  10.958  66.435  1.00  0.00    -0.145 S  
HETATM   19  H   UNL     1      -8.240  12.105  64.484  1.00  0.00     0.000 HD 
HETATM   20  O   UNL     1      -6.528  10.451  65.860  1.00  0.00    -0.105 OA 
BRANCH  13  21
HETATM   21  C   UNL     1     -10.797  12.060  64.066  1.00  0.00    -0.378 C  
BRANCH  21  22
HETATM   22  S   UNL     1     -12.234  12.837  64.877  1.00  0.00    -0.483 SA 
BRANCH  22  23
HETATM   23  C   UNL     1     -11.427  14.132  65.884  1.00  0.00    -0.338 C  
BRANCH  23  24
HETATM   24  C   UNL     1     -11.559  13.817  67.353  1.00  0.00    -0.393 A  
HETATM   25  C   UNL     1     -11.773  12.495  67.774  1.00  0.00    -0.419 A  
HETATM   26  C   UNL     1     -11.982  12.205  69.122  1.00  0.00    -0.311 A  
HETATM   27  C   UNL     1     -11.975  13.232  70.065  1.00  0.00    -0.399 A  
HETATM   28  C   UNL     1     -11.740  14.545  69.663  1.00  0.00    -0.356 A  
HETATM   29  C   UNL     1     -11.533  14.838  68.314  1.00  0.00    -0.338 A  
ENDBRANCH  23  24
ENDBRANCH  22  23
ENDBRANCH  21  22
ENDBRANCH  13  21
ENDBRANCH   2   7
TORSDOF 5
ENDMDL
MODEL      108
REMARK 921   NORMALIZED FREE ENERGY PREDICTED BY IDOCK:   -4.88 KCAL/MOL
REMARK 922        TOTAL FREE ENERGY PREDICTED BY IDOCK:   -6.96 KCAL/MOL
REMARK 923 INTER-LIGAND FREE ENERGY PREDICTED BY IDOCK:   -6.21 KCAL/MOL
REMARK 924 INTRA-LIGAND FREE ENERGY PREDICTED BY IDOCK:   -0.74 KCAL/MOL
REMARK 927      BINDING AFFINITY PREDICTED BY RF-SCORE:    0.00 PKD
ROOT
HETATM    1  N   UNL     1     -11.367  13.044  63.569  1.00  0.00    -0.617 N  
HETATM    2  S   UNL     1     -11.843  13.968  64.886  1.00  0.00    -0.417 S  
HETATM    3  H1  UNL     1     -11.885  12.170  63.667  1.00  0.00     0.000 HD 
HETATM    4  H2  UNL     1     -10.707  13.298  62.835  1.00  0.00     0.000 HD 
HETATM    5  O   UNL     1     -11.110  15.206  64.747  1.00  0.00    -0.395 OA 
HETATM    6  O   UNL     1     -13.283  13.938  64.940  1.00  0.00    -0.610 OA 
ENDROOT
BRANCH   2   7
HETATM    7  C   UNL     1     -11.191  13.082  66.265  1.00  0.00    -0.301 A  
HETATM    8  C   UNL     1     -10.627  11.823  66.034  1.00  0.00    -0.302 A  
HETATM    9  C   UNL     1     -10.082  11.108  67.105  1.00  0.00    -0.191 A  
HETATM   10  C   UNL     1     -10.070  11.602  68.402  1.00  0.00    -0.206 A  
HETATM   11  N   UNL     1      -9.569  10.922  69.521  1.00  0.00     0.033 NA 
HETATM   12  C   UNL     1     -10.634  12.869  68.610  1.00  0.00    -0.256 A  
HETATM   13  C   UNL     1      -8.913   9.813  69.426  1.00  0.00    -0.190 C  
HETATM   14  C   UNL     1     -11.191  13.612  67.556  1.00  0.00    -0.294 A  
HETATM   15  N   UNL     1      -8.615   9.183  68.214  1.00  0.00    -0.128 N  
HETATM   16  O   UNL     1     -10.439   8.595  66.625  1.00  0.00    -0.277 OA 
HETATM   17 CL   UNL     1     -11.859  15.154  67.959  1.00  0.00    -0.303 Cl 
HETATM   18  S   UNL     1      -9.371   9.550  66.796  1.00  0.00    -0.161 S  
HETATM   19  H   UNL     1      -7.894   8.460  68.206  1.00  0.00     0.000 HD 
HETATM   20  O   UNL     1      -8.334   9.721  65.803  1.00  0.00    -0.124 OA 
BRANCH  13  21
HETATM   21  C   UNL     1      -8.415   9.095  70.665  1.00  0.00    -0.209 C  
BRANCH  21  22
HETATM   22  S   UNL     1      -9.796   8.597  71.746  1.00  0.00    -0.317 SA 
BRANCH  22  23
HETATM   23  C   UNL     1     -10.619   7.326  70.722  1.00  0.00    -0.223 C  
BRANCH  23  24
HETATM   24  C   UNL     1      -9.680   6.178  70.450  1.00  0.00    -0.199 A  
HETATM   25  C   UNL     1      -9.041   5.521  71.514  1.00  0.00    -0.153 A  
HETATM   26  C   UNL     1      -8.106   4.516  71.269  1.00  0.00    -0.087 A  
HETATM   27  C   UNL     1      -7.802   4.152  69.959  1.00  0.00    -0.052 A  
HETATM   28  C   UNL     1      -8.446   4.779  68.894  1.00  0.00    -0.087 A  
HETATM   29  C   UNL     1      -9.381   5.787  69.137  1.00  0.00    -0.146 A  
ENDBRANCH  23  24
ENDBRANCH  22  23
ENDBRANCH  21  22
ENDBRANCH  13  21
ENDBRANCH   2   7
TORSDOF 5
ENDMDL
MODEL      109
REMARK 921   NORMALIZED FREE ENERGY PREDICTED BY IDOCK:   -4.88 KCAL/MOL
REMARK 922        TOTAL FREE ENERGY PREDICTED BY IDOCK:   -6.95 KCAL/MOL
REMARK 923 INTER-LIGAND FREE ENERGY PREDICTED BY IDOCK:   -6.71 KCAL/MOL
REMARK 924 INTRA-LIGAND FREE ENERGY PREDICTED BY IDOCK:   -0.24 KCAL/MOL
REMARK 927      BINDING AFFINITY PREDICTED BY RF-SCORE:    0.00 PKD
ROOT
HETATM    1  N   UNL     1      -8.809  19.687  65.985  1.00  0.00    -0.321 N  
HETATM    2  S   UNL     1      -9.600  19.233  67.393  1.00  0.00    -0.325 S  
HETATM    3  H1  UNL     1      -9.294  19.184  65.243  1.00  0.00     0.000 HD 
HETATM    4  H2  UNL     1      -8.019  20.325  65.892  1.00  0.00     0.000 HD 
HETATM    5  O   UNL     1      -8.913  19.947  68.445  1.00  0.00    -0.295 OA 
HETATM    6  O   UNL     1     -11.015  19.388  67.166  1.00  0.00    -0.483 OA 
ENDROOT
BRANCH   2   7
HETATM    7  C   UNL     1      -9.220  17.516  67.540  1.00  0.00    -0.242 A  
HETATM    8  C   UNL     1     -10.262  16.633  67.842  1.00  0.00    -0.284 A  
HETATM    9  C   UNL     1      -9.994  15.264  67.943  1.00  0.00    -0.228 A  
HETATM   10  C   UNL     1      -8.726  14.737  67.746  1.00  0.00    -0.172 A  
HETATM   11  N   UNL     1      -8.387  13.381  67.863  1.00  0.00    -0.153 NA 
HETATM   12  C   UNL     1      -7.698  15.638  67.436  1.00  0.00    -0.215 A  
HETATM   13  C   UNL     1      -9.273  12.452  68.013  1.00  0.00    -0.203 C  
HETATM   14  C   UNL     1      -7.933  17.019  67.330  1.00  0.00    -0.178 A  
HETATM   15  N   UNL     1     -10.651  12.686  68.056  1.00  0.00    -0.215 N  
HETATM   16  O   UNL     1     -11.600  14.285  69.713  1.00  0.00    -0.267 OA 
HETATM   17 CL   UNL     1      -6.572  18.014  66.952  1.00  0.00    -0.200 Cl 
HETATM   18  S   UNL     1     -11.306  14.179  68.304  1.00  0.00    -0.310 S  
HETATM   19  H   UNL     1     -11.282  11.895  67.929  1.00  0.00     0.000 HD 
HETATM   20  O   UNL     1     -12.326  14.359  67.297  1.00  0.00    -0.322 OA 
BRANCH  13  21
HETATM   21  C   UNL     1      -8.861  11.002  68.167  1.00  0.00    -0.141 C  
BRANCH  21  22
HETATM   22  S   UNL     1     -10.303   9.888  68.096  1.00  0.00    -0.207 SA 
BRANCH  22  23
HETATM   23  C   UNL     1      -9.802   8.728  66.774  1.00  0.00    -0.247 C  
BRANCH  23  24
HETATM   24  C   UNL     1      -9.663   9.454  65.460  1.00  0.00    -0.300 A  
HETATM   25  C   UNL     1     -10.531  10.512  65.143  1.00  0.00    -0.225 A  
HETATM   26  C   UNL     1     -10.467  11.132  63.896  1.00  0.00    -0.445 A  
HETATM   27  C   UNL     1      -9.534  10.707  62.953  1.00  0.00    -0.367 A  
HETATM   28  C   UNL     1      -8.652   9.674  63.263  1.00  0.00    -0.210 A  
HETATM   29  C   UNL     1      -8.714   9.049  64.510  1.00  0.00    -0.153 A  
ENDBRANCH  23  24
ENDBRANCH  22  23
ENDBRANCH  21  22
ENDBRANCH  13  21
ENDBRANCH   2   7
TORSDOF 5
ENDMDL
MODEL      110
REMARK 921   NORMALIZED FREE ENERGY PREDICTED BY IDOCK:   -4.88 KCAL/MOL
REMARK 922        TOTAL FREE ENERGY PREDICTED BY IDOCK:   -6.95 KCAL/MOL
REMARK 923 INTER-LIGAND FREE ENERGY PREDICTED BY IDOCK:   -7.15 KCAL/MOL
REMARK 924 INTRA-LIGAND FREE ENERGY PREDICTED BY IDOCK:    0.20 KCAL/MOL
REMARK 927      BINDING AFFINITY PREDICTED BY RF-SCORE:    0.00 PKD
ROOT
HETATM    1  N   UNL     1     -10.167  15.244  70.312  1.00  0.00    -0.499 N  
HETATM    2  S   UNL     1     -11.563  14.969  69.423  1.00  0.00    -0.336 S  
HETATM    3  H1  UNL     1      -9.433  15.352  69.613  1.00  0.00     0.000 HD 
HETATM    4  H2  UNL     1     -10.074  15.294  71.326  1.00  0.00     0.000 HD 
HETATM    5  O   UNL     1     -12.604  14.818  70.414  1.00  0.00    -0.343 OA 
HETATM    6  O   UNL     1     -11.630  15.979  68.396  1.00  0.00    -0.364 OA 
ENDROOT
BRANCH   2   7
HETATM    7  C   UNL     1     -11.268  13.399  68.675  1.00  0.00    -0.269 A  
HETATM    8  C   UNL     1     -11.172  12.279  69.508  1.00  0.00    -0.185 A  
HETATM    9  C   UNL     1     -10.962  11.018  68.941  1.00  0.00    -0.227 A  
HETATM   10  C   UNL     1     -10.849  10.826  67.571  1.00  0.00    -0.288 A  
HETATM   11  N   UNL     1     -10.607   9.596  66.945  1.00  0.00    -0.206 NA 
HETATM   12  C   UNL     1     -10.956  11.960  66.754  1.00  0.00    -0.337 A  
HETATM   13  C   UNL     1     -10.622   8.473  67.585  1.00  0.00    -0.198 C  
HETATM   14  C   UNL     1     -11.166  13.242  67.292  1.00  0.00    -0.292 A  
HETATM   15  N   UNL     1     -10.897   8.357  68.951  1.00  0.00    -0.425 N  
HETATM   16  O   UNL     1      -9.558   9.638  70.613  1.00  0.00    -0.252 OA 
HETATM   17 CL   UNL     1     -11.268  14.550  66.169  1.00  0.00    -0.334 Cl 
HETATM   18  S   UNL     1     -10.860   9.634  69.992  1.00  0.00    -0.281 S  
HETATM   19  H   UNL     1     -11.132   7.436  69.322  1.00  0.00     0.000 HD 
HETATM   20  O   UNL     1     -12.077   9.574  70.769  1.00  0.00    -0.285 OA 
BRANCH  13  21
HETATM   21  C   UNL     1     -10.324   7.168  66.874  1.00  0.00    -0.279 C  
BRANCH  21  22
HETATM   22  S   UNL     1      -8.995   6.242  67.710  1.00  0.00    -0.111 SA 
BRANCH  22  23
HETATM   23  C   UNL     1      -9.891   4.753  68.279  1.00  0.00    -0.118 C  
BRANCH  23  24
HETATM   24  C   UNL     1      -9.934   4.706  69.785  1.00  0.00    -0.295 A  
HETATM   25  C   UNL     1     -10.687   5.652  70.499  1.00  0.00    -0.344 A  
HETATM   26  C   UNL     1     -10.665   5.670  71.893  1.00  0.00    -0.299 A  
HETATM   27  C   UNL     1      -9.895   4.741  72.591  1.00  0.00    -0.193 A  
HETATM   28  C   UNL     1      -9.161   3.782  71.894  1.00  0.00    -0.180 A  
HETATM   29  C   UNL     1      -9.180   3.763  70.498  1.00  0.00    -0.210 A  
ENDBRANCH  23  24
ENDBRANCH  22  23
ENDBRANCH  21  22
ENDBRANCH  13  21
ENDBRANCH   2   7
TORSDOF 5
ENDMDL
MODEL      111
REMARK 921   NORMALIZED FREE ENERGY PREDICTED BY IDOCK:   -4.88 KCAL/MOL
REMARK 922        TOTAL FREE ENERGY PREDICTED BY IDOCK:   -6.95 KCAL/MOL
REMARK 923 INTER-LIGAND FREE ENERGY PREDICTED BY IDOCK:   -6.74 KCAL/MOL
REMARK 924 INTRA-LIGAND FREE ENERGY PREDICTED BY IDOCK:   -0.20 KCAL/MOL
REMARK 927      BINDING AFFINITY PREDICTED BY RF-SCORE:    0.00 PKD
ROOT
HETATM    1  N   UNL     1      -8.686   2.756  73.643  1.00  0.00    -0.072 N  
HETATM    2  S   UNL     1     -10.276   2.818  73.110  1.00  0.00    -0.145 S  
HETATM    3  H1  UNL     1      -8.522   3.666  74.073  1.00  0.00     0.000 HD 
HETATM    4  H2  UNL     1      -8.029   1.981  73.556  1.00  0.00     0.000 HD 
HETATM    5  O   UNL     1     -10.507   1.528  72.501  1.00  0.00    -0.140 OA 
HETATM    6  O   UNL     1     -11.082   3.299  74.204  1.00  0.00    -0.142 OA 
ENDROOT
BRANCH   2   7
HETATM    7  C   UNL     1     -10.233   4.040  71.838  1.00  0.00    -0.089 A  
HETATM    8  C   UNL     1     -10.951   5.224  72.037  1.00  0.00    -0.196 A  
HETATM    9  C   UNL     1     -10.917   6.220  71.055  1.00  0.00    -0.283 A  
HETATM   10  C   UNL     1     -10.189   6.085  69.882  1.00  0.00    -0.205 A  
HETATM   11  N   UNL     1     -10.140   7.030  68.848  1.00  0.00    -0.168 NA 
HETATM   12  C   UNL     1      -9.471   4.893  69.706  1.00  0.00    -0.223 A  
HETATM   13  C   UNL     1     -10.653   8.211  68.959  1.00  0.00    -0.151 C  
HETATM   14  C   UNL     1      -9.485   3.873  70.672  1.00  0.00    -0.174 A  
HETATM   15  N   UNL     1     -11.288   8.682  70.113  1.00  0.00    -0.435 N  
HETATM   16  O   UNL     1     -13.202   7.424  71.091  1.00  0.00    -0.306 OA 
HETATM   17 CL   UNL     1      -8.563   2.455  70.320  1.00  0.00    -0.092 Cl 
HETATM   18  S   UNL     1     -11.804   7.692  71.326  1.00  0.00    -0.298 S  
HETATM   19  H   UNL     1     -11.441   9.686  70.207  1.00  0.00     0.000 HD 
HETATM   20  O   UNL     1     -11.336   8.274  72.564  1.00  0.00    -0.375 OA 
BRANCH  13  21
HETATM   21  C   UNL     1     -10.605   9.192  67.804  1.00  0.00    -0.227 C  
BRANCH  21  22
HETATM   22  S   UNL     1     -11.301  10.810  68.275  1.00  0.00    -0.282 SA 
BRANCH  22  23
HETATM   23  C   UNL     1     -10.234  11.954  67.328  1.00  0.00    -0.200 C  
BRANCH  23  24
HETATM   24  C   UNL     1     -10.889  12.329  66.022  1.00  0.00    -0.310 A  
HETATM   25  C   UNL     1     -11.880  13.323  65.990  1.00  0.00    -0.440 A  
HETATM   26  C   UNL     1     -12.552  13.616  64.804  1.00  0.00    -0.339 A  
HETATM   27  C   UNL     1     -12.239  12.923  63.636  1.00  0.00    -0.581 A  
HETATM   28  C   UNL     1     -11.241  11.951  63.650  1.00  0.00    -0.522 A  
HETATM   29  C   UNL     1     -10.568  11.654  64.836  1.00  0.00    -0.349 A  
ENDBRANCH  23  24
ENDBRANCH  22  23
ENDBRANCH  21  22
ENDBRANCH  13  21
ENDBRANCH   2   7
TORSDOF 5
ENDMDL
MODEL      112
REMARK 921   NORMALIZED FREE ENERGY PREDICTED BY IDOCK:   -4.87 KCAL/MOL
REMARK 922        TOTAL FREE ENERGY PREDICTED BY IDOCK:   -6.94 KCAL/MOL
REMARK 923 INTER-LIGAND FREE ENERGY PREDICTED BY IDOCK:   -6.63 KCAL/MOL
REMARK 924 INTRA-LIGAND FREE ENERGY PREDICTED BY IDOCK:   -0.31 KCAL/MOL
REMARK 927      BINDING AFFINITY PREDICTED BY RF-SCORE:    0.00 PKD
ROOT
HETATM    1  N   UNL     1      -8.277   7.176  63.928  1.00  0.00    -0.345 N  
HETATM    2  S   UNL     1      -7.298   8.439  64.438  1.00  0.00    -0.096 S  
HETATM    3  H1  UNL     1      -8.765   7.542  63.110  1.00  0.00     0.000 HD 
HETATM    4  H2  UNL     1      -8.365   6.249  64.343  1.00  0.00     0.000 HD 
HETATM    5  O   UNL     1      -6.607   7.920  65.596  1.00  0.00    -0.042 OA 
HETATM    6  O   UNL     1      -6.587   8.931  63.284  1.00  0.00    -0.090 OA 
ENDROOT
BRANCH   2   7
HETATM    7  C   UNL     1      -8.452   9.661  64.974  1.00  0.00    -0.150 A  
HETATM    8  C   UNL     1      -8.560   9.910  66.346  1.00  0.00    -0.136 A  
HETATM    9  C   UNL     1      -9.450  10.889  66.798  1.00  0.00    -0.177 A  
HETATM   10  C   UNL     1     -10.236  11.638  65.933  1.00  0.00    -0.238 A  
HETATM   11  N   UNL     1     -11.168  12.609  66.325  1.00  0.00    -0.296 NA 
HETATM   12  C   UNL     1     -10.107  11.378  64.562  1.00  0.00    -0.337 A  
HETATM   13  C   UNL     1     -11.274  13.021  67.545  1.00  0.00    -0.284 C  
HETATM   14  C   UNL     1      -9.223  10.399  64.075  1.00  0.00    -0.263 A  
HETATM   15  N   UNL     1     -10.471  12.567  68.595  1.00  0.00    -0.303 N  
HETATM   16  O   UNL     1     -10.331  10.134  69.105  1.00  0.00    -0.193 OA 
HETATM   17 CL   UNL     1      -9.174  10.178  62.362  1.00  0.00    -0.299 Cl 
HETATM   18  S   UNL     1      -9.559  11.196  68.507  1.00  0.00    -0.193 S  
HETATM   19  H   UNL     1     -10.448  13.110  69.459  1.00  0.00     0.000 HD 
HETATM   20  O   UNL     1      -8.240  11.542  68.984  1.00  0.00    -0.068 OA 
BRANCH  13  21
HETATM   21  C   UNL     1     -12.318  14.051  67.930  1.00  0.00     0.017 C  
BRANCH  21  22
HETATM   22  S   UNL     1     -11.549  15.552  68.622  1.00  0.00    -0.354 SA 
BRANCH  22  23
HETATM   23  C   UNL     1     -10.600  16.170  67.187  1.00  0.00    -0.294 C  
BRANCH  23  24
HETATM   24  C   UNL     1     -10.150  17.590  67.423  1.00  0.00    -0.325 A  
HETATM   25  C   UNL     1      -9.693  17.983  68.691  1.00  0.00    -0.356 A  
HETATM   26  C   UNL     1      -9.357  19.313  68.942  1.00  0.00    -0.408 A  
HETATM   27  C   UNL     1      -9.468  20.264  67.929  1.00  0.00    -0.399 A  
HETATM   28  C   UNL     1      -9.897  19.881  66.660  1.00  0.00    -0.555 A  
HETATM   29  C   UNL     1     -10.237  18.551  66.406  1.00  0.00    -0.449 A  
ENDBRANCH  23  24
ENDBRANCH  22  23
ENDBRANCH  21  22
ENDBRANCH  13  21
ENDBRANCH   2   7
TORSDOF 5
ENDMDL
MODEL      113
REMARK 921   NORMALIZED FREE ENERGY PREDICTED BY IDOCK:   -4.86 KCAL/MOL
REMARK 922        TOTAL FREE ENERGY PREDICTED BY IDOCK:   -6.93 KCAL/MOL
REMARK 923 INTER-LIGAND FREE ENERGY PREDICTED BY IDOCK:   -6.46 KCAL/MOL
REMARK 924 INTRA-LIGAND FREE ENERGY PREDICTED BY IDOCK:   -0.47 KCAL/MOL
REMARK 927      BINDING AFFINITY PREDICTED BY RF-SCORE:    0.00 PKD
ROOT
HETATM    1  N   UNL     1      -6.880  19.258  68.739  1.00  0.00    -0.300 N  
HETATM    2  S   UNL     1      -8.055  19.585  67.587  1.00  0.00    -0.295 S  
HETATM    3  H1  UNL     1      -6.160  18.741  68.234  1.00  0.00     0.000 HD 
HETATM    4  H2  UNL     1      -6.883  19.519  69.725  1.00  0.00     0.000 HD 
HETATM    5  O   UNL     1      -9.074  20.317  68.303  1.00  0.00    -0.148 OA 
HETATM    6  O   UNL     1      -7.391  20.135  66.433  1.00  0.00    -0.267 OA 
ENDROOT
BRANCH   2   7
HETATM    7  C   UNL     1      -8.689  17.988  67.186  1.00  0.00    -0.243 A  
HETATM    8  C   UNL     1      -8.036  16.868  67.710  1.00  0.00    -0.188 A  
HETATM    9  C   UNL     1      -8.530  15.590  67.427  1.00  0.00    -0.180 A  
HETATM   10  C   UNL     1      -9.658  15.384  66.646  1.00  0.00    -0.256 A  
HETATM   11  N   UNL     1     -10.183  14.131  66.301  1.00  0.00    -0.287 NA 
HETATM   12  C   UNL     1     -10.302  16.520  66.137  1.00  0.00    -0.344 A  
HETATM   13  C   UNL     1      -9.752  13.028  66.818  1.00  0.00    -0.248 C  
HETATM   14  C   UNL     1      -9.830  17.818  66.400  1.00  0.00    -0.324 A  
HETATM   15  N   UNL     1      -8.740  12.960  67.781  1.00  0.00    -0.176 N  
HETATM   16  O   UNL     1      -6.513  13.979  67.333  1.00  0.00    -0.304 OA 
HETATM   17 CL   UNL     1     -10.716  19.125  65.702  1.00  0.00    -0.443 Cl 
HETATM   18  S   UNL     1      -7.713  14.209  68.101  1.00  0.00    -0.157 S  
HETATM   19  H   UNL     1      -8.632  12.095  68.311  1.00  0.00     0.000 HD 
HETATM   20  O   UNL     1      -7.682  14.365  69.537  1.00  0.00    -0.019 OA 
BRANCH  13  21
HETATM   21  C   UNL     1     -10.328  11.692  66.393  1.00  0.00    -0.230 C  
BRANCH  21  22
HETATM   22  S   UNL     1      -9.195  10.320  66.792  1.00  0.00    -0.160 SA 
BRANCH  22  23
HETATM   23  C   UNL     1     -10.370   8.950  67.081  1.00  0.00    -0.281 C  
BRANCH  23  24
HETATM   24  C   UNL     1     -10.583   8.740  68.559  1.00  0.00    -0.171 A  
HETATM   25  C   UNL     1     -10.639   7.439  69.086  1.00  0.00    -0.213 A  
HETATM   26  C   UNL     1     -10.921   7.233  70.436  1.00  0.00    -0.273 A  
HETATM   27  C   UNL     1     -11.147   8.322  71.275  1.00  0.00    -0.296 A  
HETATM   28  C   UNL     1     -11.072   9.618  70.770  1.00  0.00    -0.403 A  
HETATM   29  C   UNL     1     -10.791   9.828  69.418  1.00  0.00    -0.256 A  
ENDBRANCH  23  24
ENDBRANCH  22  23
ENDBRANCH  21  22
ENDBRANCH  13  21
ENDBRANCH   2   7
TORSDOF 5
ENDMDL
MODEL      114
REMARK 921   NORMALIZED FREE ENERGY PREDICTED BY IDOCK:   -4.86 KCAL/MOL
REMARK 922        TOTAL FREE ENERGY PREDICTED BY IDOCK:   -6.93 KCAL/MOL
REMARK 923 INTER-LIGAND FREE ENERGY PREDICTED BY IDOCK:   -6.70 KCAL/MOL
REMARK 924 INTRA-LIGAND FREE ENERGY PREDICTED BY IDOCK:   -0.23 KCAL/MOL
REMARK 927      BINDING AFFINITY PREDICTED BY RF-SCORE:    0.00 PKD
ROOT
HETATM    1  N   UNL     1      -8.568   5.211  68.003  1.00  0.00    -0.103 N  
HETATM    2  S   UNL     1      -9.570   5.801  66.794  1.00  0.00    -0.155 S  
HETATM    3  H1  UNL     1      -9.170   5.132  68.822  1.00  0.00     0.000 HD 
HETATM    4  H2  UNL     1      -7.577   4.981  67.934  1.00  0.00     0.000 HD 
HETATM    5  O   UNL     1      -8.716   5.912  65.633  1.00  0.00    -0.152 OA 
HETATM    6  O   UNL     1     -10.764   4.994  66.787  1.00  0.00    -0.225 OA 
ENDROOT
BRANCH   2   7
HETATM    7  C   UNL     1      -9.970   7.426  67.352  1.00  0.00    -0.183 A  
HETATM    8  C   UNL     1      -9.569   8.512  66.566  1.00  0.00    -0.303 A  
HETATM    9  C   UNL     1      -9.893   9.811  66.973  1.00  0.00    -0.193 A  
HETATM   10  C   UNL     1     -10.608  10.071  68.133  1.00  0.00    -0.227 A  
HETATM   11  N   UNL     1     -10.935  11.348  68.610  1.00  0.00    -0.203 NA 
HETATM   12  C   UNL     1     -11.007   8.969  68.903  1.00  0.00     0.019 A  
HETATM   13  C   UNL     1     -10.735  12.422  67.920  1.00  0.00    -0.220 C  
HETATM   14  C   UNL     1     -10.696   7.652  68.523  1.00  0.00    -0.051 A  
HETATM   15  N   UNL     1     -10.196  12.433  66.630  1.00  0.00    -0.222 N  
HETATM   16  O   UNL     1      -7.989  11.369  66.186  1.00  0.00    -0.102 OA 
HETATM   17 CL   UNL     1     -11.242   6.391  69.570  1.00  0.00    -0.459 Cl 
HETATM   18  S   UNL     1      -9.399  11.147  65.974  1.00  0.00    -0.212 S  
HETATM   19  H   UNL     1     -10.299  13.278  66.068  1.00  0.00     0.000 HD 
HETATM   20  O   UNL     1      -9.950  10.946  64.654  1.00  0.00    -0.258 OA 
BRANCH  13  21
HETATM   21  C   UNL     1     -11.076  13.786  68.488  1.00  0.00    -0.267 C  
BRANCH  21  22
HETATM   22  S   UNL     1     -11.225  15.038  67.170  1.00  0.00    -0.315 SA 
BRANCH  22  23
HETATM   23  C   UNL     1      -9.601  15.871  67.274  1.00  0.00    -0.217 C  
BRANCH  23  24
HETATM   24  C   UNL     1      -9.779  17.367  67.349  1.00  0.00    -0.269 A  
HETATM   25  C   UNL     1      -9.572  18.041  68.564  1.00  0.00    -0.342 A  
HETATM   26  C   UNL     1      -9.817  19.410  68.666  1.00  0.00    -0.522 A  
HETATM   27  C   UNL     1     -10.267  20.122  67.555  1.00  0.00    -0.520 A  
HETATM   28  C   UNL     1     -10.453  19.469  66.338  1.00  0.00    -0.597 A  
HETATM   29  C   UNL     1     -10.211  18.098  66.234  1.00  0.00    -0.401 A  
ENDBRANCH  23  24
ENDBRANCH  22  23
ENDBRANCH  21  22
ENDBRANCH  13  21
ENDBRANCH   2   7
TORSDOF 5
ENDMDL
MODEL      115
REMARK 921   NORMALIZED FREE ENERGY PREDICTED BY IDOCK:   -4.82 KCAL/MOL
REMARK 922        TOTAL FREE ENERGY PREDICTED BY IDOCK:   -6.88 KCAL/MOL
REMARK 923 INTER-LIGAND FREE ENERGY PREDICTED BY IDOCK:   -6.64 KCAL/MOL
REMARK 924 INTRA-LIGAND FREE ENERGY PREDICTED BY IDOCK:   -0.24 KCAL/MOL
REMARK 927      BINDING AFFINITY PREDICTED BY RF-SCORE:    0.00 PKD
ROOT
HETATM    1  N   UNL     1     -10.893  18.051  67.233  1.00  0.00    -0.279 N  
HETATM    2  S   UNL     1     -10.097  17.498  65.863  1.00  0.00    -0.116 S  
HETATM    3  H1  UNL     1     -10.222  17.922  67.991  1.00  0.00     0.000 HD 
HETATM    4  H2  UNL     1     -11.837  18.431  67.295  1.00  0.00     0.000 HD 
HETATM    5  O   UNL     1     -11.048  17.680  64.790  1.00  0.00    -0.915 OA 
HETATM    6  O   UNL     1      -8.794  18.113  65.839  1.00  0.00    -0.500 OA 
ENDROOT
BRANCH   2   7
HETATM    7  C   UNL     1      -9.917  15.769  66.165  1.00  0.00    -0.311 A  
HETATM    8  C   UNL     1     -10.653  14.881  65.373  1.00  0.00    -0.391 A  
HETATM    9  C   UNL     1     -10.513  13.504  65.575  1.00  0.00    -0.299 A  
HETATM   10  C   UNL     1      -9.661  12.974  66.534  1.00  0.00    -0.266 A  
HETATM   11  N   UNL     1      -9.501  11.608  66.806  1.00  0.00    -0.182 NA 
HETATM   12  C   UNL     1      -8.928  13.881  67.311  1.00  0.00    -0.225 A  
HETATM   13  C   UNL     1     -10.023  10.685  66.068  1.00  0.00    -0.239 C  
HETATM   14  C   UNL     1      -9.046  15.270  67.135  1.00  0.00    -0.210 A  
HETATM   15  N   UNL     1     -10.781  10.937  64.920  1.00  0.00    -0.234 N  
HETATM   16  O   UNL     1     -12.789  12.404  65.042  1.00  0.00    -0.673 OA 
HETATM   17 CL   UNL     1      -8.090  16.271  68.169  1.00  0.00    -0.155 Cl 
HETATM   18  S   UNL     1     -11.425  12.414  64.571  1.00  0.00    -0.356 S  
HETATM   19  H   UNL     1     -10.944  10.170  64.267  1.00  0.00     0.000 HD 
HETATM   20  O   UNL     1     -11.096  12.696  63.192  1.00  0.00    -0.325 OA 
BRANCH  13  21
HETATM   21  C   UNL     1      -9.850   9.220  66.416  1.00  0.00    -0.277 C  
BRANCH  21  22
HETATM   22  S   UNL     1     -10.103   8.924  68.197  1.00  0.00    -0.197 SA 
BRANCH  22  23
HETATM   23  C   UNL     1      -8.403   9.112  68.843  1.00  0.00    -0.124 C  
BRANCH  23  24
HETATM   24  C   UNL     1      -7.410   8.463  67.912  1.00  0.00    -0.096 A  
HETATM   25  C   UNL     1      -7.545   7.107  67.571  1.00  0.00    -0.110 A  
HETATM   26  C   UNL     1      -6.585   6.476  66.781  1.00  0.00    -0.048 A  
HETATM   27  C   UNL     1      -5.482   7.192  66.318  1.00  0.00    -0.023 A  
HETATM   28  C   UNL     1      -5.349   8.543  66.631  1.00  0.00    -0.032 A  
HETATM   29  C   UNL     1      -6.307   9.178  67.423  1.00  0.00    -0.059 A  
ENDBRANCH  23  24
ENDBRANCH  22  23
ENDBRANCH  21  22
ENDBRANCH  13  21
ENDBRANCH   2   7
TORSDOF 5
ENDMDL
MODEL      116
REMARK 921   NORMALIZED FREE ENERGY PREDICTED BY IDOCK:   -4.81 KCAL/MOL
REMARK 922        TOTAL FREE ENERGY PREDICTED BY IDOCK:   -6.86 KCAL/MOL
REMARK 923 INTER-LIGAND FREE ENERGY PREDICTED BY IDOCK:   -6.30 KCAL/MOL
REMARK 924 INTRA-LIGAND FREE ENERGY PREDICTED BY IDOCK:   -0.56 KCAL/MOL
REMARK 927      BINDING AFFINITY PREDICTED BY RF-SCORE:    0.00 PKD
ROOT
HETATM    1  N   UNL     1     -10.624  16.235  70.146  1.00  0.00    -0.244 N  
HETATM    2  S   UNL     1      -9.981  16.604  68.641  1.00  0.00    -0.276 S  
HETATM    3  H1  UNL     1      -9.849  15.818  70.662  1.00  0.00     0.000 HD 
HETATM    4  H2  UNL     1     -11.577  16.393  70.472  1.00  0.00     0.000 HD 
HETATM    5  O   UNL     1     -11.078  17.196  67.910  1.00  0.00    -0.288 OA 
HETATM    6  O   UNL     1      -8.743  17.309  68.858  1.00  0.00    -0.257 OA 
ENDROOT
BRANCH   2   7
HETATM    7  C   UNL     1      -9.633  15.020  67.946  1.00  0.00    -0.203 A  
HETATM    8  C   UNL     1     -10.465  14.552  66.922  1.00  0.00    -0.269 A  
HETATM    9  C   UNL     1     -10.199  13.309  66.337  1.00  0.00    -0.292 A  
HETATM   10  C   UNL     1      -9.131  12.515  66.727  1.00  0.00    -0.214 A  
HETATM   11  N   UNL     1      -8.831  11.249  66.203  1.00  0.00    -0.190 NA 
HETATM   12  C   UNL     1      -8.306  13.006  67.749  1.00  0.00    -0.175 A  
HETATM   13  C   UNL     1      -9.440  10.759  65.175  1.00  0.00    -0.226 C  
HETATM   14  C   UNL     1      -8.546  14.249  68.359  1.00  0.00    -0.175 A  
HETATM   15  N   UNL     1     -10.440  11.432  64.465  1.00  0.00    -0.301 N  
HETATM   16  O   UNL     1     -12.464  12.276  65.646  1.00  0.00    -0.591 OA 
HETATM   17 CL   UNL     1      -7.455  14.725  69.611  1.00  0.00    -0.128 Cl 
HETATM   18  S   UNL     1     -11.235  12.750  65.055  1.00  0.00    -0.310 S  
HETATM   19  H   UNL     1     -10.690  11.090  63.537  1.00  0.00     0.000 HD 
HETATM   20  O   UNL     1     -11.226  13.745  64.008  1.00  0.00    -0.281 OA 
BRANCH  13  21
HETATM   21  C   UNL     1      -9.106   9.373  64.660  1.00  0.00    -0.173 C  
BRANCH  21  22
HETATM   22  S   UNL     1      -8.415   8.321  65.979  1.00  0.00    -0.146 SA 
BRANCH  22  23
HETATM   23  C   UNL     1      -9.916   7.476  66.593  1.00  0.00    -0.200 C  
BRANCH  23  24
HETATM   24  C   UNL     1     -10.133   7.781  68.053  1.00  0.00    -0.227 A  
HETATM   25  C   UNL     1      -9.617   8.962  68.611  1.00  0.00    -0.158 A  
HETATM   26  C   UNL     1      -9.738   9.212  69.978  1.00  0.00    -0.217 A  
HETATM   27  C   UNL     1     -10.380   8.290  70.802  1.00  0.00    -0.221 A  
HETATM   28  C   UNL     1     -10.917   7.125  70.256  1.00  0.00    -0.288 A  
HETATM   29  C   UNL     1     -10.795   6.870  68.889  1.00  0.00    -0.247 A  
ENDBRANCH  23  24
ENDBRANCH  22  23
ENDBRANCH  21  22
ENDBRANCH  13  21
ENDBRANCH   2   7
TORSDOF 5
ENDMDL
MODEL      117
REMARK 921   NORMALIZED FREE ENERGY PREDICTED BY IDOCK:   -4.79 KCAL/MOL
REMARK 922        TOTAL FREE ENERGY PREDICTED BY IDOCK:   -6.84 KCAL/MOL
REMARK 923 INTER-LIGAND FREE ENERGY PREDICTED BY IDOCK:   -6.70 KCAL/MOL
REMARK 924 INTRA-LIGAND FREE ENERGY PREDICTED BY IDOCK:   -0.14 KCAL/MOL
REMARK 927      BINDING AFFINITY PREDICTED BY RF-SCORE:    0.00 PKD
ROOT
HETATM    1  N   UNL     1      -5.706   4.768  70.995  1.00  0.00    -0.015 N  
HETATM    2  S   UNL     1      -6.911   4.799  72.162  1.00  0.00    -0.058 S  
HETATM    3  H1  UNL     1      -5.142   5.596  71.183  1.00  0.00     0.000 HD 
HETATM    4  H2  UNL     1      -5.568   4.074  70.260  1.00  0.00     0.000 HD 
HETATM    5  O   UNL     1      -7.709   3.624  71.894  1.00  0.00    -0.056 OA 
HETATM    6  O   UNL     1      -6.275   5.014  73.437  1.00  0.00    -0.042 OA 
ENDROOT
BRANCH   2   7
HETATM    7  C   UNL     1      -7.855   6.227  71.735  1.00  0.00    -0.101 A  
HETATM    8  C   UNL     1      -9.206   6.054  71.416  1.00  0.00    -0.152 A  
HETATM    9  C   UNL     1      -9.985   7.171  71.097  1.00  0.00    -0.183 A  
HETATM   10  C   UNL     1      -9.470   8.460  71.089  1.00  0.00    -0.179 A  
HETATM   11  N   UNL     1     -10.189   9.614  70.746  1.00  0.00    -0.290 NA 
HETATM   12  C   UNL     1      -8.116   8.612  71.418  1.00  0.00    -0.192 A  
HETATM   13  C   UNL     1     -11.467   9.609  70.556  1.00  0.00    -0.285 C  
HETATM   14  C   UNL     1      -7.306   7.511  71.742  1.00  0.00    -0.071 A  
HETATM   15  N   UNL     1     -12.271   8.472  70.685  1.00  0.00    -0.490 N  
HETATM   16  O   UNL     1     -11.757   6.417  69.375  1.00  0.00    -0.327 OA 
HETATM   17 CL   UNL     1      -5.653   7.843  72.119  1.00  0.00    -0.036 Cl 
HETATM   18  S   UNL     1     -11.667   6.938  70.718  1.00  0.00    -0.373 S  
HETATM   19  H   UNL     1     -13.280   8.597  70.761  1.00  0.00     0.000 HD 
HETATM   20  O   UNL     1     -12.289   6.270  71.838  1.00  0.00    -0.312 OA 
BRANCH  13  21
HETATM   21  C   UNL     1     -12.200  10.874  70.157  1.00  0.00    -0.343 C  
BRANCH  21  22
HETATM   22  S   UNL     1     -11.044  12.159  69.575  1.00  0.00     0.034 SA 
BRANCH  22  23
HETATM   23  C   UNL     1     -12.181  13.555  69.257  1.00  0.00    -0.211 C  
BRANCH  23  24
HETATM   24  C   UNL     1     -12.467  14.304  70.534  1.00  0.00    -0.428 A  
HETATM   25  C   UNL     1     -11.797  15.507  70.811  1.00  0.00    -0.406 A  
HETATM   26  C   UNL     1     -11.990  16.162  72.027  1.00  0.00    -0.607 A  
HETATM   27  C   UNL     1     -12.859  15.628  72.977  1.00  0.00    -0.599 A  
HETATM   28  C   UNL     1     -13.548  14.447  72.704  1.00  0.00    -0.589 A  
HETATM   29  C   UNL     1     -13.354  13.788  71.489  1.00  0.00    -0.391 A  
ENDBRANCH  23  24
ENDBRANCH  22  23
ENDBRANCH  21  22
ENDBRANCH  13  21
ENDBRANCH   2   7
TORSDOF 5
ENDMDL
MODEL      118
REMARK 921   NORMALIZED FREE ENERGY PREDICTED BY IDOCK:   -4.76 KCAL/MOL
REMARK 922        TOTAL FREE ENERGY PREDICTED BY IDOCK:   -6.80 KCAL/MOL
REMARK 923 INTER-LIGAND FREE ENERGY PREDICTED BY IDOCK:   -6.35 KCAL/MOL
REMARK 924 INTRA-LIGAND FREE ENERGY PREDICTED BY IDOCK:   -0.45 KCAL/MOL
REMARK 927      BINDING AFFINITY PREDICTED BY RF-SCORE:    0.00 PKD
ROOT
HETATM    1  N   UNL     1      -8.340   3.901  69.625  1.00  0.00    -0.056 N  
HETATM    2  S   UNL     1      -8.385   4.124  67.963  1.00  0.00    -0.094 S  
HETATM    3  H1  UNL     1      -9.293   4.089  69.937  1.00  0.00     0.000 HD 
HETATM    4  H2  UNL     1      -7.539   3.635  70.197  1.00  0.00     0.000 HD 
HETATM    5  O   UNL     1      -7.035   3.857  67.523  1.00  0.00    -0.053 OA 
HETATM    6  O   UNL     1      -9.512   3.384  67.455  1.00  0.00    -0.205 OA 
ENDROOT
BRANCH   2   7
HETATM    7  C   UNL     1      -8.699   5.852  67.792  1.00  0.00    -0.104 A  
HETATM    8  C   UNL     1      -8.741   6.634  68.951  1.00  0.00    -0.128 A  
HETATM    9  C   UNL     1      -8.965   8.010  68.844  1.00  0.00    -0.141 A  
HETATM   10  C   UNL     1      -9.143   8.642  67.621  1.00  0.00    -0.134 A  
HETATM   11  N   UNL     1      -9.404  10.009  67.450  1.00  0.00    -0.147 NA 
HETATM   12  C   UNL     1      -9.091   7.842  66.472  1.00  0.00    -0.209 A  
HETATM   13  C   UNL     1      -9.343  10.858  68.422  1.00  0.00    -0.172 C  
HETATM   14  C   UNL     1      -8.869   6.456  66.545  1.00  0.00    -0.136 A  
HETATM   15  N   UNL     1      -8.999  10.518  69.735  1.00  0.00    -0.386 N  
HETATM   16  O   UNL     1     -10.268   8.752  70.947  1.00  0.00    -0.200 OA 
HETATM   17 CL   UNL     1      -8.837   5.592  65.050  1.00  0.00    -0.076 Cl 
HETATM   18  S   UNL     1      -8.998   8.968  70.296  1.00  0.00    -0.218 S  
HETATM   19  H   UNL     1      -8.736  11.267  70.376  1.00  0.00     0.000 HD 
HETATM   20  O   UNL     1      -7.744   8.776  70.987  1.00  0.00    -0.095 OA 
BRANCH  13  21
HETATM   21  C   UNL     1      -9.662  12.323  68.198  1.00  0.00    -0.213 C  
BRANCH  21  22
HETATM   22  S   UNL     1     -11.461  12.622  68.208  1.00  0.00    -0.336 SA 
BRANCH  22  23
HETATM   23  C   UNL     1     -11.905  12.113  69.907  1.00  0.00    -0.319 C  
BRANCH  23  24
HETATM   24  C   UNL     1     -12.362  13.303  70.712  1.00  0.00    -0.425 A  
HETATM   25  C   UNL     1     -11.919  14.593  70.377  1.00  0.00    -0.375 A  
HETATM   26  C   UNL     1     -12.266  15.689  71.166  1.00  0.00    -0.466 A  
HETATM   27  C   UNL     1     -13.063  15.511  72.296  1.00  0.00    -0.517 A  
HETATM   28  C   UNL     1     -13.528  14.239  72.626  1.00  0.00    -0.623 A  
HETATM   29  C   UNL     1     -13.180  13.140  71.839  1.00  0.00    -0.526 A  
ENDBRANCH  23  24
ENDBRANCH  22  23
ENDBRANCH  21  22
ENDBRANCH  13  21
ENDBRANCH   2   7
TORSDOF 5
ENDMDL
MODEL      119
REMARK 921   NORMALIZED FREE ENERGY PREDICTED BY IDOCK:   -4.76 KCAL/MOL
REMARK 922        TOTAL FREE ENERGY PREDICTED BY IDOCK:   -6.80 KCAL/MOL
REMARK 923 INTER-LIGAND FREE ENERGY PREDICTED BY IDOCK:   -6.68 KCAL/MOL
REMARK 924 INTRA-LIGAND FREE ENERGY PREDICTED BY IDOCK:   -0.12 KCAL/MOL
REMARK 927      BINDING AFFINITY PREDICTED BY RF-SCORE:    0.00 PKD
ROOT
HETATM    1  N   UNL     1     -10.923  17.859  67.510  1.00  0.00    -0.215 N  
HETATM    2  S   UNL     1     -10.099  17.398  66.124  1.00  0.00    -0.264 S  
HETATM    3  H1  UNL     1     -10.199  17.949  68.223  1.00  0.00     0.000 HD 
HETATM    4  H2  UNL     1     -11.925  18.015  67.617  1.00  0.00     0.000 HD 
HETATM    5  O   UNL     1     -11.125  17.271  65.114  1.00  0.00    -0.474 OA 
HETATM    6  O   UNL     1      -8.981  18.293  65.965  1.00  0.00    -0.500 OA 
ENDROOT
BRANCH   2   7
HETATM    7  C   UNL     1      -9.500  15.786  66.521  1.00  0.00    -0.272 A  
HETATM    8  C   UNL     1     -10.235  14.682  66.077  1.00  0.00    -0.326 A  
HETATM    9  C   UNL     1      -9.773  13.392  66.358  1.00  0.00    -0.277 A  
HETATM   10  C   UNL     1      -8.599  13.158  67.060  1.00  0.00    -0.162 A  
HETATM   11  N   UNL     1      -8.100  11.893  67.400  1.00  0.00    -0.156 NA 
HETATM   12  C   UNL     1      -7.874  14.278  67.489  1.00  0.00    -0.209 A  
HETATM   13  C   UNL     1      -8.612  10.797  66.946  1.00  0.00    -0.132 C  
HETATM   14  C   UNL     1      -8.312  15.587  67.225  1.00  0.00    -0.193 A  
HETATM   15  N   UNL     1      -9.694  10.747  66.062  1.00  0.00    -0.208 N  
HETATM   16  O   UNL     1     -11.840  11.870  66.643  1.00  0.00    -0.591 OA 
HETATM   17 CL   UNL     1      -7.325  16.874  67.822  1.00  0.00    -0.162 Cl 
HETATM   18  S   UNL     1     -10.692  12.030  65.784  1.00  0.00    -0.290 S  
HETATM   19  H   UNL     1      -9.876   9.875  65.565  1.00  0.00     0.000 HD 
HETATM   20  O   UNL     1     -10.823  12.152  64.350  1.00  0.00    -0.290 OA 
BRANCH  13  21
HETATM   21  C   UNL     1      -8.060   9.448  67.364  1.00  0.00    -0.110 C  
BRANCH  21  22
HETATM   22  S   UNL     1      -9.372   8.363  68.014  1.00  0.00    -0.136 SA 
BRANCH  22  23
HETATM   23  C   UNL     1      -9.426   8.868  69.770  1.00  0.00    -0.170 C  
BRANCH  23  24
HETATM   24  C   UNL     1     -10.149   7.833  70.595  1.00  0.00    -0.191 A  
HETATM   25  C   UNL     1      -9.592   6.556  70.770  1.00  0.00    -0.190 A  
HETATM   26  C   UNL     1     -10.292   5.565  71.458  1.00  0.00    -0.282 A  
HETATM   27  C   UNL     1     -11.553   5.840  71.984  1.00  0.00    -0.226 A  
HETATM   28  C   UNL     1     -12.107   7.110  71.837  1.00  0.00    -0.357 A  
HETATM   29  C   UNL     1     -11.409   8.103  71.147  1.00  0.00    -0.299 A  
ENDBRANCH  23  24
ENDBRANCH  22  23
ENDBRANCH  21  22
ENDBRANCH  13  21
ENDBRANCH   2   7
TORSDOF 5
ENDMDL
MODEL      120
REMARK 921   NORMALIZED FREE ENERGY PREDICTED BY IDOCK:   -4.75 KCAL/MOL
REMARK 922        TOTAL FREE ENERGY PREDICTED BY IDOCK:   -6.79 KCAL/MOL
REMARK 923 INTER-LIGAND FREE ENERGY PREDICTED BY IDOCK:   -6.34 KCAL/MOL
REMARK 924 INTRA-LIGAND FREE ENERGY PREDICTED BY IDOCK:   -0.45 KCAL/MOL
REMARK 927      BINDING AFFINITY PREDICTED BY RF-SCORE:    0.00 PKD
ROOT
HETATM    1  N   UNL     1     -13.656  14.160  72.817  1.00  0.00    -0.496 N  
HETATM    2  S   UNL     1     -12.947  14.925  71.503  1.00  0.00    -0.376 S  
HETATM    3  H1  UNL     1     -12.878  13.723  73.312  1.00  0.00     0.000 HD 
HETATM    4  H2  UNL     1     -14.644  14.137  73.067  1.00  0.00     0.000 HD 
HETATM    5  O   UNL     1     -14.049  15.544  70.803  1.00  0.00    -0.378 OA 
HETATM    6  O   UNL     1     -11.831  15.692  71.996  1.00  0.00    -0.370 OA 
ENDROOT
BRANCH   2   7
HETATM    7  C   UNL     1     -12.345  13.585  70.526  1.00  0.00    -0.342 A  
HETATM    8  C   UNL     1     -12.355  12.303  71.087  1.00  0.00    -0.251 A  
HETATM    9  C   UNL     1     -11.904  11.218  70.327  1.00  0.00    -0.357 A  
HETATM   10  C   UNL     1     -11.449  11.359  69.024  1.00  0.00    -0.300 A  
HETATM   11  N   UNL     1     -10.955  10.319  68.224  1.00  0.00    -0.258 NA 
HETATM   12  C   UNL     1     -11.453  12.651  68.479  1.00  0.00    -0.349 A  
HETATM   13  C   UNL     1     -11.027   9.077  68.573  1.00  0.00     0.086 C  
HETATM   14  C   UNL     1     -11.898  13.762  69.216  1.00  0.00    -0.344 A  
HETATM   15  N   UNL     1     -11.612   8.633  69.763  1.00  0.00    -0.350 N  
HETATM   16  O   UNL     1     -10.830   9.523  71.953  1.00  0.00    -0.221 OA 
HETATM   17 CL   UNL     1     -11.841  15.296  68.423  1.00  0.00    -0.335 Cl 
HETATM   18  S   UNL     1     -11.939   9.629  71.035  1.00  0.00    -0.362 S  
HETATM   19  H   UNL     1     -11.848   7.644  69.848  1.00  0.00     0.000 HD 
HETATM   20  O   UNL     1     -13.297   9.351  71.443  1.00  0.00    -0.361 OA 
BRANCH  13  21
HETATM   21  C   UNL     1     -10.453   7.987  67.691  1.00  0.00    -0.232 C  
BRANCH  21  22
HETATM   22  S   UNL     1      -9.773   6.616  68.682  1.00  0.00    -0.130 SA 
BRANCH  22  23
HETATM   23  C   UNL     1      -7.975   6.877  68.480  1.00  0.00    -0.120 C  
BRANCH  23  24
HETATM   24  C   UNL     1      -7.616   6.968  67.018  1.00  0.00    -0.102 A  
HETATM   25  C   UNL     1      -6.941   8.098  66.527  1.00  0.00    -0.068 A  
HETATM   26  C   UNL     1      -6.682   8.232  65.163  1.00  0.00    -0.055 A  
HETATM   27  C   UNL     1      -7.087   7.238  64.275  1.00  0.00    -0.063 A  
HETATM   28  C   UNL     1      -7.737   6.101  64.753  1.00  0.00    -0.099 A  
HETATM   29  C   UNL     1      -8.000   5.965  66.117  1.00  0.00    -0.106 A  
ENDBRANCH  23  24
ENDBRANCH  22  23
ENDBRANCH  21  22
ENDBRANCH  13  21
ENDBRANCH   2   7
TORSDOF 5
ENDMDL
MODEL      121
REMARK 921   NORMALIZED FREE ENERGY PREDICTED BY IDOCK:   -4.75 KCAL/MOL
REMARK 922        TOTAL FREE ENERGY PREDICTED BY IDOCK:   -6.79 KCAL/MOL
REMARK 923 INTER-LIGAND FREE ENERGY PREDICTED BY IDOCK:   -6.56 KCAL/MOL
REMARK 924 INTRA-LIGAND FREE ENERGY PREDICTED BY IDOCK:   -0.22 KCAL/MOL
REMARK 927      BINDING AFFINITY PREDICTED BY RF-SCORE:    0.00 PKD
ROOT
HETATM    1  N   UNL     1      -8.553   2.566  73.341  1.00  0.00    -0.067 N  
HETATM    2  S   UNL     1     -10.190   2.879  73.148  1.00  0.00    -0.149 S  
HETATM    3  H1  UNL     1      -8.168   3.431  73.722  1.00  0.00     0.000 HD 
HETATM    4  H2  UNL     1      -8.053   1.704  73.127  1.00  0.00     0.000 HD 
HETATM    5  O   UNL     1     -10.734   1.654  72.608  1.00  0.00    -0.154 OA 
HETATM    6  O   UNL     1     -10.672   3.449  74.380  1.00  0.00    -0.194 OA 
ENDROOT
BRANCH   2   7
HETATM    7  C   UNL     1     -10.224   4.111  71.885  1.00  0.00    -0.110 A  
HETATM    8  C   UNL     1     -10.646   5.399  72.231  1.00  0.00    -0.280 A  
HETATM    9  C   UNL     1     -10.662   6.401  71.255  1.00  0.00    -0.241 A  
HETATM   10  C   UNL     1     -10.265   6.172  69.945  1.00  0.00    -0.192 A  
HETATM   11  N   UNL     1     -10.288   7.124  68.916  1.00  0.00    -0.191 NA 
HETATM   12  C   UNL     1      -9.838   4.877  69.622  1.00  0.00    -0.288 A  
HETATM   13  C   UNL     1     -10.536   8.374  69.129  1.00  0.00    -0.206 C  
HETATM   14  C   UNL     1      -9.812   3.847  70.578  1.00  0.00    -0.110 A  
HETATM   15  N   UNL     1     -10.787   8.917  70.393  1.00  0.00    -0.230 N  
HETATM   16  O   UNL     1     -12.616   7.997  71.811  1.00  0.00    -0.306 OA 
HETATM   17 CL   UNL     1      -9.272   2.297  70.038  1.00  0.00    -0.178 Cl 
HETATM   18  S   UNL     1     -11.176   8.001  71.707  1.00  0.00    -0.283 S  
HETATM   19  H   UNL     1     -10.727   9.929  70.508  1.00  0.00     0.000 HD 
HETATM   20  O   UNL     1     -10.334   8.451  72.792  1.00  0.00    -0.297 OA 
BRANCH  13  21
HETATM   21  C   UNL     1     -10.581   9.364  67.982  1.00  0.00    -0.226 C  
BRANCH  21  22
HETATM   22  S   UNL     1     -10.127  11.042  68.532  1.00  0.00    -0.197 SA 
BRANCH  22  23
HETATM   23  C   UNL     1     -11.603  12.000  68.037  1.00  0.00    -0.342 C  
BRANCH  23  24
HETATM   24  C   UNL     1     -11.682  13.289  68.815  1.00  0.00    -0.366 A  
HETATM   25  C   UNL     1     -11.921  13.264  70.199  1.00  0.00    -0.388 A  
HETATM   26  C   UNL     1     -12.082  14.451  70.912  1.00  0.00    -0.414 A  
HETATM   27  C   UNL     1     -12.000  15.677  70.254  1.00  0.00    -0.398 A  
HETATM   28  C   UNL     1     -11.740  15.716  68.885  1.00  0.00    -0.396 A  
HETATM   29  C   UNL     1     -11.582  14.529  68.168  1.00  0.00    -0.359 A  
ENDBRANCH  23  24
ENDBRANCH  22  23
ENDBRANCH  21  22
ENDBRANCH  13  21
ENDBRANCH   2   7
TORSDOF 5
ENDMDL
MODEL      122
REMARK 921   NORMALIZED FREE ENERGY PREDICTED BY IDOCK:   -4.72 KCAL/MOL
REMARK 922        TOTAL FREE ENERGY PREDICTED BY IDOCK:   -6.75 KCAL/MOL
REMARK 923 INTER-LIGAND FREE ENERGY PREDICTED BY IDOCK:   -7.38 KCAL/MOL
REMARK 924 INTRA-LIGAND FREE ENERGY PREDICTED BY IDOCK:    0.63 KCAL/MOL
REMARK 927      BINDING AFFINITY PREDICTED BY RF-SCORE:    0.00 PKD
ROOT
HETATM    1  N   UNL     1      -8.053   2.326  72.354  1.00  0.00    -0.053 N  
HETATM    2  S   UNL     1      -9.629   2.289  71.781  1.00  0.00    -0.145 S  
HETATM    3  H1  UNL     1      -8.139   2.618  73.328  1.00  0.00     0.000 HD 
HETATM    4  H2  UNL     1      -7.198   2.104  71.844  1.00  0.00     0.000 HD 
HETATM    5  O   UNL     1      -9.506   1.874  70.402  1.00  0.00    -0.111 OA 
HETATM    6  O   UNL     1     -10.420   1.549  72.731  1.00  0.00    -0.121 OA 
ENDROOT
BRANCH   2   7
HETATM    7  C   UNL     1     -10.115   3.985  71.815  1.00  0.00    -0.129 A  
HETATM    8  C   UNL     1     -10.115   4.696  70.610  1.00  0.00    -0.261 A  
HETATM    9  C   UNL     1     -10.518   6.035  70.603  1.00  0.00    -0.246 A  
HETATM   10  C   UNL     1     -10.928   6.695  71.753  1.00  0.00    -0.240 A  
HETATM   11  N   UNL     1     -11.312   8.043  71.817  1.00  0.00    -0.258 NA 
HETATM   12  C   UNL     1     -10.927   5.963  72.948  1.00  0.00    -0.303 A  
HETATM   13  C   UNL     1     -11.476   8.771  70.763  1.00  0.00    -0.270 C  
HETATM   14  C   UNL     1     -10.527   4.617  72.989  1.00  0.00    -0.198 A  
HETATM   15  N   UNL     1     -11.310   8.303  69.455  1.00  0.00    -0.413 N  
HETATM   16  O   UNL     1      -9.164   7.245  68.766  1.00  0.00    -0.138 OA 
HETATM   17 CL   UNL     1     -10.567   3.840  74.532  1.00  0.00    -0.246 Cl 
HETATM   18  S   UNL     1     -10.527   6.899  69.092  1.00  0.00    -0.217 S  
HETATM   19  H   UNL     1     -11.692   8.857  68.689  1.00  0.00     0.000 HD 
HETATM   20  O   UNL     1     -11.373   6.176  68.170  1.00  0.00    -0.234 OA 
BRANCH  13  21
HETATM   21  C   UNL     1     -11.862  10.233  70.879  1.00  0.00    -0.377 C  
BRANCH  21  22
HETATM   22  S   UNL     1     -12.136  10.982  69.240  1.00  0.00    -0.193 SA 
BRANCH  22  23
HETATM   23  C   UNL     1     -11.464  12.664  69.492  1.00  0.00    -0.225 C  
BRANCH  23  24
HETATM   24  C   UNL     1     -12.313  13.431  70.474  1.00  0.00    -0.401 A  
HETATM   25  C   UNL     1     -12.958  12.757  71.525  1.00  0.00    -0.388 A  
HETATM   26  C   UNL     1     -13.814  13.443  72.386  1.00  0.00    -0.665 A  
HETATM   27  C   UNL     1     -14.032  14.808  72.212  1.00  0.00    -0.598 A  
HETATM   28  C   UNL     1     -13.379  15.492  71.188  1.00  0.00    -0.553 A  
HETATM   29  C   UNL     1     -12.524  14.809  70.323  1.00  0.00    -0.393 A  
ENDBRANCH  23  24
ENDBRANCH  22  23
ENDBRANCH  21  22
ENDBRANCH  13  21
ENDBRANCH   2   7
TORSDOF 5
ENDMDL
MODEL      123
REMARK 921   NORMALIZED FREE ENERGY PREDICTED BY IDOCK:   -4.72 KCAL/MOL
REMARK 922        TOTAL FREE ENERGY PREDICTED BY IDOCK:   -6.74 KCAL/MOL
REMARK 923 INTER-LIGAND FREE ENERGY PREDICTED BY IDOCK:   -6.14 KCAL/MOL
REMARK 924 INTRA-LIGAND FREE ENERGY PREDICTED BY IDOCK:   -0.60 KCAL/MOL
REMARK 927      BINDING AFFINITY PREDICTED BY RF-SCORE:    0.00 PKD
ROOT
HETATM    1  N   UNL     1     -12.980  13.887  72.738  1.00  0.00    -0.383 N  
HETATM    2  S   UNL     1     -13.271  13.898  71.087  1.00  0.00    -0.184 S  
HETATM    3  H1  UNL     1     -12.895  14.871  72.992  1.00  0.00     0.000 HD 
HETATM    4  H2  UNL     1     -12.904  13.077  73.353  1.00  0.00     0.000 HD 
HETATM    5  O   UNL     1     -13.392  12.503  70.728  1.00  0.00     0.277 OA 
HETATM    6  O   UNL     1     -14.331  14.843  70.839  1.00  0.00    -0.173 OA 
ENDROOT
BRANCH   2   7
HETATM    7  C   UNL     1     -11.766  14.523  70.410  1.00  0.00    -0.290 A  
HETATM    8  C   UNL     1     -11.200  13.847  69.324  1.00  0.00    -0.296 A  
HETATM    9  C   UNL     1     -10.019  14.333  68.753  1.00  0.00    -0.205 A  
HETATM   10  C   UNL     1      -9.382  15.474  69.218  1.00  0.00    -0.266 A  
HETATM   11  N   UNL     1      -8.182  15.992  68.711  1.00  0.00    -0.196 NA 
HETATM   12  C   UNL     1      -9.969  16.140  70.303  1.00  0.00     0.478 A  
HETATM   13  C   UNL     1      -7.626  15.539  67.636  1.00  0.00    -0.161 C  
HETATM   14  C   UNL     1     -11.154  15.678  70.900  1.00  0.00    -0.338 A  
HETATM   15  N   UNL     1      -8.159  14.507  66.857  1.00  0.00    -0.377 N  
HETATM   16  O   UNL     1      -8.681  12.300  67.886  1.00  0.00    -0.160 OA 
HETATM   17 CL   UNL     1     -11.762  16.592  72.234  1.00  0.00    -0.503 Cl 
HETATM   18  S   UNL     1      -9.338  13.487  67.393  1.00  0.00    -0.238 S  
HETATM   19  H   UNL     1      -7.800  14.379  65.911  1.00  0.00     0.000 HD 
HETATM   20  O   UNL     1     -10.341  13.429  66.355  1.00  0.00    -0.277 OA 
BRANCH  13  21
HETATM   21  C   UNL     1      -6.312  16.109  67.140  1.00  0.00    -0.125 C  
BRANCH  21  22
HETATM   22  S   UNL     1      -6.580  17.514  66.010  1.00  0.00    -0.138 SA 
BRANCH  22  23
HETATM   23  C   UNL     1      -6.809  18.892  67.191  1.00  0.00    -0.202 C  
BRANCH  23  24
HETATM   24  C   UNL     1      -8.272  19.230  67.329  1.00  0.00    -0.304 A  
HETATM   25  C   UNL     1      -8.872  19.259  68.599  1.00  0.00    -0.415 A  
HETATM   26  C   UNL     1     -10.242  19.486  68.730  1.00  0.00    -0.442 A  
HETATM   27  C   UNL     1     -11.026  19.693  67.597  1.00  0.00    -0.290 A  
HETATM   28  C   UNL     1     -10.438  19.691  66.333  1.00  0.00    -0.618 A  
HETATM   29  C   UNL     1      -9.068  19.461  66.199  1.00  0.00    -0.314 A  
ENDBRANCH  23  24
ENDBRANCH  22  23
ENDBRANCH  21  22
ENDBRANCH  13  21
ENDBRANCH   2   7
TORSDOF 5
ENDMDL
MODEL      124
REMARK 921   NORMALIZED FREE ENERGY PREDICTED BY IDOCK:   -4.71 KCAL/MOL
REMARK 922        TOTAL FREE ENERGY PREDICTED BY IDOCK:   -6.74 KCAL/MOL
REMARK 923 INTER-LIGAND FREE ENERGY PREDICTED BY IDOCK:   -6.95 KCAL/MOL
REMARK 924 INTRA-LIGAND FREE ENERGY PREDICTED BY IDOCK:    0.21 KCAL/MOL
REMARK 927      BINDING AFFINITY PREDICTED BY RF-SCORE:    0.00 PKD
ROOT
HETATM    1  N   UNL     1      -9.243  10.864  62.415  1.00  0.00    -0.472 N  
HETATM    2  S   UNL     1      -8.389   9.752  63.337  1.00  0.00    -0.185 S  
HETATM    3  H1  UNL     1      -9.060  11.763  62.860  1.00  0.00     0.000 HD 
HETATM    4  H2  UNL     1      -9.818  10.681  61.593  1.00  0.00     0.000 HD 
HETATM    5  O   UNL     1      -8.649   8.478  62.707  1.00  0.00    -0.158 OA 
HETATM    6  O   UNL     1      -7.051  10.261  63.502  1.00  0.00    -0.132 OA 
ENDROOT
BRANCH   2   7
HETATM    7  C   UNL     1      -9.220   9.788  64.893  1.00  0.00    -0.257 A  
HETATM    8  C   UNL     1      -9.180   8.638  65.689  1.00  0.00    -0.204 A  
HETATM    9  C   UNL     1      -9.811   8.645  66.937  1.00  0.00    -0.238 A  
HETATM   10  C   UNL     1     -10.477   9.758  67.429  1.00  0.00    -0.259 A  
HETATM   11  N   UNL     1     -11.155   9.818  68.655  1.00  0.00    -0.147 NA 
HETATM   12  C   UNL     1     -10.500  10.902  66.619  1.00  0.00    -0.307 A  
HETATM   13  C   UNL     1     -11.089   8.874  69.534  1.00  0.00    -0.001 C  
HETATM   14  C   UNL     1      -9.878  10.928  65.359  1.00  0.00    -0.255 A  
HETATM   15  N   UNL     1     -10.331   7.710  69.375  1.00  0.00    -0.211 N  
HETATM   16  O   UNL     1     -10.674   6.252  67.386  1.00  0.00    -0.249 OA 
HETATM   17 CL   UNL     1      -9.992  12.401  64.464  1.00  0.00    -0.239 Cl 
HETATM   18  S   UNL     1      -9.737   7.211  67.920  1.00  0.00    -0.141 S  
HETATM   19  H   UNL     1     -10.135   7.141  70.199  1.00  0.00     0.000 HD 
HETATM   20  O   UNL     1      -8.345   6.883  68.129  1.00  0.00    -0.117 OA 
BRANCH  13  21
HETATM   21  C   UNL     1     -11.863   8.966  70.835  1.00  0.00    -0.240 C  
BRANCH  21  22
HETATM   22  S   UNL     1     -13.191  10.211  70.733  1.00  0.00    -0.073 SA 
BRANCH  22  23
HETATM   23  C   UNL     1     -12.721  11.355  72.080  1.00  0.00    -0.014 C  
BRANCH  23  24
HETATM   24  C   UNL     1     -12.956  12.785  71.664  1.00  0.00    -0.402 A  
HETATM   25  C   UNL     1     -12.219  13.342  70.605  1.00  0.00    -0.417 A  
HETATM   26  C   UNL     1     -12.367  14.687  70.269  1.00  0.00    -0.406 A  
HETATM   27  C   UNL     1     -13.256  15.490  70.982  1.00  0.00    -0.539 A  
HETATM   28  C   UNL     1     -14.010  14.944  72.019  1.00  0.00    -0.591 A  
HETATM   29  C   UNL     1     -13.862  13.598  72.359  1.00  0.00    -0.691 A  
ENDBRANCH  23  24
ENDBRANCH  22  23
ENDBRANCH  21  22
ENDBRANCH  13  21
ENDBRANCH   2   7
TORSDOF 5
ENDMDL
MODEL      125
REMARK 921   NORMALIZED FREE ENERGY PREDICTED BY IDOCK:   -4.71 KCAL/MOL
REMARK 922        TOTAL FREE ENERGY PREDICTED BY IDOCK:   -6.74 KCAL/MOL
REMARK 923 INTER-LIGAND FREE ENERGY PREDICTED BY IDOCK:   -6.34 KCAL/MOL
REMARK 924 INTRA-LIGAND FREE ENERGY PREDICTED BY IDOCK:   -0.40 KCAL/MOL
REMARK 927      BINDING AFFINITY PREDICTED BY RF-SCORE:    0.00 PKD
ROOT
HETATM    1  N   UNL     1     -11.641  15.794  71.663  1.00  0.00    -0.425 N  
HETATM    2  S   UNL     1     -12.493  15.260  70.320  1.00  0.00    -0.339 S  
HETATM    3  H1  UNL     1     -10.665  15.589  71.448  1.00  0.00     0.000 HD 
HETATM    4  H2  UNL     1     -12.014  16.228  72.507  1.00  0.00     0.000 HD 
HETATM    5  O   UNL     1     -13.875  15.552  70.625  1.00  0.00    -0.361 OA 
HETATM    6  O   UNL     1     -11.841  15.795  69.151  1.00  0.00    -0.381 OA 
ENDROOT
BRANCH   2   7
HETATM    7  C   UNL     1     -12.267  13.511  70.362  1.00  0.00    -0.356 A  
HETATM    8  C   UNL     1     -11.415  12.933  69.414  1.00  0.00    -0.323 A  
HETATM    9  C   UNL     1     -11.199  11.551  69.438  1.00  0.00    -0.259 A  
HETATM   10  C   UNL     1     -11.796  10.720  70.375  1.00  0.00    -0.358 A  
HETATM   11  N   UNL     1     -11.646   9.327  70.431  1.00  0.00    -0.222 NA 
HETATM   12  C   UNL     1     -12.640  11.320  71.320  1.00  0.00    -0.487 A  
HETATM   13  C   UNL     1     -10.794   8.688  69.699  1.00  0.00    -0.157 C  
HETATM   14  C   UNL     1     -12.879  12.705  71.323  1.00  0.00    -0.250 A  
HETATM   15  N   UNL     1      -9.925   9.304  68.793  1.00  0.00    -0.175 N  
HETATM   16  O   UNL     1     -10.824  10.781  67.001  1.00  0.00    -0.265 OA 
HETATM   17 CL   UNL     1     -13.948  13.308  72.538  1.00  0.00    -0.602 Cl 
HETATM   18  S   UNL     1     -10.124  10.852  68.261  1.00  0.00    -0.181 S  
HETATM   19  H   UNL     1      -9.130   8.770  68.443  1.00  0.00     0.000 HD 
HETATM   20  O   UNL     1      -8.841  11.503  68.386  1.00  0.00    -0.157 OA 
BRANCH  13  21
HETATM   21  C   UNL     1     -10.687   7.177  69.769  1.00  0.00    -0.239 C  
BRANCH  21  22
HETATM   22  S   UNL     1      -9.258   6.658  70.776  1.00  0.00    -0.154 SA 
BRANCH  22  23
HETATM   23  C   UNL     1      -8.541   5.337  69.735  1.00  0.00    -0.098 C  
BRANCH  23  24
HETATM   24  C   UNL     1      -8.021   5.908  68.440  1.00  0.00    -0.105 A  
HETATM   25  C   UNL     1      -7.180   7.033  68.453  1.00  0.00    -0.088 A  
HETATM   26  C   UNL     1      -6.764   7.621  67.259  1.00  0.00    -0.068 A  
HETATM   27  C   UNL     1      -7.178   7.090  66.039  1.00  0.00    -0.074 A  
HETATM   28  C   UNL     1      -7.994   5.961  66.012  1.00  0.00    -0.108 A  
HETATM   29  C   UNL     1      -8.414   5.371  67.206  1.00  0.00    -0.106 A  
ENDBRANCH  23  24
ENDBRANCH  22  23
ENDBRANCH  21  22
ENDBRANCH  13  21
ENDBRANCH   2   7
TORSDOF 5
ENDMDL
MODEL      126
REMARK 921   NORMALIZED FREE ENERGY PREDICTED BY IDOCK:   -4.70 KCAL/MOL
REMARK 922        TOTAL FREE ENERGY PREDICTED BY IDOCK:   -6.72 KCAL/MOL
REMARK 923 INTER-LIGAND FREE ENERGY PREDICTED BY IDOCK:   -6.40 KCAL/MOL
REMARK 924 INTRA-LIGAND FREE ENERGY PREDICTED BY IDOCK:   -0.31 KCAL/MOL
REMARK 927      BINDING AFFINITY PREDICTED BY RF-SCORE:    0.00 PKD
ROOT
HETATM    1  N   UNL     1      -8.317   2.938  72.905  1.00  0.00    -0.074 N  
HETATM    2  S   UNL     1      -9.765   2.943  72.059  1.00  0.00    -0.166 S  
HETATM    3  H1  UNL     1      -8.547   3.336  73.815  1.00  0.00     0.000 HD 
HETATM    4  H2  UNL     1      -7.407   2.610  72.581  1.00  0.00     0.000 HD 
HETATM    5  O   UNL     1      -9.438   2.378  70.770  1.00  0.00    -0.135 OA 
HETATM    6  O   UNL     1     -10.769   2.360  72.913  1.00  0.00    -0.159 OA 
ENDROOT
BRANCH   2   7
HETATM    7  C   UNL     1     -10.109   4.661  71.848  1.00  0.00    -0.198 A  
HETATM    8  C   UNL     1     -10.060   5.189  70.553  1.00  0.00    -0.326 A  
HETATM    9  C   UNL     1     -10.350   6.543  70.353  1.00  0.00    -0.198 A  
HETATM   10  C   UNL     1     -10.695   7.393  71.394  1.00  0.00    -0.219 A  
HETATM   11  N   UNL     1     -10.965   8.762  71.263  1.00  0.00    -0.254 NA 
HETATM   12  C   UNL     1     -10.745   6.842  72.682  1.00  0.00    -0.271 A  
HETATM   13  C   UNL     1     -11.076   9.344  70.115  1.00  0.00    -0.242 C  
HETATM   14  C   UNL     1     -10.458   5.486  72.918  1.00  0.00    -0.214 A  
HETATM   15  N   UNL     1     -10.961   8.681  68.889  1.00  0.00    -0.438 N  
HETATM   16  O   UNL     1      -8.915   7.360  68.366  1.00  0.00    -0.135 OA 
HETATM   17 CL   UNL     1     -10.549   4.944  74.556  1.00  0.00    -0.287 Cl 
HETATM   18  S   UNL     1     -10.299   7.179  68.734  1.00  0.00    -0.196 S  
HETATM   19  H   UNL     1     -11.301   9.150  68.049  1.00  0.00     0.000 HD 
HETATM   20  O   UNL     1     -11.210   6.405  67.921  1.00  0.00    -0.319 OA 
BRANCH  13  21
HETATM   21  C   UNL     1     -11.338  10.834  70.019  1.00  0.00    -0.319 C  
BRANCH  21  22
HETATM   22  S   UNL     1     -11.951  11.298  68.366  1.00  0.00    -0.047 SA 
BRANCH  22  23
HETATM   23  C   UNL     1     -10.506  12.182  67.678  1.00  0.00    -0.206 C  
BRANCH  23  24
HETATM   24  C   UNL     1     -10.508  12.105  66.172  1.00  0.00    -0.281 A  
HETATM   25  C   UNL     1     -11.673  12.414  65.451  1.00  0.00    -0.452 A  
HETATM   26  C   UNL     1     -11.711  12.263  64.066  1.00  0.00    -0.506 A  
HETATM   27  C   UNL     1     -10.585  11.807  63.383  1.00  0.00    -0.479 A  
HETATM   28  C   UNL     1      -9.415  11.518  64.083  1.00  0.00    -0.110 A  
HETATM   29  C   UNL     1      -9.375  11.666  65.471  1.00  0.00    -0.172 A  
ENDBRANCH  23  24
ENDBRANCH  22  23
ENDBRANCH  21  22
ENDBRANCH  13  21
ENDBRANCH   2   7
TORSDOF 5
ENDMDL
MODEL      127
REMARK 921   NORMALIZED FREE ENERGY PREDICTED BY IDOCK:   -4.69 KCAL/MOL
REMARK 922        TOTAL FREE ENERGY PREDICTED BY IDOCK:   -6.71 KCAL/MOL
REMARK 923 INTER-LIGAND FREE ENERGY PREDICTED BY IDOCK:   -6.62 KCAL/MOL
REMARK 924 INTRA-LIGAND FREE ENERGY PREDICTED BY IDOCK:   -0.10 KCAL/MOL
REMARK 927      BINDING AFFINITY PREDICTED BY RF-SCORE:    0.00 PKD
ROOT
HETATM    1  N   UNL     1     -10.112   3.906  67.185  1.00  0.00    -0.187 N  
HETATM    2  S   UNL     1      -9.257   4.660  68.416  1.00  0.00    -0.136 S  
HETATM    3  H1  UNL     1      -9.710   4.280  66.325  1.00  0.00     0.000 HD 
HETATM    4  H2  UNL     1     -10.864   3.224  67.275  1.00  0.00     0.000 HD 
HETATM    5  O   UNL     1      -9.826   4.128  69.634  1.00  0.00    -0.217 OA 
HETATM    6  O   UNL     1      -7.854   4.533  68.112  1.00  0.00    -0.080 OA 
ENDROOT
BRANCH   2   7
HETATM    7  C   UNL     1      -9.734   6.352  68.267  1.00  0.00    -0.127 A  
HETATM    8  C   UNL     1     -10.126   7.031  69.425  1.00  0.00    -0.175 A  
HETATM    9  C   UNL     1     -10.487   8.380  69.341  1.00  0.00    -0.217 A  
HETATM   10  C   UNL     1     -10.467   9.083  68.145  1.00  0.00    -0.207 A  
HETATM   11  N   UNL     1     -10.847  10.424  67.989  1.00  0.00    -0.249 NA 
HETATM   12  C   UNL     1     -10.064   8.385  66.997  1.00  0.00    -0.354 A  
HETATM   13  C   UNL     1     -11.108  11.195  68.992  1.00  0.00    -0.242 C  
HETATM   14  C   UNL     1      -9.697   7.030  67.048  1.00  0.00    -0.167 A  
HETATM   15  N   UNL     1     -11.023  10.793  70.329  1.00  0.00    -0.463 N  
HETATM   16  O   UNL     1     -12.303   8.812  71.126  1.00  0.00    -0.288 OA 
HETATM   17 CL   UNL     1      -9.230   6.294  65.556  1.00  0.00     0.070 Cl 
HETATM   18  S   UNL     1     -10.957   9.213  70.795  1.00  0.00    -0.294 S  
HETATM   19  H   UNL     1     -11.001  11.513  71.052  1.00  0.00     0.000 HD 
HETATM   20  O   UNL     1      -9.873   9.103  71.743  1.00  0.00    -0.299 OA 
BRANCH  13  21
HETATM   21  C   UNL     1     -11.545  12.630  68.778  1.00  0.00    -0.313 C  
BRANCH  21  22
HETATM   22  S   UNL     1     -10.153  13.679  68.244  1.00  0.00    -0.241 SA 
BRANCH  22  23
HETATM   23  C   UNL     1     -10.907  14.611  66.864  1.00  0.00    -0.305 C  
BRANCH  23  24
HETATM   24  C   UNL     1     -10.611  16.083  66.997  1.00  0.00    -0.302 A  
HETATM   25  C   UNL     1     -10.478  16.663  68.269  1.00  0.00    -0.321 A  
HETATM   26  C   UNL     1     -10.291  18.039  68.405  1.00  0.00    -0.377 A  
HETATM   27  C   UNL     1     -10.229  18.849  67.273  1.00  0.00    -0.454 A  
HETATM   28  C   UNL     1     -10.336  18.283  66.005  1.00  0.00    -0.377 A  
HETATM   29  C   UNL     1     -10.526  16.907  65.865  1.00  0.00    -0.294 A  
ENDBRANCH  23  24
ENDBRANCH  22  23
ENDBRANCH  21  22
ENDBRANCH  13  21
ENDBRANCH   2   7
TORSDOF 5
ENDMDL
MODEL      128
REMARK 921   NORMALIZED FREE ENERGY PREDICTED BY IDOCK:   -4.68 KCAL/MOL
REMARK 922        TOTAL FREE ENERGY PREDICTED BY IDOCK:   -6.70 KCAL/MOL
REMARK 923 INTER-LIGAND FREE ENERGY PREDICTED BY IDOCK:   -6.81 KCAL/MOL
REMARK 924 INTRA-LIGAND FREE ENERGY PREDICTED BY IDOCK:    0.11 KCAL/MOL
REMARK 927      BINDING AFFINITY PREDICTED BY RF-SCORE:    0.00 PKD
ROOT
HETATM    1  N   UNL     1     -11.793   5.820  72.526  1.00  0.00    -0.443 N  
HETATM    2  S   UNL     1     -10.287   6.475  72.869  1.00  0.00    -0.224 S  
HETATM    3  H1  UNL     1     -11.720   5.497  71.562  1.00  0.00     0.000 HD 
HETATM    4  H2  UNL     1     -12.601   5.759  73.145  1.00  0.00     0.000 HD 
HETATM    5  O   UNL     1     -10.390   6.932  74.236  1.00  0.00    -0.346 OA 
HETATM    6  O   UNL     1      -9.292   5.515  72.461  1.00  0.00    -0.143 OA 
ENDROOT
BRANCH   2   7
HETATM    7  C   UNL     1     -10.203   7.885  71.811  1.00  0.00    -0.196 A  
HETATM    8  C   UNL     1     -11.311   8.737  71.759  1.00  0.00    -0.409 A  
HETATM    9  C   UNL     1     -11.264   9.875  70.946  1.00  0.00    -0.360 A  
HETATM   10  C   UNL     1     -10.151  10.201  70.186  1.00  0.00    -0.141 A  
HETATM   11  N   UNL     1     -10.054  11.307  69.329  1.00  0.00    -0.069 NA 
HETATM   12  C   UNL     1      -9.049   9.337  70.257  1.00  0.00    -0.271 A  
HETATM   13  C   UNL     1     -10.952  12.235  69.284  1.00  0.00    -0.097 C  
HETATM   14  C   UNL     1      -9.064   8.186  71.063  1.00  0.00    -0.152 A  
HETATM   15  N   UNL     1     -12.097  12.253  70.087  1.00  0.00    -0.321 N  
HETATM   16  O   UNL     1     -13.660  10.314  70.086  1.00  0.00     0.185 OA 
HETATM   17 CL   UNL     1      -7.641   7.207  71.049  1.00  0.00    -0.084 Cl 
HETATM   18  S   UNL     1     -12.646  10.932  70.907  1.00  0.00    -0.404 S  
HETATM   19  H   UNL     1     -12.618  13.126  70.170  1.00  0.00     0.000 HD 
HETATM   20  O   UNL     1     -12.917  11.364  72.259  1.00  0.00    -0.286 OA 
BRANCH  13  21
HETATM   21  C   UNL     1     -10.822  13.397  68.320  1.00  0.00    -0.256 C  
BRANCH  21  22
HETATM   22  S   UNL     1     -10.967  14.997  69.183  1.00  0.00    -0.275 SA 
BRANCH  22  23
HETATM   23  C   UNL     1      -9.272  15.661  69.004  1.00  0.00    -0.243 C  
BRANCH  23  24
HETATM   24  C   UNL     1      -9.310  17.063  68.451  1.00  0.00    -0.266 A  
HETATM   25  C   UNL     1      -8.149  17.853  68.451  1.00  0.00    -0.302 A  
HETATM   26  C   UNL     1      -8.193  19.179  68.022  1.00  0.00    -0.339 A  
HETATM   27  C   UNL     1      -9.396  19.730  67.582  1.00  0.00    -0.445 A  
HETATM   28  C   UNL     1     -10.550  18.950  67.555  1.00  0.00    -0.524 A  
HETATM   29  C   UNL     1     -10.509  17.623  67.986  1.00  0.00    -0.395 A  
ENDBRANCH  23  24
ENDBRANCH  22  23
ENDBRANCH  21  22
ENDBRANCH  13  21
ENDBRANCH   2   7
TORSDOF 5
ENDMDL
MODEL      129
REMARK 921   NORMALIZED FREE ENERGY PREDICTED BY IDOCK:   -4.66 KCAL/MOL
REMARK 922        TOTAL FREE ENERGY PREDICTED BY IDOCK:   -6.68 KCAL/MOL
REMARK 923 INTER-LIGAND FREE ENERGY PREDICTED BY IDOCK:   -6.49 KCAL/MOL
REMARK 924 INTRA-LIGAND FREE ENERGY PREDICTED BY IDOCK:   -0.18 KCAL/MOL
REMARK 927      BINDING AFFINITY PREDICTED BY RF-SCORE:    0.00 PKD
ROOT
HETATM    1  N   UNL     1      -8.153   5.470  70.337  1.00  0.00    -0.101 N  
HETATM    2  S   UNL     1      -9.770   5.426  69.895  1.00  0.00    -0.203 S  
HETATM    3  H1  UNL     1      -8.156   5.823  71.294  1.00  0.00     0.000 HD 
HETATM    4  H2  UNL     1      -7.345   5.203  69.774  1.00  0.00     0.000 HD 
HETATM    5  O   UNL     1      -9.765   4.926  68.539  1.00  0.00    -0.143 OA 
HETATM    6  O   UNL     1     -10.491   4.759  70.949  1.00  0.00    -0.163 OA 
ENDROOT
BRANCH   2   7
HETATM    7  C   UNL     1     -10.231   7.129  69.862  1.00  0.00    -0.207 A  
HETATM    8  C   UNL     1     -11.294   7.541  70.674  1.00  0.00    -0.301 A  
HETATM    9  C   UNL     1     -11.666   8.889  70.686  1.00  0.00    -0.179 A  
HETATM   10  C   UNL     1     -11.016   9.848  69.923  1.00  0.00    -0.281 A  
HETATM   11  N   UNL     1     -11.361  11.206  69.866  1.00  0.00    -0.279 NA 
HETATM   12  C   UNL     1      -9.950   9.416  69.121  1.00  0.00    -0.184 A  
HETATM   13  C   UNL     1     -12.236  11.736  70.656  1.00  0.00    -0.349 C  
HETATM   14  C   UNL     1      -9.551   8.069  69.085  1.00  0.00    -0.156 A  
HETATM   15  N   UNL     1     -12.914  11.031  71.656  1.00  0.00    -0.466 N  
HETATM   16  O   UNL     1     -14.217   8.987  71.085  1.00  0.00    -0.220 OA 
HETATM   17 CL   UNL     1      -8.228   7.675  68.047  1.00  0.00    -0.123 Cl 
HETATM   18  S   UNL     1     -12.980   9.385  71.714  1.00  0.00    -0.435 S  
HETATM   19  H   UNL     1     -13.392  11.562  72.384  1.00  0.00     0.000 HD 
HETATM   20  O   UNL     1     -12.655   9.003  73.069  1.00  0.00    -0.157 OA 
BRANCH  13  21
HETATM   21  C   UNL     1     -12.601  13.202  70.540  1.00  0.00    -0.165 C  
BRANCH  21  22
HETATM   22  S   UNL     1     -11.610  14.037  69.257  1.00  0.00    -0.329 SA 
BRANCH  22  23
HETATM   23  C   UNL     1     -11.465  15.723  69.949  1.00  0.00    -0.346 C  
BRANCH  23  24
HETATM   24  C   UNL     1     -10.275  16.436  69.358  1.00  0.00    -0.273 A  
HETATM   25  C   UNL     1      -9.028  15.792  69.294  1.00  0.00    -0.266 A  
HETATM   26  C   UNL     1      -7.902  16.471  68.830  1.00  0.00    -0.235 A  
HETATM   27  C   UNL     1      -8.010  17.799  68.418  1.00  0.00    -0.293 A  
HETATM   28  C   UNL     1      -9.246  18.441  68.455  1.00  0.00    -0.341 A  
HETATM   29  C   UNL     1     -10.374  17.764  68.922  1.00  0.00    -0.300 A  
ENDBRANCH  23  24
ENDBRANCH  22  23
ENDBRANCH  21  22
ENDBRANCH  13  21
ENDBRANCH   2   7
TORSDOF 5
ENDMDL
MODEL      130
REMARK 921   NORMALIZED FREE ENERGY PREDICTED BY IDOCK:   -4.65 KCAL/MOL
REMARK 922        TOTAL FREE ENERGY PREDICTED BY IDOCK:   -6.65 KCAL/MOL
REMARK 923 INTER-LIGAND FREE ENERGY PREDICTED BY IDOCK:   -6.54 KCAL/MOL
REMARK 924 INTRA-LIGAND FREE ENERGY PREDICTED BY IDOCK:   -0.11 KCAL/MOL
REMARK 927      BINDING AFFINITY PREDICTED BY RF-SCORE:    0.00 PKD
ROOT
HETATM    1  N   UNL     1     -10.521  14.972  67.164  1.00  0.00    -0.272 N  
HETATM    2  S   UNL     1     -11.203  13.675  66.349  1.00  0.00    -0.314 S  
HETATM    3  H1  UNL     1      -9.571  14.671  67.380  1.00  0.00     0.000 HD 
HETATM    4  H2  UNL     1     -10.958  15.865  67.392  1.00  0.00     0.000 HD 
HETATM    5  O   UNL     1     -12.549  14.103  66.042  1.00  0.00    -0.478 OA 
HETATM    6  O   UNL     1     -10.279  13.274  65.318  1.00  0.00    -0.303 OA 
ENDROOT
BRANCH   2   7
HETATM    7  C   UNL     1     -11.283  12.414  67.581  1.00  0.00    -0.288 A  
HETATM    8  C   UNL     1     -10.739  11.161  67.279  1.00  0.00    -0.304 A  
HETATM    9  C   UNL     1     -10.767  10.150  68.245  1.00  0.00    -0.238 A  
HETATM   10  C   UNL     1     -11.313  10.340  69.507  1.00  0.00    -0.241 A  
HETATM   11  N   UNL     1     -11.400   9.360  70.505  1.00  0.00    -0.265 NA 
HETATM   12  C   UNL     1     -11.846  11.605  69.791  1.00  0.00    -0.428 A  
HETATM   13  C   UNL     1     -10.827   8.207  70.401  1.00  0.00    -0.236 C  
HETATM   14  C   UNL     1     -11.835  12.642  68.842  1.00  0.00    -0.302 A  
HETATM   15  N   UNL     1     -10.050   7.816  69.306  1.00  0.00    -0.193 N  
HETATM   16  O   UNL     1     -10.996   7.896  67.004  1.00  0.00    -0.219 OA 
HETATM   17 CL   UNL     1     -12.535  14.146  69.324  1.00  0.00    -0.197 Cl 
HETATM   18  S   UNL     1     -10.071   8.603  67.857  1.00  0.00    -0.215 S  
HETATM   19  H   UNL     1      -9.439   7.005  69.409  1.00  0.00     0.000 HD 
HETATM   20  O   UNL     1      -8.693   8.815  67.478  1.00  0.00    -0.132 OA 
BRANCH  13  21
HETATM   21  C   UNL     1     -10.973   7.164  71.492  1.00  0.00    -0.235 C  
BRANCH  21  22
HETATM   22  S   UNL     1      -9.373   6.801  72.286  1.00  0.00    -0.137 SA 
BRANCH  22  23
HETATM   23  C   UNL     1      -8.897   5.246  71.452  1.00  0.00    -0.134 C  
BRANCH  23  24
HETATM   24  C   UNL     1      -9.618   4.074  72.070  1.00  0.00    -0.206 A  
HETATM   25  C   UNL     1     -10.243   4.209  73.320  1.00  0.00    -0.217 A  
HETATM   26  C   UNL     1     -10.838   3.110  73.938  1.00  0.00    -0.296 A  
HETATM   27  C   UNL     1     -10.819   1.864  73.313  1.00  0.00    -0.252 A  
HETATM   28  C   UNL     1     -10.223   1.722  72.062  1.00  0.00    -0.215 A  
HETATM   29  C   UNL     1      -9.624   2.820  71.442  1.00  0.00    -0.223 A  
ENDBRANCH  23  24
ENDBRANCH  22  23
ENDBRANCH  21  22
ENDBRANCH  13  21
ENDBRANCH   2   7
TORSDOF 5
ENDMDL
MODEL      131
REMARK 921   NORMALIZED FREE ENERGY PREDICTED BY IDOCK:   -4.64 KCAL/MOL
REMARK 922        TOTAL FREE ENERGY PREDICTED BY IDOCK:   -6.64 KCAL/MOL
REMARK 923 INTER-LIGAND FREE ENERGY PREDICTED BY IDOCK:   -6.47 KCAL/MOL
REMARK 924 INTRA-LIGAND FREE ENERGY PREDICTED BY IDOCK:   -0.18 KCAL/MOL
REMARK 927      BINDING AFFINITY PREDICTED BY RF-SCORE:    0.00 PKD
ROOT
HETATM    1  N   UNL     1     -10.741  16.921  67.110  1.00  0.00    -0.238 N  
HETATM    2  S   UNL     1     -10.050  16.065  65.843  1.00  0.00    -0.372 S  
HETATM    3  H1  UNL     1     -10.070  16.839  67.873  1.00  0.00     0.000 HD 
HETATM    4  H2  UNL     1     -11.633  17.415  67.115  1.00  0.00     0.000 HD 
HETATM    5  O   UNL     1     -11.001  16.182  64.761  1.00  0.00    -0.594 OA 
HETATM    6  O   UNL     1      -8.686  16.511  65.710  1.00  0.00    -0.460 OA 
ENDROOT
BRANCH   2   7
HETATM    7  C   UNL     1     -10.062  14.398  66.422  1.00  0.00    -0.286 A  
HETATM    8  C   UNL     1      -8.860  13.850  66.882  1.00  0.00    -0.210 A  
HETATM    9  C   UNL     1      -8.845  12.538  67.367  1.00  0.00    -0.187 A  
HETATM   10  C   UNL     1      -9.986  11.750  67.419  1.00  0.00    -0.184 A  
HETATM   11  N   UNL     1     -10.031  10.421  67.864  1.00  0.00    -0.163 NA 
HETATM   12  C   UNL     1     -11.182  12.321  66.960  1.00  0.00    -0.367 A  
HETATM   13  C   UNL     1      -9.023   9.842  68.428  1.00  0.00    -0.123 C  
HETATM   14  C   UNL     1     -11.231  13.635  66.465  1.00  0.00    -0.310 A  
HETATM   15  N   UNL     1      -7.798  10.469  68.674  1.00  0.00    -0.109 N  
HETATM   16  O   UNL     1      -6.535  11.528  66.807  1.00  0.00    -0.136 OA 
HETATM   17 CL   UNL     1     -12.769  14.207  65.924  1.00  0.00    -0.471 Cl 
HETATM   18  S   UNL     1      -7.344  11.879  67.949  1.00  0.00    -0.115 S  
HETATM   19  H   UNL     1      -7.153  10.033  69.333  1.00  0.00     0.000 HD 
HETATM   20  O   UNL     1      -6.852  12.745  68.996  1.00  0.00    -0.097 OA 
BRANCH  13  21
HETATM   21  C   UNL     1      -9.104   8.392  68.866  1.00  0.00    -0.147 C  
BRANCH  21  22
HETATM   22  S   UNL     1     -10.139   7.410  67.731  1.00  0.00    -0.198 SA 
BRANCH  22  23
HETATM   23  C   UNL     1     -11.330   6.649  68.891  1.00  0.00    -0.128 C  
BRANCH  23  24
HETATM   24  C   UNL     1     -10.645   5.612  69.746  1.00  0.00    -0.400 A  
HETATM   25  C   UNL     1      -9.836   4.630  69.151  1.00  0.00    -0.242 A  
HETATM   26  C   UNL     1      -9.268   3.616  69.922  1.00  0.00    -0.215 A  
HETATM   27  C   UNL     1      -9.497   3.574  71.296  1.00  0.00    -0.229 A  
HETATM   28  C   UNL     1     -10.279   4.556  71.902  1.00  0.00    -0.241 A  
HETATM   29  C   UNL     1     -10.850   5.571  71.132  1.00  0.00    -0.243 A  
ENDBRANCH  23  24
ENDBRANCH  22  23
ENDBRANCH  21  22
ENDBRANCH  13  21
ENDBRANCH   2   7
TORSDOF 5
ENDMDL
MODEL      132
REMARK 921   NORMALIZED FREE ENERGY PREDICTED BY IDOCK:   -4.64 KCAL/MOL
REMARK 922        TOTAL FREE ENERGY PREDICTED BY IDOCK:   -6.64 KCAL/MOL
REMARK 923 INTER-LIGAND FREE ENERGY PREDICTED BY IDOCK:   -6.35 KCAL/MOL
REMARK 924 INTRA-LIGAND FREE ENERGY PREDICTED BY IDOCK:   -0.29 KCAL/MOL
REMARK 927      BINDING AFFINITY PREDICTED BY RF-SCORE:    0.00 PKD
ROOT
HETATM    1  N   UNL     1     -10.378  15.153  70.280  1.00  0.00    -0.511 N  
HETATM    2  S   UNL     1     -11.818  14.763  69.512  1.00  0.00    -0.335 S  
HETATM    3  H1  UNL     1      -9.705  15.270  69.523  1.00  0.00     0.000 HD 
HETATM    4  H2  UNL     1     -10.212  15.253  71.281  1.00  0.00     0.000 HD 
HETATM    5  O   UNL     1     -12.771  14.599  70.586  1.00  0.00    -0.335 OA 
HETATM    6  O   UNL     1     -12.020  15.722  68.455  1.00  0.00    -0.314 OA 
ENDROOT
BRANCH   2   7
HETATM    7  C   UNL     1     -11.489  13.180  68.807  1.00  0.00    -0.307 A  
HETATM    8  C   UNL     1     -11.420  12.077  69.664  1.00  0.00    -0.322 A  
HETATM    9  C   UNL     1     -11.183  10.806  69.130  1.00  0.00    -0.262 A  
HETATM   10  C   UNL     1     -11.018  10.589  67.769  1.00  0.00    -0.313 A  
HETATM   11  N   UNL     1     -10.747   9.348  67.177  1.00  0.00    -0.221 NA 
HETATM   12  C   UNL     1     -11.097  11.707  66.927  1.00  0.00    -0.365 A  
HETATM   13  C   UNL     1     -10.782   8.238  67.837  1.00  0.00    -0.070 C  
HETATM   14  C   UNL     1     -11.332  12.997  67.432  1.00  0.00    -0.305 A  
HETATM   15  N   UNL     1     -11.109   8.146  69.194  1.00  0.00    -0.424 N  
HETATM   16  O   UNL     1      -9.838   9.465  70.881  1.00  0.00    -0.276 OA 
HETATM   17 CL   UNL     1     -11.397  14.284  66.281  1.00  0.00    -0.338 Cl 
HETATM   18  S   UNL     1     -11.116   9.444  70.210  1.00  0.00    -0.257 S  
HETATM   19  H   UNL     1     -11.354   7.231  69.573  1.00  0.00     0.000 HD 
HETATM   20  O   UNL     1     -12.361   9.392  70.942  1.00  0.00    -0.274 OA 
BRANCH  13  21
HETATM   21  C   UNL     1     -10.452   6.921  67.163  1.00  0.00    -0.303 C  
BRANCH  21  22
HETATM   22  S   UNL     1      -8.652   6.705  66.968  1.00  0.00    -0.115 SA 
BRANCH  22  23
HETATM   23  C   UNL     1      -8.013   7.703  68.360  1.00  0.00    -0.123 C  
BRANCH  23  24
HETATM   24  C   UNL     1      -7.439   9.004  67.857  1.00  0.00    -0.085 A  
HETATM   25  C   UNL     1      -7.333  10.108  68.719  1.00  0.00    -0.084 A  
HETATM   26  C   UNL     1      -6.885  11.339  68.242  1.00  0.00    -0.064 A  
HETATM   27  C   UNL     1      -6.532  11.481  66.901  1.00  0.00    -0.144 A  
HETATM   28  C   UNL     1      -6.611  10.387  66.041  1.00  0.00    -0.120 A  
HETATM   29  C   UNL     1      -7.062   9.154  66.515  1.00  0.00    -0.081 A  
ENDBRANCH  23  24
ENDBRANCH  22  23
ENDBRANCH  21  22
ENDBRANCH  13  21
ENDBRANCH   2   7
TORSDOF 5
ENDMDL
MODEL      133
REMARK 921   NORMALIZED FREE ENERGY PREDICTED BY IDOCK:   -4.62 KCAL/MOL
REMARK 922        TOTAL FREE ENERGY PREDICTED BY IDOCK:   -6.62 KCAL/MOL
REMARK 923 INTER-LIGAND FREE ENERGY PREDICTED BY IDOCK:   -6.39 KCAL/MOL
REMARK 924 INTRA-LIGAND FREE ENERGY PREDICTED BY IDOCK:   -0.22 KCAL/MOL
REMARK 927      BINDING AFFINITY PREDICTED BY RF-SCORE:    0.00 PKD
ROOT
HETATM    1  N   UNL     1      -7.470   6.012  69.041  1.00  0.00    -0.084 N  
HETATM    2  S   UNL     1      -7.578   7.334  70.067  1.00  0.00    -0.092 S  
HETATM    3  H1  UNL     1      -6.875   6.328  68.275  1.00  0.00     0.000 HD 
HETATM    4  H2  UNL     1      -7.902   5.095  69.157  1.00  0.00     0.000 HD 
HETATM    5  O   UNL     1      -8.420   6.885  71.153  1.00  0.00    -0.122 OA 
HETATM    6  O   UNL     1      -6.240   7.821  70.292  1.00  0.00    -0.033 OA 
ENDROOT
BRANCH   2   7
HETATM    7  C   UNL     1      -8.475   8.518  69.115  1.00  0.00    -0.125 A  
HETATM    8  C   UNL     1      -7.792   9.650  68.657  1.00  0.00    -0.081 A  
HETATM    9  C   UNL     1      -8.472  10.594  67.881  1.00  0.00    -0.120 A  
HETATM   10  C   UNL     1      -9.809  10.452  67.536  1.00  0.00    -0.172 A  
HETATM   11  N   UNL     1     -10.553  11.376  66.790  1.00  0.00    -0.244 NA 
HETATM   12  C   UNL     1     -10.472   9.307  67.999  1.00  0.00    -0.275 A  
HETATM   13  C   UNL     1     -10.015  12.395  66.205  1.00  0.00    -0.253 C  
HETATM   14  C   UNL     1      -9.819   8.340  68.782  1.00  0.00    -0.173 A  
HETATM   15  N   UNL     1      -8.645  12.677  66.232  1.00  0.00    -0.394 N  
HETATM   16  O   UNL     1      -7.457  12.910  68.408  1.00  0.00    -0.112 OA 
HETATM   17 CL   UNL     1     -10.760   6.984  69.292  1.00  0.00    -0.240 Cl 
HETATM   18  S   UNL     1      -7.603  11.988  67.307  1.00  0.00    -0.152 S  
HETATM   19  H   UNL     1      -8.273  13.343  65.554  1.00  0.00     0.000 HD 
HETATM   20  O   UNL     1      -6.466  11.523  66.546  1.00  0.00    -0.121 OA 
BRANCH  13  21
HETATM   21  C   UNL     1     -10.862  13.387  65.433  1.00  0.00    -0.294 C  
BRANCH  21  22
HETATM   22  S   UNL     1     -11.285  14.837  66.454  1.00  0.00    -0.330 SA 
BRANCH  22  23
HETATM   23  C   UNL     1     -10.268  16.141  65.673  1.00  0.00    -0.364 C  
BRANCH  23  24
HETATM   24  C   UNL     1     -10.156  17.339  66.582  1.00  0.00    -0.302 A  
HETATM   25  C   UNL     1      -9.944  17.161  67.959  1.00  0.00    -0.295 A  
HETATM   26  C   UNL     1      -9.925  18.258  68.820  1.00  0.00    -0.391 A  
HETATM   27  C   UNL     1     -10.112  19.544  68.316  1.00  0.00    -0.542 A  
HETATM   28  C   UNL     1     -10.301  19.735  66.949  1.00  0.00    -0.601 A  
HETATM   29  C   UNL     1     -10.323  18.639  66.084  1.00  0.00    -0.481 A  
ENDBRANCH  23  24
ENDBRANCH  22  23
ENDBRANCH  21  22
ENDBRANCH  13  21
ENDBRANCH   2   7
TORSDOF 5
ENDMDL
MODEL      134
REMARK 921   NORMALIZED FREE ENERGY PREDICTED BY IDOCK:   -4.61 KCAL/MOL
REMARK 922        TOTAL FREE ENERGY PREDICTED BY IDOCK:   -6.60 KCAL/MOL
REMARK 923 INTER-LIGAND FREE ENERGY PREDICTED BY IDOCK:   -5.96 KCAL/MOL
REMARK 924 INTRA-LIGAND FREE ENERGY PREDICTED BY IDOCK:   -0.64 KCAL/MOL
REMARK 927      BINDING AFFINITY PREDICTED BY RF-SCORE:    0.00 PKD
ROOT
HETATM    1  N   UNL     1     -11.453  12.760  69.778  1.00  0.00    -0.492 N  
HETATM    2  S   UNL     1     -10.976  11.400  68.920  1.00  0.00    -0.243 S  
HETATM    3  H1  UNL     1     -10.619  13.047  70.291  1.00  0.00     0.000 HD 
HETATM    4  H2  UNL     1     -12.371  13.202  69.786  1.00  0.00     0.000 HD 
HETATM    5  O   UNL     1     -12.158  10.994  68.193  1.00  0.00    -0.610 OA 
HETATM    6  O   UNL     1      -9.742  11.721  68.248  1.00  0.00    -0.189 OA 
ENDROOT
BRANCH   2   7
HETATM    7  C   UNL     1     -10.658  10.210  70.183  1.00  0.00    -0.281 A  
HETATM    8  C   UNL     1      -9.371   9.670  70.272  1.00  0.00    -0.292 A  
HETATM    9  C   UNL     1      -9.084   8.741  71.277  1.00  0.00    -0.234 A  
HETATM   10  C   UNL     1     -10.031   8.332  72.206  1.00  0.00    -0.296 A  
HETATM   11  N   UNL     1      -9.815   7.383  73.215  1.00  0.00    -0.243 NA 
HETATM   12  C   UNL     1     -11.313   8.890  72.103  1.00  0.00    -0.369 A  
HETATM   13  C   UNL     1      -8.645   6.905  73.483  1.00  0.00    -0.131 C  
HETATM   14  C   UNL     1     -11.634   9.825  71.103  1.00  0.00    -0.392 A  
HETATM   15  N   UNL     1      -7.474   7.288  72.821  1.00  0.00    -0.075 N  
HETATM   16  O   UNL     1      -7.318   7.104  70.343  1.00  0.00    -0.076 OA 
HETATM   17 CL   UNL     1     -13.254  10.423  71.089  1.00  0.00    -0.439 Cl 
HETATM   18  S   UNL     1      -7.473   8.093  71.383  1.00  0.00    -0.085 S  
HETATM   19  H   UNL     1      -6.577   7.057  73.249  1.00  0.00     0.000 HD 
HETATM   20  O   UNL     1      -6.554   9.199  71.526  1.00  0.00    -0.149 OA 
BRANCH  13  21
HETATM   21  C   UNL     1      -8.462   5.857  74.563  1.00  0.00    -0.115 C  
BRANCH  21  22
HETATM   22  S   UNL     1      -9.231   4.273  74.092  1.00  0.00    -0.102 SA 
BRANCH  22  23
HETATM   23  C   UNL     1      -8.076   3.676  72.806  1.00  0.00    -0.081 C  
BRANCH  23  24
HETATM   24  C   UNL     1      -8.692   3.817  71.437  1.00  0.00    -0.130 A  
HETATM   25  C   UNL     1      -8.189   3.072  70.358  1.00  0.00    -0.070 A  
HETATM   26  C   UNL     1      -8.694   3.258  69.071  1.00  0.00    -0.137 A  
HETATM   27  C   UNL     1      -9.710   4.186  68.848  1.00  0.00    -0.176 A  
HETATM   28  C   UNL     1     -10.233   4.914  69.915  1.00  0.00    -0.299 A  
HETATM   29  C   UNL     1      -9.728   4.732  71.203  1.00  0.00    -0.249 A  
ENDBRANCH  23  24
ENDBRANCH  22  23
ENDBRANCH  21  22
ENDBRANCH  13  21
ENDBRANCH   2   7
TORSDOF 5
ENDMDL
MODEL      135
REMARK 921   NORMALIZED FREE ENERGY PREDICTED BY IDOCK:   -4.60 KCAL/MOL
REMARK 922        TOTAL FREE ENERGY PREDICTED BY IDOCK:   -6.60 KCAL/MOL
REMARK 923 INTER-LIGAND FREE ENERGY PREDICTED BY IDOCK:   -5.99 KCAL/MOL
REMARK 924 INTRA-LIGAND FREE ENERGY PREDICTED BY IDOCK:   -0.61 KCAL/MOL
REMARK 927      BINDING AFFINITY PREDICTED BY RF-SCORE:    0.00 PKD
ROOT
HETATM    1  N   UNL     1      -7.055  15.532  70.008  1.00  0.00    -0.041 N  
HETATM    2  S   UNL     1      -8.149  15.556  68.738  1.00  0.00    -0.187 S  
HETATM    3  H1  UNL     1      -6.163  15.290  69.577  1.00  0.00     0.000 HD 
HETATM    4  H2  UNL     1      -7.239  15.719  70.994  1.00  0.00     0.000 HD 
HETATM    5  O   UNL     1      -9.412  15.900  69.350  1.00  0.00    -0.246 OA 
HETATM    6  O   UNL     1      -7.573  16.351  67.682  1.00  0.00    -0.133 OA 
ENDROOT
BRANCH   2   7
HETATM    7  C   UNL     1      -8.216  13.869  68.224  1.00  0.00    -0.158 A  
HETATM    8  C   UNL     1      -9.463  13.235  68.202  1.00  0.00    -0.222 A  
HETATM    9  C   UNL     1      -9.549  11.905  67.778  1.00  0.00    -0.190 A  
HETATM   10  C   UNL     1      -8.439  11.181  67.366  1.00  0.00    -0.134 A  
HETATM   11  N   UNL     1      -8.455   9.839  66.962  1.00  0.00    -0.117 NA 
HETATM   12  C   UNL     1      -7.201  11.837  67.389  1.00  0.00    -0.133 A  
HETATM   13  C   UNL     1      -9.551   9.180  66.777  1.00  0.00    -0.195 C  
HETATM   14  C   UNL     1      -7.079  13.172  67.812  1.00  0.00    -0.148 A  
HETATM   15  N   UNL     1     -10.828   9.726  66.939  1.00  0.00    -0.119 N  
HETATM   16  O   UNL     1     -11.471  10.791  69.096  1.00  0.00    -0.257 OA 
HETATM   17 CL   UNL     1      -5.491  13.852  67.798  1.00  0.00    -0.080 Cl 
HETATM   18  S   UNL     1     -11.111  11.138  67.742  1.00  0.00    -0.303 S  
HETATM   19  H   UNL     1     -11.624   9.227  66.542  1.00  0.00     0.000 HD 
HETATM   20  O   UNL     1     -11.978  11.929  66.900  1.00  0.00    -0.614 OA 
BRANCH  13  21
HETATM   21  C   UNL     1      -9.522   7.720  66.368  1.00  0.00    -0.180 C  
BRANCH  21  22
HETATM   22  S   UNL     1     -10.879   6.784  67.145  1.00  0.00    -0.376 SA 
BRANCH  22  23
HETATM   23  C   UNL     1     -10.056   6.115  68.634  1.00  0.00    -0.162 C  
BRANCH  23  24
HETATM   24  C   UNL     1     -10.506   6.860  69.866  1.00  0.00    -0.239 A  
HETATM   25  C   UNL     1      -9.694   7.864  70.418  1.00  0.00    -0.179 A  
HETATM   26  C   UNL     1     -10.060   8.498  71.605  1.00  0.00    -0.338 A  
HETATM   27  C   UNL     1     -11.243   8.141  72.250  1.00  0.00    -0.425 A  
HETATM   28  C   UNL     1     -12.069   7.163  71.699  1.00  0.00    -0.371 A  
HETATM   29  C   UNL     1     -11.703   6.525  70.513  1.00  0.00    -0.438 A  
ENDBRANCH  23  24
ENDBRANCH  22  23
ENDBRANCH  21  22
ENDBRANCH  13  21
ENDBRANCH   2   7
TORSDOF 5
ENDMDL
MODEL      136
REMARK 921   NORMALIZED FREE ENERGY PREDICTED BY IDOCK:   -4.60 KCAL/MOL
REMARK 922        TOTAL FREE ENERGY PREDICTED BY IDOCK:   -6.59 KCAL/MOL
REMARK 923 INTER-LIGAND FREE ENERGY PREDICTED BY IDOCK:   -6.12 KCAL/MOL
REMARK 924 INTRA-LIGAND FREE ENERGY PREDICTED BY IDOCK:   -0.47 KCAL/MOL
REMARK 927      BINDING AFFINITY PREDICTED BY RF-SCORE:    0.00 PKD
ROOT
HETATM    1  N   UNL     1     -11.498  14.359  64.186  1.00  0.00    -0.630 N  
HETATM    2  S   UNL     1     -12.569  13.223  64.800  1.00  0.00    -0.290 S  
HETATM    3  H1  UNL     1     -10.750  13.808  63.766  1.00  0.00     0.000 HD 
HETATM    4  H2  UNL     1     -11.578  15.375  64.223  1.00  0.00     0.000 HD 
HETATM    5  O   UNL     1     -13.629  14.005  65.394  1.00  0.00    -0.593 OA 
HETATM    6  O   UNL     1     -12.825  12.259  63.759  1.00  0.00    -0.735 OA 
ENDROOT
BRANCH   2   7
HETATM    7  C   UNL     1     -11.649  12.451  66.093  1.00  0.00    -0.396 A  
HETATM    8  C   UNL     1     -11.112  11.182  65.854  1.00  0.00    -0.105 A  
HETATM    9  C   UNL     1     -10.359  10.556  66.853  1.00  0.00    -0.239 A  
HETATM   10  C   UNL     1     -10.114  11.150  68.083  1.00  0.00    -0.179 A  
HETATM   11  N   UNL     1      -9.396  10.563  69.135  1.00  0.00    -0.199 NA 
HETATM   12  C   UNL     1     -10.655  12.425  68.299  1.00  0.00    -0.236 A  
HETATM   13  C   UNL     1      -8.745   9.455  69.000  1.00  0.00    -0.136 C  
HETATM   14  C   UNL     1     -11.417  13.080  67.317  1.00  0.00    -0.332 A  
HETATM   15  N   UNL     1      -8.667   8.734  67.804  1.00  0.00    -0.135 N  
HETATM   16  O   UNL     1     -10.746   8.011  66.639  1.00  0.00    -0.215 OA 
HETATM   17 CL   UNL     1     -12.031  14.644  67.722  1.00  0.00    -0.354 Cl 
HETATM   18  S   UNL     1      -9.685   8.984  66.532  1.00  0.00    -0.265 S  
HETATM   19  H   UNL     1      -7.946   8.018  67.715  1.00  0.00     0.000 HD 
HETATM   20  O   UNL     1      -8.859   9.085  65.351  1.00  0.00    -0.178 OA 
BRANCH  13  21
HETATM   21  C   UNL     1      -8.007   8.839  70.173  1.00  0.00    -0.107 C  
BRANCH  21  22
HETATM   22  S   UNL     1      -6.481   8.000  69.633  1.00  0.00    -0.037 SA 
BRANCH  22  23
HETATM   23  C   UNL     1      -6.873   6.254  70.012  1.00  0.00    -0.058 C  
BRANCH  23  24
HETATM   24  C   UNL     1      -7.650   5.630  68.881  1.00  0.00    -0.088 A  
HETATM   25  C   UNL     1      -7.108   5.600  67.585  1.00  0.00    -0.071 A  
HETATM   26  C   UNL     1      -7.854   5.104  66.516  1.00  0.00    -0.103 A  
HETATM   27  C   UNL     1      -9.145   4.626  66.729  1.00  0.00    -0.121 A  
HETATM   28  C   UNL     1      -9.685   4.628  68.014  1.00  0.00    -0.197 A  
HETATM   29  C   UNL     1      -8.942   5.127  69.086  1.00  0.00    -0.125 A  
ENDBRANCH  23  24
ENDBRANCH  22  23
ENDBRANCH  21  22
ENDBRANCH  13  21
ENDBRANCH   2   7
TORSDOF 5
ENDMDL
MODEL      137
REMARK 921   NORMALIZED FREE ENERGY PREDICTED BY IDOCK:   -4.59 KCAL/MOL
REMARK 922        TOTAL FREE ENERGY PREDICTED BY IDOCK:   -6.57 KCAL/MOL
REMARK 923 INTER-LIGAND FREE ENERGY PREDICTED BY IDOCK:   -6.41 KCAL/MOL
REMARK 924 INTRA-LIGAND FREE ENERGY PREDICTED BY IDOCK:   -0.16 KCAL/MOL
REMARK 927      BINDING AFFINITY PREDICTED BY RF-SCORE:    0.00 PKD
ROOT
HETATM    1  N   UNL     1      -8.048   2.329  72.356  1.00  0.00    -0.053 N  
HETATM    2  S   UNL     1      -9.626   2.313  71.786  1.00  0.00    -0.145 S  
HETATM    3  H1  UNL     1      -8.129   2.614  73.332  1.00  0.00     0.000 HD 
HETATM    4  H2  UNL     1      -7.197   2.104  71.842  1.00  0.00     0.000 HD 
HETATM    5  O   UNL     1      -9.510   1.909  70.403  1.00  0.00    -0.111 OA 
HETATM    6  O   UNL     1     -10.422   1.573  72.731  1.00  0.00    -0.121 OA 
ENDROOT
BRANCH   2   7
HETATM    7  C   UNL     1     -10.096   4.013  71.836  1.00  0.00    -0.144 A  
HETATM    8  C   UNL     1     -10.112   4.729  70.634  1.00  0.00    -0.288 A  
HETATM    9  C   UNL     1     -10.503   6.072  70.640  1.00  0.00    -0.246 A  
HETATM   10  C   UNL     1     -10.885   6.731  71.800  1.00  0.00    -0.229 A  
HETATM   11  N   UNL     1     -11.255   8.081  71.877  1.00  0.00    -0.264 NA 
HETATM   12  C   UNL     1     -10.867   5.994  72.992  1.00  0.00    -0.290 A  
HETATM   13  C   UNL     1     -11.432   8.816  70.829  1.00  0.00    -0.270 C  
HETATM   14  C   UNL     1     -10.479   4.644  73.021  1.00  0.00    -0.198 A  
HETATM   15  N   UNL     1     -11.296   8.351  69.517  1.00  0.00    -0.412 N  
HETATM   16  O   UNL     1      -9.173   7.277  68.782  1.00  0.00    -0.138 OA 
HETATM   17 CL   UNL     1     -10.496   3.861  74.560  1.00  0.00    -0.262 Cl 
HETATM   18  S   UNL     1     -10.532   6.941  69.133  1.00  0.00    -0.217 S  
HETATM   19  H   UNL     1     -11.687   8.912  68.760  1.00  0.00     0.000 HD 
HETATM   20  O   UNL     1     -11.403   6.231  68.225  1.00  0.00    -0.289 OA 
BRANCH  13  21
HETATM   21  C   UNL     1     -11.802  10.280  70.959  1.00  0.00    -0.377 C  
BRANCH  21  22
HETATM   22  S   UNL     1     -12.336  10.977  69.361  1.00  0.00     0.010 SA 
BRANCH  22  23
HETATM   23  C   UNL     1     -11.650  12.669  69.454  1.00  0.00    -0.306 C  
BRANCH  23  24
HETATM   24  C   UNL     1     -11.413  13.220  68.070  1.00  0.00    -0.344 A  
HETATM   25  C   UNL     1     -11.180  14.593  67.888  1.00  0.00    -0.318 A  
HETATM   26  C   UNL     1     -11.045  15.125  66.606  1.00  0.00    -0.308 A  
HETATM   27  C   UNL     1     -11.137  14.292  65.492  1.00  0.00    -0.323 A  
HETATM   28  C   UNL     1     -11.345  12.925  65.661  1.00  0.00    -0.344 A  
HETATM   29  C   UNL     1     -11.483  12.389  66.943  1.00  0.00    -0.423 A  
ENDBRANCH  23  24
ENDBRANCH  22  23
ENDBRANCH  21  22
ENDBRANCH  13  21
ENDBRANCH   2   7
TORSDOF 5
ENDMDL
MODEL      138
REMARK 921   NORMALIZED FREE ENERGY PREDICTED BY IDOCK:   -4.57 KCAL/MOL
REMARK 922        TOTAL FREE ENERGY PREDICTED BY IDOCK:   -6.55 KCAL/MOL
REMARK 923 INTER-LIGAND FREE ENERGY PREDICTED BY IDOCK:   -5.88 KCAL/MOL
REMARK 924 INTRA-LIGAND FREE ENERGY PREDICTED BY IDOCK:   -0.67 KCAL/MOL
REMARK 927      BINDING AFFINITY PREDICTED BY RF-SCORE:    0.00 PKD
ROOT
HETATM    1  N   UNL     1     -10.683  18.983  66.407  1.00  0.00    -0.378 N  
HETATM    2  S   UNL     1      -9.517  18.450  67.489  1.00  0.00    -0.273 S  
HETATM    3  H1  UNL     1     -11.552  18.565  66.738  1.00  0.00     0.000 HD 
HETATM    4  H2  UNL     1     -10.551  19.590  65.598  1.00  0.00     0.000 HD 
HETATM    5  O   UNL     1      -8.285  19.042  67.020  1.00  0.00    -0.260 OA 
HETATM    6  O   UNL     1     -10.018  18.687  68.820  1.00  0.00    -0.375 OA 
ENDROOT
BRANCH   2   7
HETATM    7  C   UNL     1      -9.451  16.711  67.195  1.00  0.00    -0.230 A  
HETATM    8  C   UNL     1     -10.509  16.119  66.498  1.00  0.00    -0.298 A  
HETATM    9  C   UNL     1     -10.473  14.747  66.231  1.00  0.00    -0.296 A  
HETATM   10  C   UNL     1      -9.416  13.939  66.627  1.00  0.00    -0.285 A  
HETATM   11  N   UNL     1      -9.335  12.555  66.418  1.00  0.00    -0.231 NA 
HETATM   12  C   UNL     1      -8.362  14.553  67.318  1.00  0.00    -0.232 A  
HETATM   13  C   UNL     1     -10.180  11.911  65.682  1.00  0.00    -0.245 C  
HETATM   14  C   UNL     1      -8.369  15.929  67.604  1.00  0.00    -0.152 A  
HETATM   15  N   UNL     1     -11.245  12.513  65.005  1.00  0.00    -0.297 N  
HETATM   16  O   UNL     1     -12.908  13.885  66.251  1.00  0.00    -0.320 OA 
HETATM   17 CL   UNL     1      -7.010  16.551  68.470  1.00  0.00    -0.147 Cl 
HETATM   18  S   UNL     1     -11.791  14.030  65.349  1.00  0.00    -0.378 S  
HETATM   19  H   UNL     1     -11.706  11.989  64.262  1.00  0.00     0.000 HD 
HETATM   20  O   UNL     1     -11.914  14.725  64.088  1.00  0.00    -0.393 OA 
BRANCH  13  21
HETATM   21  C   UNL     1     -10.073  10.409  65.508  1.00  0.00    -0.283 C  
BRANCH  21  22
HETATM   22  S   UNL     1     -10.640   9.523  66.998  1.00  0.00    -0.154 SA 
BRANCH  22  23
HETATM   23  C   UNL     1      -9.222   8.417  67.326  1.00  0.00    -0.138 C  
BRANCH  23  24
HETATM   24  C   UNL     1      -8.101   9.178  67.987  1.00  0.00    -0.105 A  
HETATM   25  C   UNL     1      -8.316   9.827  69.214  1.00  0.00    -0.142 A  
HETATM   26  C   UNL     1      -7.313  10.604  69.791  1.00  0.00    -0.115 A  
HETATM   27  C   UNL     1      -6.081  10.739  69.153  1.00  0.00    -0.043 A  
HETATM   28  C   UNL     1      -5.847  10.081  67.946  1.00  0.00    -0.038 A  
HETATM   29  C   UNL     1      -6.850   9.304  67.365  1.00  0.00    -0.077 A  
ENDBRANCH  23  24
ENDBRANCH  22  23
ENDBRANCH  21  22
ENDBRANCH  13  21
ENDBRANCH   2   7
TORSDOF 5
ENDMDL
MODEL      139
REMARK 921   NORMALIZED FREE ENERGY PREDICTED BY IDOCK:   -4.56 KCAL/MOL
REMARK 922        TOTAL FREE ENERGY PREDICTED BY IDOCK:   -6.55 KCAL/MOL
REMARK 923 INTER-LIGAND FREE ENERGY PREDICTED BY IDOCK:   -6.22 KCAL/MOL
REMARK 924 INTRA-LIGAND FREE ENERGY PREDICTED BY IDOCK:   -0.33 KCAL/MOL
REMARK 927      BINDING AFFINITY PREDICTED BY RF-SCORE:    0.00 PKD
ROOT
HETATM    1  N   UNL     1      -7.240   4.263  71.748  1.00  0.00    -0.053 N  
HETATM    2  S   UNL     1      -7.767   3.832  70.215  1.00  0.00    -0.047 S  
HETATM    3  H1  UNL     1      -8.094   4.371  72.294  1.00  0.00     0.000 HD 
HETATM    4  H2  UNL     1      -6.278   4.390  72.063  1.00  0.00     0.000 HD 
HETATM    5  O   UNL     1      -6.556   3.679  69.441  1.00  0.00    -0.033 OA 
HETATM    6  O   UNL     1      -8.714   2.756  70.368  1.00  0.00    -0.060 OA 
ENDROOT
BRANCH   2   7
HETATM    7  C   UNL     1      -8.613   5.275  69.653  1.00  0.00    -0.098 A  
HETATM    8  C   UNL     1      -8.514   6.440  70.421  1.00  0.00    -0.131 A  
HETATM    9  C   UNL     1      -9.155   7.604  69.988  1.00  0.00    -0.151 A  
HETATM   10  C   UNL     1      -9.890   7.657  68.812  1.00  0.00    -0.164 A  
HETATM   11  N   UNL     1     -10.581   8.782  68.341  1.00  0.00    -0.180 NA 
HETATM   12  C   UNL     1      -9.971   6.481  68.053  1.00  0.00    -0.146 A  
HETATM   13  C   UNL     1     -10.468   9.948  68.886  1.00  0.00    -0.211 C  
HETATM   14  C   UNL     1      -9.340   5.293  68.461  1.00  0.00    -0.121 A  
HETATM   15  N   UNL     1      -9.642  10.222  69.980  1.00  0.00    -0.397 N  
HETATM   16  O   UNL     1      -9.882   8.919  72.089  1.00  0.00    -0.312 OA 
HETATM   17 CL   UNL     1      -9.531   3.917  67.434  1.00  0.00    -0.225 Cl 
HETATM   18  S   UNL     1      -9.007   9.048  70.948  1.00  0.00    -0.246 S  
HETATM   19  H   UNL     1      -9.421  11.195  70.190  1.00  0.00     0.000 HD 
HETATM   20  O   UNL     1      -7.601   9.345  71.095  1.00  0.00    -0.306 OA 
BRANCH  13  21
HETATM   21  C   UNL     1     -11.258  11.131  68.363  1.00  0.00    -0.262 C  
BRANCH  21  22
HETATM   22  S   UNL     1     -10.247  12.648  68.337  1.00  0.00    -0.211 SA 
BRANCH  22  23
HETATM   23  C   UNL     1      -9.417  12.505  66.715  1.00  0.00    -0.231 C  
BRANCH  23  24
HETATM   24  C   UNL     1     -10.436  12.407  65.607  1.00  0.00    -0.290 A  
HETATM   25  C   UNL     1     -11.676  13.054  65.731  1.00  0.00    -0.427 A  
HETATM   26  C   UNL     1     -12.657  12.899  64.752  1.00  0.00    -0.493 A  
HETATM   27  C   UNL     1     -12.409  12.102  63.636  1.00  0.00    -0.673 A  
HETATM   28  C   UNL     1     -11.174  11.473  63.490  1.00  0.00    -0.412 A  
HETATM   29  C   UNL     1     -10.191  11.625  64.470  1.00  0.00    -0.337 A  
ENDBRANCH  23  24
ENDBRANCH  22  23
ENDBRANCH  21  22
ENDBRANCH  13  21
ENDBRANCH   2   7
TORSDOF 5
ENDMDL
MODEL      140
REMARK 921   NORMALIZED FREE ENERGY PREDICTED BY IDOCK:   -4.56 KCAL/MOL
REMARK 922        TOTAL FREE ENERGY PREDICTED BY IDOCK:   -6.54 KCAL/MOL
REMARK 923 INTER-LIGAND FREE ENERGY PREDICTED BY IDOCK:   -6.50 KCAL/MOL
REMARK 924 INTRA-LIGAND FREE ENERGY PREDICTED BY IDOCK:   -0.04 KCAL/MOL
REMARK 927      BINDING AFFINITY PREDICTED BY RF-SCORE:    0.00 PKD
ROOT
HETATM    1  N   UNL     1     -10.438  14.781  70.046  1.00  0.00    -0.469 N  
HETATM    2  S   UNL     1     -11.863  14.146  69.430  1.00  0.00    -0.348 S  
HETATM    3  H1  UNL     1      -9.783  14.752  69.264  1.00  0.00     0.000 HD 
HETATM    4  H2  UNL     1     -10.264  15.121  70.991  1.00  0.00     0.000 HD 
HETATM    5  O   UNL     1     -12.790  14.188  70.538  1.00  0.00    -0.328 OA 
HETATM    6  O   UNL     1     -12.136  14.818  68.184  1.00  0.00    -0.259 OA 
ENDROOT
BRANCH   2   7
HETATM    7  C   UNL     1     -11.453  12.461  69.105  1.00  0.00    -0.302 A  
HETATM    8  C   UNL     1     -11.751  11.509  70.085  1.00  0.00    -0.395 A  
HETATM    9  C   UNL     1     -11.458  10.162  69.845  1.00  0.00    -0.254 A  
HETATM   10  C   UNL     1     -10.884   9.725  68.660  1.00  0.00    -0.188 A  
HETATM   11  N   UNL     1     -10.538   8.397  68.372  1.00  0.00    -0.155 NA 
HETATM   12  C   UNL     1     -10.600  10.694  67.688  1.00  0.00    -0.288 A  
HETATM   13  C   UNL     1     -10.872   7.409  69.135  1.00  0.00    -0.111 C  
HETATM   14  C   UNL     1     -10.880  12.056  67.898  1.00  0.00    -0.215 A  
HETATM   15  N   UNL     1     -11.622   7.546  70.307  1.00  0.00    -0.477 N  
HETATM   16  O   UNL     1     -10.857   9.081  72.112  1.00  0.00    -0.337 OA 
HETATM   17 CL   UNL     1     -10.470  13.142  66.619  1.00  0.00    -0.274 Cl 
HETATM   18  S   UNL     1     -11.850   8.990  71.069  1.00  0.00    -0.268 S  
HETATM   19  H   UNL     1     -12.048   6.711  70.711  1.00  0.00     0.000 HD 
HETATM   20  O   UNL     1     -13.264   9.093  71.350  1.00  0.00    -0.334 OA 
BRANCH  13  21
HETATM   21  C   UNL     1     -10.449   5.992  68.802  1.00  0.00    -0.248 C  
BRANCH  21  22
HETATM   22  S   UNL     1      -9.536   5.921  67.225  1.00  0.00    -0.122 SA 
BRANCH  22  23
HETATM   23  C   UNL     1      -9.057   4.158  67.161  1.00  0.00    -0.143 C  
BRANCH  23  24
HETATM   24  C   UNL     1      -9.452   3.552  65.838  1.00  0.00    -0.143 A  
HETATM   25  C   UNL     1      -8.832   2.374  65.389  1.00  0.00    -0.123 A  
HETATM   26  C   UNL     1      -9.128   1.853  64.129  1.00  0.00    -0.110 A  
HETATM   27  C   UNL     1     -10.050   2.498  63.307  1.00  0.00    -0.125 A  
HETATM   28  C   UNL     1     -10.690   3.654  63.751  1.00  0.00    -0.271 A  
HETATM   29  C   UNL     1     -10.393   4.179  65.010  1.00  0.00    -0.209 A  
ENDBRANCH  23  24
ENDBRANCH  22  23
ENDBRANCH  21  22
ENDBRANCH  13  21
ENDBRANCH   2   7
TORSDOF 5
ENDMDL
MODEL      141
REMARK 921   NORMALIZED FREE ENERGY PREDICTED BY IDOCK:   -4.55 KCAL/MOL
REMARK 922        TOTAL FREE ENERGY PREDICTED BY IDOCK:   -6.52 KCAL/MOL
REMARK 923 INTER-LIGAND FREE ENERGY PREDICTED BY IDOCK:   -5.41 KCAL/MOL
REMARK 924 INTRA-LIGAND FREE ENERGY PREDICTED BY IDOCK:   -1.11 KCAL/MOL
REMARK 927      BINDING AFFINITY PREDICTED BY RF-SCORE:    0.00 PKD
ROOT
HETATM    1  N   UNL     1     -12.184  11.950  69.996  1.00  0.00    -0.252 N  
HETATM    2  S   UNL     1     -11.149  11.582  68.728  1.00  0.00    -0.256 S  
HETATM    3  H1  UNL     1     -11.572  12.060  70.804  1.00  0.00     0.000 HD 
HETATM    4  H2  UNL     1     -13.198  12.044  69.965  1.00  0.00     0.000 HD 
HETATM    5  O   UNL     1     -12.016  11.427  67.582  1.00  0.00    -0.630 OA 
HETATM    6  O   UNL     1     -10.077  12.545  68.747  1.00  0.00    -0.166 OA 
ENDROOT
BRANCH   2   7
HETATM    7  C   UNL     1     -10.512   9.996  69.167  1.00  0.00    -0.219 A  
HETATM    8  C   UNL     1     -11.120   9.311  70.224  1.00  0.00    -0.289 A  
HETATM    9  C   UNL     1     -10.651   8.042  70.580  1.00  0.00    -0.220 A  
HETATM   10  C   UNL     1      -9.601   7.423  69.917  1.00  0.00    -0.163 A  
HETATM   11  N   UNL     1      -9.064   6.170  70.245  1.00  0.00    -0.152 NA 
HETATM   12  C   UNL     1      -9.010   8.124  68.856  1.00  0.00    -0.141 A  
HETATM   13  C   UNL     1      -9.611   5.384  71.113  1.00  0.00    -0.164 C  
HETATM   14  C   UNL     1      -9.456   9.401  68.475  1.00  0.00    -0.145 A  
HETATM   15  N   UNL     1     -10.792   5.680  71.800  1.00  0.00    -0.249 N  
HETATM   16  O   UNL     1     -10.977   7.778  73.129  1.00  0.00    -0.396 OA 
HETATM   17 CL   UNL     1      -8.631  10.153  67.156  1.00  0.00    -0.125 Cl 
HETATM   18  S   UNL     1     -11.430   7.198  71.887  1.00  0.00    -0.282 S  
HETATM   19  H   UNL     1     -11.283   4.920  72.272  1.00  0.00     0.000 HD 
HETATM   20  O   UNL     1     -12.834   7.078  71.568  1.00  0.00    -0.376 OA 
BRANCH  13  21
HETATM   21  C   UNL     1      -8.981   4.050  71.460  1.00  0.00    -0.114 C  
BRANCH  21  22
HETATM   22  S   UNL     1      -9.392   2.776  70.222  1.00  0.00    -0.118 SA 
BRANCH  22  23
HETATM   23  C   UNL     1      -8.025   2.978  69.024  1.00  0.00    -0.055 C  
BRANCH  23  24
HETATM   24  C   UNL     1      -8.428   3.917  67.916  1.00  0.00    -0.105 A  
HETATM   25  C   UNL     1      -7.465   4.728  67.293  1.00  0.00    -0.082 A  
HETATM   26  C   UNL     1      -7.842   5.661  66.327  1.00  0.00    -0.100 A  
HETATM   27  C   UNL     1      -9.182   5.792  65.969  1.00  0.00    -0.155 A  
HETATM   28  C   UNL     1     -10.144   4.977  66.563  1.00  0.00    -0.278 A  
HETATM   29  C   UNL     1      -9.771   4.044  67.531  1.00  0.00    -0.177 A  
ENDBRANCH  23  24
ENDBRANCH  22  23
ENDBRANCH  21  22
ENDBRANCH  13  21
ENDBRANCH   2   7
TORSDOF 5
ENDMDL
MODEL      142
REMARK 921   NORMALIZED FREE ENERGY PREDICTED BY IDOCK:   -4.54 KCAL/MOL
REMARK 922        TOTAL FREE ENERGY PREDICTED BY IDOCK:   -6.51 KCAL/MOL
REMARK 923 INTER-LIGAND FREE ENERGY PREDICTED BY IDOCK:   -6.28 KCAL/MOL
REMARK 924 INTRA-LIGAND FREE ENERGY PREDICTED BY IDOCK:   -0.24 KCAL/MOL
REMARK 927      BINDING AFFINITY PREDICTED BY RF-SCORE:    0.00 PKD
ROOT
HETATM    1  N   UNL     1     -11.699   5.131  73.082  1.00  0.00    -0.514 N  
HETATM    2  S   UNL     1     -10.460   6.262  73.116  1.00  0.00    -0.255 S  
HETATM    3  H1  UNL     1     -11.300   4.326  72.598  1.00  0.00     0.000 HD 
HETATM    4  H2  UNL     1     -12.640   5.226  73.461  1.00  0.00     0.000 HD 
HETATM    5  O   UNL     1     -11.025   7.401  73.802  1.00  0.00    -0.276 OA 
HETATM    6  O   UNL     1      -9.275   5.595  73.595  1.00  0.00    -0.131 OA 
ENDROOT
BRANCH   2   7
HETATM    7  C   UNL     1     -10.243   6.682  71.416  1.00  0.00    -0.199 A  
HETATM    8  C   UNL     1      -8.946   6.666  70.893  1.00  0.00    -0.147 A  
HETATM    9  C   UNL     1      -8.747   6.973  69.543  1.00  0.00    -0.134 A  
HETATM   10  C   UNL     1      -9.794   7.289  68.688  1.00  0.00    -0.161 A  
HETATM   11  N   UNL     1      -9.657   7.636  67.337  1.00  0.00    -0.141 NA 
HETATM   12  C   UNL     1     -11.086   7.292  69.231  1.00  0.00    -0.056 A  
HETATM   13  C   UNL     1      -8.536   7.539  66.703  1.00  0.00    -0.130 C  
HETATM   14  C   UNL     1     -11.321   6.990  70.584  1.00  0.00    -0.307 A  
HETATM   15  N   UNL     1      -7.352   7.065  67.277  1.00  0.00    -0.089 N  
HETATM   16  O   UNL     1      -6.446   8.129  69.339  1.00  0.00    -0.034 OA 
HETATM   17 CL   UNL     1     -12.962   7.041  71.120  1.00  0.00    -0.366 Cl 
HETATM   18  S   UNL     1      -7.128   6.933  68.905  1.00  0.00    -0.091 S  
HETATM   19  H   UNL     1      -6.589   6.789  66.659  1.00  0.00     0.000 HD 
HETATM   20  O   UNL     1      -6.586   5.616  69.145  1.00  0.00    -0.049 OA 
BRANCH  13  21
HETATM   21  C   UNL     1      -8.425   7.954  65.249  1.00  0.00    -0.104 C  
BRANCH  21  22
HETATM   22  S   UNL     1      -8.189   9.755  65.087  1.00  0.00    -0.149 SA 
BRANCH  22  23
HETATM   23  C   UNL     1      -9.399  10.164  63.779  1.00  0.00    -0.288 C  
BRANCH  23  24
HETATM   24  C   UNL     1     -10.502  11.031  64.333  1.00  0.00    -0.422 A  
HETATM   25  C   UNL     1     -11.438  11.620  63.467  1.00  0.00    -0.427 A  
HETATM   26  C   UNL     1     -12.408  12.492  63.960  1.00  0.00    -0.557 A  
HETATM   27  C   UNL     1     -12.458  12.782  65.322  1.00  0.00    -0.528 A  
HETATM   28  C   UNL     1     -11.549  12.186  66.195  1.00  0.00    -0.418 A  
HETATM   29  C   UNL     1     -10.576  11.315  65.704  1.00  0.00    -0.303 A  
ENDBRANCH  23  24
ENDBRANCH  22  23
ENDBRANCH  21  22
ENDBRANCH  13  21
ENDBRANCH   2   7
TORSDOF 5
ENDMDL
MODEL      143
REMARK 921   NORMALIZED FREE ENERGY PREDICTED BY IDOCK:   -4.52 KCAL/MOL
REMARK 922        TOTAL FREE ENERGY PREDICTED BY IDOCK:   -6.49 KCAL/MOL
REMARK 923 INTER-LIGAND FREE ENERGY PREDICTED BY IDOCK:   -6.22 KCAL/MOL
REMARK 924 INTRA-LIGAND FREE ENERGY PREDICTED BY IDOCK:   -0.27 KCAL/MOL
REMARK 927      BINDING AFFINITY PREDICTED BY RF-SCORE:    0.00 PKD
ROOT
HETATM    1  N   UNL     1      -9.349   6.610  72.008  1.00  0.00    -0.144 N  
HETATM    2  S   UNL     1      -9.911   8.155  71.672  1.00  0.00    -0.199 S  
HETATM    3  H1  UNL     1      -8.357   6.640  71.776  1.00  0.00     0.000 HD 
HETATM    4  H2  UNL     1      -9.881   5.817  72.366  1.00  0.00     0.000 HD 
HETATM    5  O   UNL     1     -11.317   8.111  72.001  1.00  0.00    -0.274 OA 
HETATM    6  O   UNL     1      -9.011   9.091  72.296  1.00  0.00    -0.360 OA 
ENDROOT
BRANCH   2   7
HETATM    7  C   UNL     1      -9.749   8.275  69.919  1.00  0.00    -0.180 A  
HETATM    8  C   UNL     1      -8.858   9.221  69.401  1.00  0.00    -0.149 A  
HETATM    9  C   UNL     1      -8.693   9.324  68.016  1.00  0.00    -0.125 A  
HETATM   10  C   UNL     1      -9.379   8.513  67.123  1.00  0.00    -0.152 A  
HETATM   11  N   UNL     1      -9.281   8.587  65.726  1.00  0.00    -0.181 NA 
HETATM   12  C   UNL     1     -10.261   7.567  67.662  1.00  0.00    -0.275 A  
HETATM   13  C   UNL     1      -8.407   9.327  65.127  1.00  0.00    -0.150 C  
HETATM   14  C   UNL     1     -10.451   7.439  69.049  1.00  0.00    -0.210 A  
HETATM   15  N   UNL     1      -7.459  10.111  65.793  1.00  0.00    -0.125 N  
HETATM   16  O   UNL     1      -8.186  11.798  67.474  1.00  0.00    -0.137 OA 
HETATM   17 CL   UNL     1     -11.576   6.238  69.573  1.00  0.00    -0.417 Cl 
HETATM   18  S   UNL     1      -7.569  10.496  67.392  1.00  0.00    -0.095 S  
HETATM   19  H   UNL     1      -6.662  10.462  65.263  1.00  0.00     0.000 HD 
HETATM   20  O   UNL     1      -6.274  10.227  67.974  1.00  0.00    -0.055 OA 
BRANCH  13  21
HETATM   21  C   UNL     1      -8.357   9.401  63.614  1.00  0.00    -0.184 C  
BRANCH  21  22
HETATM   22  S   UNL     1      -9.216  10.884  62.991  1.00  0.00    -0.346 SA 
BRANCH  22  23
HETATM   23  C   UNL     1     -10.637  10.989  64.137  1.00  0.00    -0.342 C  
BRANCH  23  24
HETATM   24  C   UNL     1     -10.931  12.428  64.482  1.00  0.00    -0.355 A  
HETATM   25  C   UNL     1      -9.925  13.242  65.026  1.00  0.00    -0.168 A  
HETATM   26  C   UNL     1     -10.209  14.547  65.429  1.00  0.00    -0.415 A  
HETATM   27  C   UNL     1     -11.499  15.055  65.288  1.00  0.00    -0.308 A  
HETATM   28  C   UNL     1     -12.501  14.264  64.728  1.00  0.00    -0.390 A  
HETATM   29  C   UNL     1     -12.220  12.957  64.326  1.00  0.00    -0.481 A  
ENDBRANCH  23  24
ENDBRANCH  22  23
ENDBRANCH  21  22
ENDBRANCH  13  21
ENDBRANCH   2   7
TORSDOF 5
ENDMDL
MODEL      144
REMARK 921   NORMALIZED FREE ENERGY PREDICTED BY IDOCK:   -4.47 KCAL/MOL
REMARK 922        TOTAL FREE ENERGY PREDICTED BY IDOCK:   -6.43 KCAL/MOL
REMARK 923 INTER-LIGAND FREE ENERGY PREDICTED BY IDOCK:   -5.85 KCAL/MOL
REMARK 924 INTRA-LIGAND FREE ENERGY PREDICTED BY IDOCK:   -0.58 KCAL/MOL
REMARK 927      BINDING AFFINITY PREDICTED BY RF-SCORE:    0.00 PKD
ROOT
HETATM    1  N   UNL     1     -10.612  14.775  70.364  1.00  0.00    -0.484 N  
HETATM    2  S   UNL     1     -12.024  14.049  69.821  1.00  0.00    -0.349 S  
HETATM    3  H1  UNL     1      -9.936  14.617  69.616  1.00  0.00     0.000 HD 
HETATM    4  H2  UNL     1     -10.462  15.267  71.244  1.00  0.00     0.000 HD 
HETATM    5  O   UNL     1     -12.981  14.275  70.881  1.00  0.00    -0.340 OA 
HETATM    6  O   UNL     1     -12.257  14.505  68.474  1.00  0.00    -0.254 OA 
ENDROOT
BRANCH   2   7
HETATM    7  C   UNL     1     -11.615  12.333  69.791  1.00  0.00    -0.243 A  
HETATM    8  C   UNL     1     -12.328  11.470  70.630  1.00  0.00    -0.457 A  
HETATM    9  C   UNL     1     -12.041  10.101  70.611  1.00  0.00    -0.319 A  
HETATM   10  C   UNL     1     -11.072   9.555  69.781  1.00  0.00    -0.191 A  
HETATM   11  N   UNL     1     -10.716   8.200  69.738  1.00  0.00    -0.245 NA 
HETATM   12  C   UNL     1     -10.374  10.436  68.943  1.00  0.00    -0.227 A  
HETATM   13  C   UNL     1     -11.379   7.285  70.366  1.00  0.00    -0.271 C  
HETATM   14  C   UNL     1     -10.637  11.817  68.939  1.00  0.00    -0.180 A  
HETATM   15  N   UNL     1     -12.521   7.535  71.133  1.00  0.00    -0.460 N  
HETATM   16  O   UNL     1     -12.443   9.189  72.994  1.00  0.00    -0.013 OA 
HETATM   17 CL   UNL     1      -9.696  12.786  67.863  1.00  0.00    -0.210 Cl 
HETATM   18  S   UNL     1     -12.949   9.041  71.650  1.00  0.00    -0.376 S  
HETATM   19  H   UNL     1     -13.118   6.748  71.386  1.00  0.00     0.000 HD 
HETATM   20  O   UNL     1     -14.351   9.205  71.340  1.00  0.00    -0.211 OA 
BRANCH  13  21
HETATM   21  C   UNL     1     -10.940   5.835  70.317  1.00  0.00    -0.276 C  
BRANCH  21  22
HETATM   22  S   UNL     1      -9.382   5.641  69.392  1.00  0.00    -0.129 SA 
BRANCH  22  23
HETATM   23  C   UNL     1      -8.233   5.125  70.718  1.00  0.00    -0.105 C  
BRANCH  23  24
HETATM   24  C   UNL     1      -7.541   6.325  71.314  1.00  0.00    -0.094 A  
HETATM   25  C   UNL     1      -8.181   7.087  72.304  1.00  0.00    -0.102 A  
HETATM   26  C   UNL     1      -7.586   8.248  72.800  1.00  0.00    -0.162 A  
HETATM   27  C   UNL     1      -6.345   8.657  72.316  1.00  0.00    -0.074 A  
HETATM   28  C   UNL     1      -5.690   7.896  71.349  1.00  0.00    -0.034 A  
HETATM   29  C   UNL     1      -6.283   6.735  70.850  1.00  0.00    -0.040 A  
ENDBRANCH  23  24
ENDBRANCH  22  23
ENDBRANCH  21  22
ENDBRANCH  13  21
ENDBRANCH   2   7
TORSDOF 5
ENDMDL
MODEL      145
REMARK 921   NORMALIZED FREE ENERGY PREDICTED BY IDOCK:   -4.46 KCAL/MOL
REMARK 922        TOTAL FREE ENERGY PREDICTED BY IDOCK:   -6.41 KCAL/MOL
REMARK 923 INTER-LIGAND FREE ENERGY PREDICTED BY IDOCK:   -6.27 KCAL/MOL
REMARK 924 INTRA-LIGAND FREE ENERGY PREDICTED BY IDOCK:   -0.14 KCAL/MOL
REMARK 927      BINDING AFFINITY PREDICTED BY RF-SCORE:    0.00 PKD
ROOT
HETATM    1  N   UNL     1      -8.086   4.615  66.973  1.00  0.00    -0.102 N  
HETATM    2  S   UNL     1      -9.662   5.189  66.966  1.00  0.00    -0.176 S  
HETATM    3  H1  UNL     1      -7.710   4.903  67.876  1.00  0.00     0.000 HD 
HETATM    4  H2  UNL     1      -7.609   4.094  66.238  1.00  0.00     0.000 HD 
HETATM    5  O   UNL     1     -10.194   4.780  65.686  1.00  0.00    -0.215 OA 
HETATM    6  O   UNL     1     -10.275   4.790  68.208  1.00  0.00    -0.093 OA 
ENDROOT
BRANCH   2   7
HETATM    7  C   UNL     1      -9.459   6.942  66.956  1.00  0.00    -0.151 A  
HETATM    8  C   UNL     1      -9.920   7.666  68.060  1.00  0.00    -0.208 A  
HETATM    9  C   UNL     1      -9.752   9.054  68.089  1.00  0.00    -0.152 A  
HETATM   10  C   UNL     1      -9.135   9.751  67.060  1.00  0.00    -0.138 A  
HETATM   11  N   UNL     1      -8.965  11.143  67.015  1.00  0.00    -0.152 NA 
HETATM   12  C   UNL     1      -8.674   9.006  65.966  1.00  0.00    -0.184 A  
HETATM   13  C   UNL     1      -9.231  11.910  68.020  1.00  0.00    -0.190 C  
HETATM   14  C   UNL     1      -8.829   7.610  65.905  1.00  0.00    -0.130 A  
HETATM   15  N   UNL     1      -9.693  11.446  69.256  1.00  0.00    -0.404 N  
HETATM   16  O   UNL     1     -11.753  10.053  69.382  1.00  0.00    -0.099 OA 
HETATM   17 CL   UNL     1      -8.222   6.820  64.494  1.00  0.00    -0.064 Cl 
HETATM   18  S   UNL     1     -10.317   9.937  69.478  1.00  0.00    -0.246 S  
HETATM   19  H   UNL     1      -9.641  12.073  70.060  1.00  0.00     0.000 HD 
HETATM   20  O   UNL     1      -9.673   9.387  70.649  1.00  0.00    -0.248 OA 
BRANCH  13  21
HETATM   21  C   UNL     1      -9.062  13.413  67.918  1.00  0.00    -0.208 C  
BRANCH  21  22
HETATM   22  S   UNL     1     -10.615  14.286  68.306  1.00  0.00    -0.251 SA 
BRANCH  22  23
HETATM   23  C   UNL     1     -11.863  13.096  67.697  1.00  0.00    -0.359 C  
BRANCH  23  24
HETATM   24  C   UNL     1     -11.885  13.079  66.190  1.00  0.00    -0.466 A  
HETATM   25  C   UNL     1     -12.139  14.262  65.476  1.00  0.00    -0.397 A  
HETATM   26  C   UNL     1     -12.248  14.241  64.085  1.00  0.00    -0.410 A  
HETATM   27  C   UNL     1     -12.099  13.041  63.392  1.00  0.00    -0.591 A  
HETATM   28  C   UNL     1     -11.824  11.865  64.088  1.00  0.00    -0.410 A  
HETATM   29  C   UNL     1     -11.717  11.883  65.479  1.00  0.00    -0.224 A  
ENDBRANCH  23  24
ENDBRANCH  22  23
ENDBRANCH  21  22
ENDBRANCH  13  21
ENDBRANCH   2   7
TORSDOF 5
ENDMDL
MODEL      146
REMARK 921   NORMALIZED FREE ENERGY PREDICTED BY IDOCK:   -4.45 KCAL/MOL
REMARK 922        TOTAL FREE ENERGY PREDICTED BY IDOCK:   -6.40 KCAL/MOL
REMARK 923 INTER-LIGAND FREE ENERGY PREDICTED BY IDOCK:   -5.53 KCAL/MOL
REMARK 924 INTRA-LIGAND FREE ENERGY PREDICTED BY IDOCK:   -0.87 KCAL/MOL
REMARK 927      BINDING AFFINITY PREDICTED BY RF-SCORE:    0.00 PKD
ROOT
HETATM    1  N   UNL     1      -9.347  11.903  63.634  1.00  0.00    -0.523 N  
HETATM    2  S   UNL     1      -8.633  10.388  63.529  1.00  0.00    -0.184 S  
HETATM    3  H1  UNL     1      -8.834  12.379  64.376  1.00  0.00     0.000 HD 
HETATM    4  H2  UNL     1     -10.120  12.267  63.079  1.00  0.00     0.000 HD 
HETATM    5  O   UNL     1      -9.360   9.714  62.477  1.00  0.00    -0.265 OA 
HETATM    6  O   UNL     1      -7.207  10.582  63.466  1.00  0.00    -0.058 OA 
ENDROOT
BRANCH   2   7
HETATM    7  C   UNL     1      -9.049   9.633  65.069  1.00  0.00    -0.233 A  
HETATM    8  C   UNL     1      -9.743  10.398  66.013  1.00  0.00    -0.265 A  
HETATM    9  C   UNL     1     -10.105   9.819  67.233  1.00  0.00    -0.207 A  
HETATM   10  C   UNL     1      -9.808   8.500  67.550  1.00  0.00    -0.177 A  
HETATM   11  N   UNL     1     -10.115   7.873  68.765  1.00  0.00    -0.189 NA 
HETATM   12  C   UNL     1      -9.119   7.750  66.588  1.00  0.00    -0.195 A  
HETATM   13  C   UNL     1     -10.859   8.424  69.666  1.00  0.00    -0.148 C  
HETATM   14  C   UNL     1      -8.738   8.302  65.352  1.00  0.00    -0.113 A  
HETATM   15  N   UNL     1     -11.451   9.684  69.526  1.00  0.00    -0.444 N  
HETATM   16  O   UNL     1     -10.049  11.679  69.024  1.00  0.00    -0.138 OA 
HETATM   17 CL   UNL     1      -7.886   7.265  64.265  1.00  0.00    -0.130 Cl 
HETATM   18  S   UNL     1     -10.982  10.780  68.388  1.00  0.00    -0.271 S  
HETATM   19  H   UNL     1     -12.210   9.936  70.160  1.00  0.00     0.000 HD 
HETATM   20  O   UNL     1     -12.187  11.258  67.749  1.00  0.00    -0.504 OA 
BRANCH  13  21
HETATM   21  C   UNL     1     -11.140   7.722  70.980  1.00  0.00    -0.257 C  
BRANCH  21  22
HETATM   22  S   UNL     1      -9.831   8.051  72.204  1.00  0.00    -0.248 SA 
BRANCH  22  23
HETATM   23  C   UNL     1      -9.436   6.360  72.778  1.00  0.00    -0.143 C  
BRANCH  23  24
HETATM   24  C   UNL     1      -8.973   5.506  71.625  1.00  0.00    -0.145 A  
HETATM   25  C   UNL     1      -7.883   5.913  70.839  1.00  0.00    -0.102 A  
HETATM   26  C   UNL     1      -7.501   5.175  69.719  1.00  0.00    -0.061 A  
HETATM   27  C   UNL     1      -8.200   4.020  69.374  1.00  0.00    -0.068 A  
HETATM   28  C   UNL     1      -9.268   3.592  70.159  1.00  0.00    -0.224 A  
HETATM   29  C   UNL     1      -9.654   4.330  71.280  1.00  0.00    -0.242 A  
ENDBRANCH  23  24
ENDBRANCH  22  23
ENDBRANCH  21  22
ENDBRANCH  13  21
ENDBRANCH   2   7
TORSDOF 5
ENDMDL
MODEL      147
REMARK 921   NORMALIZED FREE ENERGY PREDICTED BY IDOCK:   -4.44 KCAL/MOL
REMARK 922        TOTAL FREE ENERGY PREDICTED BY IDOCK:   -6.38 KCAL/MOL
REMARK 923 INTER-LIGAND FREE ENERGY PREDICTED BY IDOCK:   -6.14 KCAL/MOL
REMARK 924 INTRA-LIGAND FREE ENERGY PREDICTED BY IDOCK:   -0.24 KCAL/MOL
REMARK 927      BINDING AFFINITY PREDICTED BY RF-SCORE:    0.00 PKD
ROOT
HETATM    1  N   UNL     1      -7.837  17.041  68.685  1.00  0.00    -0.247 N  
HETATM    2  S   UNL     1      -8.647  16.383  67.372  1.00  0.00    -0.182 S  
HETATM    3  H1  UNL     1      -6.895  16.655  68.628  1.00  0.00     0.000 HD 
HETATM    4  H2  UNL     1      -8.204  17.685  69.385  1.00  0.00     0.000 HD 
HETATM    5  O   UNL     1      -9.982  16.931  67.454  1.00  0.00    -0.256 OA 
HETATM    6  O   UNL     1      -7.816  16.571  66.209  1.00  0.00    -0.306 OA 
ENDROOT
BRANCH   2   7
HETATM    7  C   UNL     1      -8.724  14.663  67.760  1.00  0.00    -0.171 A  
HETATM    8  C   UNL     1      -9.981  14.052  67.805  1.00  0.00    -0.236 A  
HETATM    9  C   UNL     1     -10.070  12.685  68.087  1.00  0.00    -0.231 A  
HETATM   10  C   UNL     1      -8.951  11.898  68.321  1.00  0.00    -0.178 A  
HETATM   11  N   UNL     1      -8.976  10.533  68.640  1.00  0.00    -0.153 NA 
HETATM   12  C   UNL     1      -7.701  12.528  68.264  1.00  0.00    -0.141 A  
HETATM   13  C   UNL     1     -10.056   9.826  68.591  1.00  0.00    -0.169 C  
HETATM   14  C   UNL     1      -7.576  13.900  67.984  1.00  0.00    -0.144 A  
HETATM   15  N   UNL     1     -11.302  10.328  68.201  1.00  0.00    -0.504 N  
HETATM   16  O   UNL     1     -12.280  12.298  69.368  1.00  0.00    -0.199 OA 
HETATM   17 CL   UNL     1      -5.975  14.547  67.955  1.00  0.00    -0.156 Cl 
HETATM   18  S   UNL     1     -11.642  11.939  68.124  1.00  0.00    -0.330 S  
HETATM   19  H   UNL     1     -12.036   9.665  67.952  1.00  0.00     0.000 HD 
HETATM   20  O   UNL     1     -12.276  12.170  66.846  1.00  0.00    -0.537 OA 
BRANCH  13  21
HETATM   21  C   UNL     1     -10.044   8.359  68.974  1.00  0.00    -0.203 C  
BRANCH  21  22
HETATM   22  S   UNL     1      -9.021   8.066  70.455  1.00  0.00    -0.147 SA 
BRANCH  22  23
HETATM   23  C   UNL     1     -10.298   7.705  71.713  1.00  0.00    -0.197 C  
BRANCH  23  24
HETATM   24  C   UNL     1     -10.264   6.247  72.096  1.00  0.00    -0.208 A  
HETATM   25  C   UNL     1     -11.251   5.717  72.944  1.00  0.00    -0.319 A  
HETATM   26  C   UNL     1     -11.180   4.392  73.373  1.00  0.00    -0.386 A  
HETATM   27  C   UNL     1     -10.127   3.580  72.957  1.00  0.00    -0.219 A  
HETATM   28  C   UNL     1      -9.154   4.087  72.098  1.00  0.00    -0.158 A  
HETATM   29  C   UNL     1      -9.221   5.413  71.668  1.00  0.00    -0.166 A  
ENDBRANCH  23  24
ENDBRANCH  22  23
ENDBRANCH  21  22
ENDBRANCH  13  21
ENDBRANCH   2   7
TORSDOF 5
ENDMDL
MODEL      148
REMARK 921   NORMALIZED FREE ENERGY PREDICTED BY IDOCK:   -4.42 KCAL/MOL
REMARK 922        TOTAL FREE ENERGY PREDICTED BY IDOCK:   -6.36 KCAL/MOL
REMARK 923 INTER-LIGAND FREE ENERGY PREDICTED BY IDOCK:   -6.07 KCAL/MOL
REMARK 924 INTRA-LIGAND FREE ENERGY PREDICTED BY IDOCK:   -0.30 KCAL/MOL
REMARK 927      BINDING AFFINITY PREDICTED BY RF-SCORE:    0.00 PKD
ROOT
HETATM    1  N   UNL     1      -9.555  15.096  69.465  1.00  0.00    -0.388 N  
HETATM    2  S   UNL     1     -10.189  14.846  67.932  1.00  0.00    -0.229 S  
HETATM    3  H1  UNL     1      -8.645  14.636  69.446  1.00  0.00     0.000 HD 
HETATM    4  H2  UNL     1      -9.984  15.597  70.243  1.00  0.00     0.000 HD 
HETATM    5  O   UNL     1     -11.479  15.498  67.959  1.00  0.00    -0.342 OA 
HETATM    6  O   UNL     1      -9.173  15.208  66.977  1.00  0.00    -0.202 OA 
ENDROOT
BRANCH   2   7
HETATM    7  C   UNL     1     -10.445  13.101  67.875  1.00  0.00    -0.240 A  
HETATM    8  C   UNL     1      -9.882  12.386  66.813  1.00  0.00    -0.228 A  
HETATM    9  C   UNL     1     -10.049  10.999  66.754  1.00  0.00    -0.220 A  
HETATM   10  C   UNL     1     -10.752  10.292  67.720  1.00  0.00    -0.275 A  
HETATM   11  N   UNL     1     -10.981   8.909  67.701  1.00  0.00    -0.028 NA 
HETATM   12  C   UNL     1     -11.301  11.026  68.780  1.00  0.00    -0.349 A  
HETATM   13  C   UNL     1     -10.414   8.120  66.849  1.00  0.00    -0.309 C  
HETATM   14  C   UNL     1     -11.153  12.421  68.867  1.00  0.00    -0.258 A  
HETATM   15  N   UNL     1      -9.506   8.546  65.874  1.00  0.00    -0.411 N  
HETATM   16  O   UNL     1     -10.145  10.331  64.261  1.00  0.00    -0.310 OA 
HETATM   17 CL   UNL     1     -11.890  13.199  70.222  1.00  0.00    -0.347 Cl 
HETATM   18  S   UNL     1      -9.329  10.124  65.433  1.00  0.00    -0.238 S  
HETATM   19  H   UNL     1      -8.925   7.845  65.413  1.00  0.00     0.000 HD 
HETATM   20  O   UNL     1      -7.911  10.400  65.435  1.00  0.00    -0.147 OA 
BRANCH  13  21
HETATM   21  C   UNL     1     -10.715   6.634  66.845  1.00  0.00    -0.331 C  
BRANCH  21  22
HETATM   22  S   UNL     1      -9.333   5.673  67.545  1.00  0.00    -0.111 SA 
BRANCH  22  23
HETATM   23  C   UNL     1      -9.510   4.083  66.659  1.00  0.00    -0.197 C  
BRANCH  23  24
HETATM   24  C   UNL     1      -9.342   4.285  65.174  1.00  0.00    -0.165 A  
HETATM   25  C   UNL     1      -8.306   5.098  64.685  1.00  0.00    -0.140 A  
HETATM   26  C   UNL     1      -8.195   5.361  63.320  1.00  0.00    -0.111 A  
HETATM   27  C   UNL     1      -9.113   4.810  62.427  1.00  0.00    -0.108 A  
HETATM   28  C   UNL     1     -10.131   3.983  62.897  1.00  0.00    -0.147 A  
HETATM   29  C   UNL     1     -10.247   3.721  64.263  1.00  0.00    -0.240 A  
ENDBRANCH  23  24
ENDBRANCH  22  23
ENDBRANCH  21  22
ENDBRANCH  13  21
ENDBRANCH   2   7
TORSDOF 5
ENDMDL
MODEL      149
REMARK 921   NORMALIZED FREE ENERGY PREDICTED BY IDOCK:   -4.42 KCAL/MOL
REMARK 922        TOTAL FREE ENERGY PREDICTED BY IDOCK:   -6.36 KCAL/MOL
REMARK 923 INTER-LIGAND FREE ENERGY PREDICTED BY IDOCK:   -6.15 KCAL/MOL
REMARK 924 INTRA-LIGAND FREE ENERGY PREDICTED BY IDOCK:   -0.21 KCAL/MOL
REMARK 927      BINDING AFFINITY PREDICTED BY RF-SCORE:    0.00 PKD
ROOT
HETATM    1  N   UNL     1      -6.206   7.085  64.028  1.00  0.00    -0.036 N  
HETATM    2  S   UNL     1      -7.877   7.114  63.882  1.00  0.00    -0.077 S  
HETATM    3  H1  UNL     1      -6.036   6.902  65.017  1.00  0.00     0.000 HD 
HETATM    4  H2  UNL     1      -5.513   7.219  63.292  1.00  0.00     0.000 HD 
HETATM    5  O   UNL     1      -8.116   7.372  62.480  1.00  0.00    -0.136 OA 
HETATM    6  O   UNL     1      -8.391   5.938  64.538  1.00  0.00    -0.132 OA 
ENDROOT
BRANCH   2   7
HETATM    7  C   UNL     1      -8.343   8.544  64.803  1.00  0.00    -0.153 A  
HETATM    8  C   UNL     1      -9.097   9.529  64.157  1.00  0.00    -0.203 A  
HETATM    9  C   UNL     1      -9.499  10.664  64.869  1.00  0.00    -0.243 A  
HETATM   10  C   UNL     1      -9.186  10.853  66.207  1.00  0.00    -0.177 A  
HETATM   11  N   UNL     1      -9.532  11.980  66.966  1.00  0.00    -0.193 NA 
HETATM   12  C   UNL     1      -8.436   9.851  66.838  1.00  0.00    -0.125 A  
HETATM   13  C   UNL     1     -10.329  12.898  66.527  1.00  0.00    -0.264 C  
HETATM   14  C   UNL     1      -8.014   8.700  66.151  1.00  0.00    -0.106 A  
HETATM   15  N   UNL     1     -10.943  12.864  65.272  1.00  0.00    -0.279 N  
HETATM   16  O   UNL     1      -9.567  12.641  63.208  1.00  0.00     0.032 OA 
HETATM   17 CL   UNL     1      -7.089   7.551  67.050  1.00  0.00    -0.082 Cl 
HETATM   18  S   UNL     1     -10.449  11.871  64.052  1.00  0.00    -0.417 S  
HETATM   19  H   UNL     1     -11.735  13.484  65.102  1.00  0.00     0.000 HD 
HETATM   20  O   UNL     1     -11.635  11.229  63.531  1.00  0.00    -0.218 OA 
BRANCH  13  21
HETATM   21  C   UNL     1     -10.652  14.115  67.370  1.00  0.00    -0.279 C  
BRANCH  21  22
HETATM   22  S   UNL     1      -9.146  15.051  67.794  1.00  0.00    -0.183 SA 
BRANCH  22  23
HETATM   23  C   UNL     1      -9.832  16.400  68.820  1.00  0.00    -0.250 C  
BRANCH  23  24
HETATM   24  C   UNL     1      -9.902  17.682  68.029  1.00  0.00    -0.310 A  
HETATM   25  C   UNL     1      -9.528  18.899  68.624  1.00  0.00    -0.427 A  
HETATM   26  C   UNL     1      -9.670  20.100  67.931  1.00  0.00    -0.499 A  
HETATM   27  C   UNL     1     -10.182  20.100  66.634  1.00  0.00    -0.556 A  
HETATM   28  C   UNL     1     -10.534  18.898  66.025  1.00  0.00    -0.507 A  
HETATM   29  C   UNL     1     -10.395  17.694  66.717  1.00  0.00    -0.331 A  
ENDBRANCH  23  24
ENDBRANCH  22  23
ENDBRANCH  21  22
ENDBRANCH  13  21
ENDBRANCH   2   7
TORSDOF 5
ENDMDL
MODEL      150
REMARK 921   NORMALIZED FREE ENERGY PREDICTED BY IDOCK:   -4.40 KCAL/MOL
REMARK 922        TOTAL FREE ENERGY PREDICTED BY IDOCK:   -6.34 KCAL/MOL
REMARK 923 INTER-LIGAND FREE ENERGY PREDICTED BY IDOCK:   -5.52 KCAL/MOL
REMARK 924 INTRA-LIGAND FREE ENERGY PREDICTED BY IDOCK:   -0.82 KCAL/MOL
REMARK 927      BINDING AFFINITY PREDICTED BY RF-SCORE:    0.00 PKD
ROOT
HETATM    1  N   UNL     1     -13.881   9.110  73.047  1.00  0.00    -0.877 N  
HETATM    2  S   UNL     1     -13.317   9.989  71.734  1.00  0.00    -0.369 S  
HETATM    3  H1  UNL     1     -13.290   9.402  73.826  1.00  0.00     0.000 HD 
HETATM    4  H2  UNL     1     -14.644   8.435  73.064  1.00  0.00     0.000 HD 
HETATM    5  O   UNL     1     -14.155   9.575  70.631  1.00  0.00     0.099 OA 
HETATM    6  O   UNL     1     -13.222  11.368  72.142  1.00  0.00    -0.490 OA 
ENDROOT
BRANCH   2   7
HETATM    7  C   UNL     1     -11.695   9.345  71.477  1.00  0.00    -0.394 A  
HETATM    8  C   UNL     1     -11.294   8.242  72.238  1.00  0.00    -0.446 A  
HETATM    9  C   UNL     1     -10.022   7.696  72.039  1.00  0.00    -0.175 A  
HETATM   10  C   UNL     1      -9.131   8.205  71.104  1.00  0.00    -0.154 A  
HETATM   11  N   UNL     1      -7.833   7.724  70.881  1.00  0.00    -0.087 NA 
HETATM   12  C   UNL     1      -9.554   9.306  70.348  1.00  0.00    -0.292 A  
HETATM   13  C   UNL     1      -7.389   6.639  71.424  1.00  0.00    -0.083 C  
HETATM   14  C   UNL     1     -10.826   9.879  70.524  1.00  0.00    -0.326 A  
HETATM   15  N   UNL     1      -8.146   5.821  72.269  1.00  0.00    -0.107 N  
HETATM   16  O   UNL     1      -9.209   6.771  74.310  1.00  0.00    -0.186 OA 
HETATM   17 CL   UNL     1     -11.212  11.238  69.530  1.00  0.00    -0.325 Cl 
HETATM   18  S   UNL     1      -9.547   6.314  72.984  1.00  0.00    -0.153 S  
HETATM   19  H   UNL     1      -7.815   4.874  72.452  1.00  0.00     0.000 HD 
HETATM   20  O   UNL     1     -10.518   5.267  72.762  1.00  0.00    -0.196 OA 
BRANCH  13  21
HETATM   21  C   UNL     1      -5.967   6.172  71.179  1.00  0.00    -0.030 C  
BRANCH  21  22
HETATM   22  S   UNL     1      -5.922   4.734  70.060  1.00  0.00    -0.022 SA 
BRANCH  22  23
HETATM   23  C   UNL     1      -6.078   5.539  68.425  1.00  0.00    -0.022 C  
BRANCH  23  24
HETATM   24  C   UNL     1      -7.450   5.299  67.848  1.00  0.00    -0.076 A  
HETATM   25  C   UNL     1      -7.741   5.698  66.533  1.00  0.00    -0.100 A  
HETATM   26  C   UNL     1      -9.030   5.560  66.018  1.00  0.00    -0.154 A  
HETATM   27  C   UNL     1     -10.041   5.017  66.809  1.00  0.00    -0.270 A  
HETATM   28  C   UNL     1      -9.760   4.595  68.107  1.00  0.00    -0.197 A  
HETATM   29  C   UNL     1      -8.471   4.735  68.625  1.00  0.00    -0.090 A  
ENDBRANCH  23  24
ENDBRANCH  22  23
ENDBRANCH  21  22
ENDBRANCH  13  21
ENDBRANCH   2   7
TORSDOF 5
ENDMDL
MODEL      151
REMARK 921   NORMALIZED FREE ENERGY PREDICTED BY IDOCK:   -4.37 KCAL/MOL
REMARK 922        TOTAL FREE ENERGY PREDICTED BY IDOCK:   -6.29 KCAL/MOL
REMARK 923 INTER-LIGAND FREE ENERGY PREDICTED BY IDOCK:   -5.51 KCAL/MOL
REMARK 924 INTRA-LIGAND FREE ENERGY PREDICTED BY IDOCK:   -0.78 KCAL/MOL
REMARK 927      BINDING AFFINITY PREDICTED BY RF-SCORE:    0.00 PKD
ROOT
HETATM    1  N   UNL     1      -8.100  10.921  66.768  1.00  0.00    -0.136 N  
HETATM    2  S   UNL     1      -9.600  11.369  67.369  1.00  0.00    -0.175 S  
HETATM    3  H1  UNL     1      -8.182   9.921  66.586  1.00  0.00     0.000 HD 
HETATM    4  H2  UNL     1      -7.286  11.516  66.616  1.00  0.00     0.000 HD 
HETATM    5  O   UNL     1      -9.482  12.786  67.626  1.00  0.00    -0.179 OA 
HETATM    6  O   UNL     1     -10.602  10.837  66.480  1.00  0.00    -0.247 OA 
ENDROOT
BRANCH   2   7
HETATM    7  C   UNL     1      -9.689  10.524  68.916  1.00  0.00    -0.199 A  
HETATM    8  C   UNL     1      -8.547   9.855  69.369  1.00  0.00    -0.180 A  
HETATM    9  C   UNL     1      -8.582   9.196  70.602  1.00  0.00    -0.226 A  
HETATM   10  C   UNL     1      -9.711   9.183  71.408  1.00  0.00    -0.268 A  
HETATM   11  N   UNL     1      -9.819   8.515  72.636  1.00  0.00    -0.259 NA 
HETATM   12  C   UNL     1     -10.842   9.865  70.939  1.00  0.00    -0.357 A  
HETATM   13  C   UNL     1      -8.806   7.969  73.224  1.00  0.00    -0.265 C  
HETATM   14  C   UNL     1     -10.841  10.536  69.704  1.00  0.00    -0.274 A  
HETATM   15  N   UNL     1      -7.502   7.996  72.719  1.00  0.00    -0.107 N  
HETATM   16  O   UNL     1      -7.027   7.140  70.429  1.00  0.00    -0.056 OA 
HETATM   17 CL   UNL     1     -12.306  11.328  69.247  1.00  0.00    -0.276 Cl 
HETATM   18  S   UNL     1      -7.147   8.381  71.156  1.00  0.00    -0.073 S  
HETATM   19  H   UNL     1      -6.733   7.765  73.348  1.00  0.00     0.000 HD 
HETATM   20  O   UNL     1      -6.074   9.348  71.199  1.00  0.00    -0.068 OA 
BRANCH  13  21
HETATM   21  C   UNL     1      -8.974   7.230  74.537  1.00  0.00    -0.127 C  
BRANCH  21  22
HETATM   22  S   UNL     1      -9.153   5.435  74.273  1.00  0.00    -0.119 SA 
BRANCH  22  23
HETATM   23  C   UNL     1     -10.670   5.366  73.256  1.00  0.00    -0.276 C  
BRANCH  23  24
HETATM   24  C   UNL     1     -10.331   5.037  71.824  1.00  0.00    -0.268 A  
HETATM   25  C   UNL     1     -10.814   5.844  70.781  1.00  0.00    -0.352 A  
HETATM   26  C   UNL     1     -10.579   5.500  69.450  1.00  0.00    -0.349 A  
HETATM   27  C   UNL     1      -9.854   4.349  69.146  1.00  0.00    -0.198 A  
HETATM   28  C   UNL     1      -9.350   3.552  70.172  1.00  0.00    -0.244 A  
HETATM   29  C   UNL     1      -9.586   3.893  71.505  1.00  0.00    -0.236 A  
ENDBRANCH  23  24
ENDBRANCH  22  23
ENDBRANCH  21  22
ENDBRANCH  13  21
ENDBRANCH   2   7
TORSDOF 5
ENDMDL
MODEL      152
REMARK 921   NORMALIZED FREE ENERGY PREDICTED BY IDOCK:   -4.36 KCAL/MOL
REMARK 922        TOTAL FREE ENERGY PREDICTED BY IDOCK:   -6.28 KCAL/MOL
REMARK 923 INTER-LIGAND FREE ENERGY PREDICTED BY IDOCK:   -5.45 KCAL/MOL
REMARK 924 INTRA-LIGAND FREE ENERGY PREDICTED BY IDOCK:   -0.83 KCAL/MOL
REMARK 927      BINDING AFFINITY PREDICTED BY RF-SCORE:    0.00 PKD
ROOT
HETATM    1  N   UNL     1     -11.874  13.620  68.441  1.00  0.00    -0.358 N  
HETATM    2  S   UNL     1     -11.017  12.562  67.462  1.00  0.00    -0.263 S  
HETATM    3  H1  UNL     1     -11.159  14.120  68.969  1.00  0.00     0.000 HD 
HETATM    4  H2  UNL     1     -12.886  13.739  68.495  1.00  0.00     0.000 HD 
HETATM    5  O   UNL     1     -12.030  11.854  66.713  1.00  0.00    -0.613 OA 
HETATM    6  O   UNL     1      -9.977  13.317  66.810  1.00  0.00    -0.250 OA 
ENDROOT
BRANCH   2   7
HETATM    7  C   UNL     1     -10.286  11.441  68.613  1.00  0.00    -0.203 A  
HETATM    8  C   UNL     1      -8.894  11.307  68.610  1.00  0.00    -0.141 A  
HETATM    9  C   UNL     1      -8.286  10.443  69.527  1.00  0.00    -0.126 A  
HETATM   10  C   UNL     1      -9.012   9.710  70.454  1.00  0.00    -0.187 A  
HETATM   11  N   UNL     1      -8.466   8.805  71.376  1.00  0.00    -0.193 NA 
HETATM   12  C   UNL     1     -10.406   9.865  70.445  1.00  0.00    -0.322 A  
HETATM   13  C   UNL     1      -7.193   8.683  71.561  1.00  0.00    -0.098 C  
HETATM   14  C   UNL     1     -11.048  10.723  69.536  1.00  0.00    -0.278 A  
HETATM   15  N   UNL     1      -6.229   9.440  70.888  1.00  0.00    -0.067 N  
HETATM   16  O   UNL     1      -6.175   9.472  68.398  1.00  0.00    -0.048 OA 
HETATM   17 CL   UNL     1     -12.770  10.810  69.631  1.00  0.00    -0.081 Cl 
HETATM   18  S   UNL     1      -6.552  10.301  69.519  1.00  0.00    -0.079 S  
HETATM   19  H   UNL     1      -5.280   9.461  71.262  1.00  0.00     0.000 HD 
HETATM   20  O   UNL     1      -5.994  11.619  69.715  1.00  0.00    -0.093 OA 
BRANCH  13  21
HETATM   21  C   UNL     1      -6.644   7.670  72.546  1.00  0.00    -0.061 C  
BRANCH  21  22
HETATM   22  S   UNL     1      -6.903   5.963  71.960  1.00  0.00    -0.078 SA 
BRANCH  22  23
HETATM   23  C   UNL     1      -8.423   5.495  72.863  1.00  0.00    -0.119 C  
BRANCH  23  24
HETATM   24  C   UNL     1      -9.647   5.894  72.077  1.00  0.00    -0.167 A  
HETATM   25  C   UNL     1     -10.721   6.529  72.721  1.00  0.00    -0.269 A  
HETATM   26  C   UNL     1     -11.892   6.824  72.023  1.00  0.00    -0.351 A  
HETATM   27  C   UNL     1     -12.001   6.494  70.673  1.00  0.00    -0.345 A  
HETATM   28  C   UNL     1     -10.933   5.885  70.017  1.00  0.00    -0.430 A  
HETATM   29  C   UNL     1      -9.761   5.586  70.714  1.00  0.00    -0.232 A  
ENDBRANCH  23  24
ENDBRANCH  22  23
ENDBRANCH  21  22
ENDBRANCH  13  21
ENDBRANCH   2   7
TORSDOF 5
ENDMDL
MODEL      153
REMARK 921   NORMALIZED FREE ENERGY PREDICTED BY IDOCK:   -4.35 KCAL/MOL
REMARK 922        TOTAL FREE ENERGY PREDICTED BY IDOCK:   -6.27 KCAL/MOL
REMARK 923 INTER-LIGAND FREE ENERGY PREDICTED BY IDOCK:   -5.58 KCAL/MOL
REMARK 924 INTRA-LIGAND FREE ENERGY PREDICTED BY IDOCK:   -0.70 KCAL/MOL
REMARK 927      BINDING AFFINITY PREDICTED BY RF-SCORE:    0.00 PKD
ROOT
HETATM    1  N   UNL     1     -10.682   2.702  64.169  1.00  0.00    -0.430 N  
HETATM    2  S   UNL     1      -9.558   3.665  63.378  1.00  0.00    -0.137 S  
HETATM    3  H1  UNL     1     -11.463   3.328  64.368  1.00  0.00     0.000 HD 
HETATM    4  H2  UNL     1     -10.602   1.712  64.399  1.00  0.00     0.000 HD 
HETATM    5  O   UNL     1      -8.452   2.778  63.095  1.00  0.00    -0.084 OA 
HETATM    6  O   UNL     1     -10.252   4.373  62.332  1.00  0.00    -0.141 OA 
ENDROOT
BRANCH   2   7
HETATM    7  C   UNL     1      -9.054   4.811  64.621  1.00  0.00    -0.114 A  
HETATM    8  C   UNL     1      -9.669   4.736  65.876  1.00  0.00    -0.203 A  
HETATM    9  C   UNL     1      -9.273   5.617  66.887  1.00  0.00    -0.120 A  
HETATM   10  C   UNL     1      -8.281   6.569  66.700  1.00  0.00    -0.112 A  
HETATM   11  N   UNL     1      -7.863   7.500  67.661  1.00  0.00    -0.111 NA 
HETATM   12  C   UNL     1      -7.674   6.623  65.438  1.00  0.00    -0.100 A  
HETATM   13  C   UNL     1      -8.258   7.457  68.891  1.00  0.00    -0.129 C  
HETATM   14  C   UNL     1      -8.049   5.753  64.399  1.00  0.00    -0.133 A  
HETATM   15  N   UNL     1      -9.120   6.481  69.401  1.00  0.00    -0.141 N  
HETATM   16  O   UNL     1     -11.346   6.102  68.351  1.00  0.00    -0.271 OA 
HETATM   17 CL   UNL     1      -7.223   5.936  62.893  1.00  0.00    -0.049 Cl 
HETATM   18  S   UNL     1     -10.038   5.499  68.446  1.00  0.00    -0.178 S  
HETATM   19  H   UNL     1      -9.184   6.371  70.413  1.00  0.00     0.000 HD 
HETATM   20  O   UNL     1      -9.852   4.152  68.934  1.00  0.00    -0.139 OA 
BRANCH  13  21
HETATM   21  C   UNL     1      -7.805   8.502  69.891  1.00  0.00    -0.096 C  
BRANCH  21  22
HETATM   22  S   UNL     1      -8.481  10.147  69.489  1.00  0.00    -0.145 SA 
BRANCH  22  23
HETATM   23  C   UNL     1     -10.164   9.718  68.917  1.00  0.00    -0.200 C  
BRANCH  23  24
HETATM   24  C   UNL     1     -11.162   9.895  70.033  1.00  0.00    -0.327 A  
HETATM   25  C   UNL     1     -11.469   8.819  70.882  1.00  0.00    -0.330 A  
HETATM   26  C   UNL     1     -12.453   8.947  71.862  1.00  0.00    -0.445 A  
HETATM   27  C   UNL     1     -13.137  10.152  72.010  1.00  0.00    -0.538 A  
HETATM   28  C   UNL     1     -12.826  11.235  71.189  1.00  0.00    -0.452 A  
HETATM   29  C   UNL     1     -11.843  11.108  70.205  1.00  0.00    -0.455 A  
ENDBRANCH  23  24
ENDBRANCH  22  23
ENDBRANCH  21  22
ENDBRANCH  13  21
ENDBRANCH   2   7
TORSDOF 5
ENDMDL
MODEL      154
REMARK 921   NORMALIZED FREE ENERGY PREDICTED BY IDOCK:   -4.32 KCAL/MOL
REMARK 922        TOTAL FREE ENERGY PREDICTED BY IDOCK:   -6.23 KCAL/MOL
REMARK 923 INTER-LIGAND FREE ENERGY PREDICTED BY IDOCK:   -5.59 KCAL/MOL
REMARK 924 INTRA-LIGAND FREE ENERGY PREDICTED BY IDOCK:   -0.64 KCAL/MOL
REMARK 927      BINDING AFFINITY PREDICTED BY RF-SCORE:    0.00 PKD
ROOT
HETATM    1  N   UNL     1      -9.997   6.009  72.103  1.00  0.00    -0.165 N  
HETATM    2  S   UNL     1     -10.492   7.611  72.156  1.00  0.00    -0.236 S  
HETATM    3  H1  UNL     1      -9.006   6.052  71.866  1.00  0.00     0.000 HD 
HETATM    4  H2  UNL     1     -10.561   5.176  72.271  1.00  0.00     0.000 HD 
HETATM    5  O   UNL     1     -11.896   7.548  72.493  1.00  0.00    -0.285 OA 
HETATM    6  O   UNL     1      -9.545   8.332  72.969  1.00  0.00    -0.272 OA 
ENDROOT
BRANCH   2   7
HETATM    7  C   UNL     1     -10.341   8.141  70.480  1.00  0.00    -0.202 A  
HETATM    8  C   UNL     1      -9.624   7.330  69.593  1.00  0.00    -0.155 A  
HETATM    9  C   UNL     1      -9.507   7.714  68.254  1.00  0.00    -0.145 A  
HETATM   10  C   UNL     1     -10.084   8.875  67.759  1.00  0.00    -0.210 A  
HETATM   11  N   UNL     1      -9.976   9.330  66.437  1.00  0.00    -0.277 NA 
HETATM   12  C   UNL     1     -10.803   9.670  68.662  1.00  0.00    -0.203 A  
HETATM   13  C   UNL     1      -9.452   8.617  65.495  1.00  0.00     0.052 C  
HETATM   14  C   UNL     1     -10.938   9.313  70.015  1.00  0.00    -0.229 A  
HETATM   15  N   UNL     1      -8.957   7.322  65.679  1.00  0.00    -0.376 N  
HETATM   16  O   UNL     1      -7.215   6.879  67.403  1.00  0.00    -0.085 OA 
HETATM   17 CL   UNL     1     -11.844  10.390  71.017  1.00  0.00    -0.454 Cl 
HETATM   18  S   UNL     1      -8.625   6.685  67.162  1.00  0.00    -0.112 S  
HETATM   19  H   UNL     1      -8.792   6.744  64.854  1.00  0.00     0.000 HD 
HETATM   20  O   UNL     1      -9.232   5.373  67.197  1.00  0.00    -0.111 OA 
BRANCH  13  21
HETATM   21  C   UNL     1      -9.327   9.161  64.085  1.00  0.00     0.433 C  
BRANCH  21  22
HETATM   22  S   UNL     1      -8.774  10.898  64.087  1.00  0.00     0.085 SA 
BRANCH  22  23
HETATM   23  C   UNL     1     -10.251  11.751  63.427  1.00  0.00    -0.449 C  
BRANCH  23  24
HETATM   24  C   UNL     1     -10.828  12.684  64.462  1.00  0.00    -0.365 A  
HETATM   25  C   UNL     1     -10.522  12.506  65.821  1.00  0.00    -0.296 A  
HETATM   26  C   UNL     1     -11.119  13.309  66.793  1.00  0.00    -0.313 A  
HETATM   27  C   UNL     1     -12.023  14.301  66.419  1.00  0.00    -0.438 A  
HETATM   28  C   UNL     1     -12.317  14.503  65.071  1.00  0.00    -0.353 A  
HETATM   29  C   UNL     1     -11.723  13.699  64.097  1.00  0.00    -0.424 A  
ENDBRANCH  23  24
ENDBRANCH  22  23
ENDBRANCH  21  22
ENDBRANCH  13  21
ENDBRANCH   2   7
TORSDOF 5
ENDMDL
MODEL      155
REMARK 921   NORMALIZED FREE ENERGY PREDICTED BY IDOCK:   -4.30 KCAL/MOL
REMARK 922        TOTAL FREE ENERGY PREDICTED BY IDOCK:   -6.21 KCAL/MOL
REMARK 923 INTER-LIGAND FREE ENERGY PREDICTED BY IDOCK:   -5.88 KCAL/MOL
REMARK 924 INTRA-LIGAND FREE ENERGY PREDICTED BY IDOCK:   -0.33 KCAL/MOL
REMARK 927      BINDING AFFINITY PREDICTED BY RF-SCORE:    0.00 PKD
ROOT
HETATM    1  N   UNL     1     -12.807  14.198  64.936  1.00  0.00    -0.702 N  
HETATM    2  S   UNL     1     -11.400  14.253  65.848  1.00  0.00    -0.334 S  
HETATM    3  H1  UNL     1     -13.504  13.793  65.561  1.00  0.00     0.000 HD 
HETATM    4  H2  UNL     1     -12.938  14.502  63.972  1.00  0.00     0.000 HD 
HETATM    5  O   UNL     1     -10.414  14.828  64.962  1.00  0.00    -0.397 OA 
HETATM    6  O   UNL     1     -11.727  14.855  67.116  1.00  0.00    -0.356 OA 
ENDROOT
BRANCH   2   7
HETATM    7  C   UNL     1     -11.007  12.551  66.096  1.00  0.00    -0.284 A  
HETATM    8  C   UNL     1     -11.049  12.048  67.401  1.00  0.00    -0.337 A  
HETATM    9  C   UNL     1     -10.764  10.697  67.624  1.00  0.00    -0.267 A  
HETATM   10  C   UNL     1     -10.444   9.823  66.595  1.00  0.00    -0.163 A  
HETATM   11  N   UNL     1     -10.117   8.469  66.758  1.00  0.00    -0.277 NA 
HETATM   12  C   UNL     1     -10.413  10.346  65.295  1.00  0.00    -0.178 A  
HETATM   13  C   UNL     1     -10.240   7.853  67.887  1.00  0.00    -0.209 C  
HETATM   14  C   UNL     1     -10.693  11.699  65.036  1.00  0.00    -0.296 A  
HETATM   15  N   UNL     1     -10.724   8.452  69.054  1.00  0.00    -0.392 N  
HETATM   16  O   UNL     1      -9.646  10.512  69.946  1.00  0.00    -0.057 OA 
HETATM   17 CL   UNL     1     -10.611  12.210  63.388  1.00  0.00    -0.478 Cl 
HETATM   18  S   UNL     1     -10.837  10.085  69.252  1.00  0.00    -0.232 S  
HETATM   19  H   UNL     1     -11.021   7.849  69.822  1.00  0.00     0.000 HD 
HETATM   20  O   UNL     1     -12.159  10.350  69.770  1.00  0.00    -0.228 OA 
BRANCH  13  21
HETATM   21  C   UNL     1      -9.847   6.396  68.025  1.00  0.00    -0.123 C  
BRANCH  21  22
HETATM   22  S   UNL     1      -9.294   5.701  66.433  1.00  0.00    -0.156 SA 
BRANCH  22  23
HETATM   23  C   UNL     1      -7.555   6.263  66.375  1.00  0.00    -0.094 C  
BRANCH  23  24
HETATM   24  C   UNL     1      -7.058   6.298  64.952  1.00  0.00    -0.060 A  
HETATM   25  C   UNL     1      -5.868   5.639  64.603  1.00  0.00    -0.021 A  
HETATM   26  C   UNL     1      -5.356   5.738  63.310  1.00  0.00    -0.014 A  
HETATM   27  C   UNL     1      -6.028   6.491  62.349  1.00  0.00    -0.031 A  
HETATM   28  C   UNL     1      -7.222   7.131  62.676  1.00  0.00    -0.075 A  
HETATM   29  C   UNL     1      -7.736   7.036  63.970  1.00  0.00    -0.116 A  
ENDBRANCH  23  24
ENDBRANCH  22  23
ENDBRANCH  21  22
ENDBRANCH  13  21
ENDBRANCH   2   7
TORSDOF 5
ENDMDL
MODEL      156
REMARK 921   NORMALIZED FREE ENERGY PREDICTED BY IDOCK:   -4.29 KCAL/MOL
REMARK 922        TOTAL FREE ENERGY PREDICTED BY IDOCK:   -6.19 KCAL/MOL
REMARK 923 INTER-LIGAND FREE ENERGY PREDICTED BY IDOCK:   -5.83 KCAL/MOL
REMARK 924 INTRA-LIGAND FREE ENERGY PREDICTED BY IDOCK:   -0.37 KCAL/MOL
REMARK 927      BINDING AFFINITY PREDICTED BY RF-SCORE:    0.00 PKD
ROOT
HETATM    1  N   UNL     1      -9.057  14.769  66.222  1.00  0.00    -0.468 N  
HETATM    2  S   UNL     1     -10.369  13.835  65.750  1.00  0.00    -0.316 S  
HETATM    3  H1  UNL     1      -8.361  14.624  65.491  1.00  0.00     0.000 HD 
HETATM    4  H2  UNL     1      -8.975  15.353  67.054  1.00  0.00     0.000 HD 
HETATM    5  O   UNL     1     -11.355  14.041  66.786  1.00  0.00    -0.312 OA 
HETATM    6  O   UNL     1     -10.642  14.136  64.367  1.00  0.00    -0.348 OA 
ENDROOT
BRANCH   2   7
HETATM    7  C   UNL     1      -9.760  12.184  65.876  1.00  0.00    -0.239 A  
HETATM    8  C   UNL     1      -8.891  11.879  66.928  1.00  0.00    -0.197 A  
HETATM    9  C   UNL     1      -8.411  10.572  67.066  1.00  0.00    -0.128 A  
HETATM   10  C   UNL     1      -8.770   9.552  66.197  1.00  0.00    -0.145 A  
HETATM   11  N   UNL     1      -8.299   8.233  66.262  1.00  0.00    -0.118 NA 
HETATM   12  C   UNL     1      -9.648   9.877  65.154  1.00  0.00    -0.367 A  
HETATM   13  C   UNL     1      -7.595   7.792  67.252  1.00  0.00    -0.104 C  
HETATM   14  C   UNL     1     -10.147  11.180  64.986  1.00  0.00    -0.283 A  
HETATM   15  N   UNL     1      -7.243   8.564  68.364  1.00  0.00    -0.084 N  
HETATM   16  O   UNL     1      -6.032  10.719  68.063  1.00  0.00    -0.049 OA 
HETATM   17 CL   UNL     1     -11.213  11.440  63.652  1.00  0.00    -0.452 Cl 
HETATM   18  S   UNL     1      -7.342  10.209  68.390  1.00  0.00    -0.082 S  
HETATM   19  H   UNL     1      -6.907   8.085  69.200  1.00  0.00     0.000 HD 
HETATM   20  O   UNL     1      -8.015  10.566  69.618  1.00  0.00    -0.143 OA 
BRANCH  13  21
HETATM   21  C   UNL     1      -7.081   6.366  67.268  1.00  0.00    -0.073 C  
BRANCH  21  22
HETATM   22  S   UNL     1      -8.213   5.240  66.388  1.00  0.00    -0.109 SA 
BRANCH  22  23
HETATM   23  C   UNL     1      -8.793   4.169  67.752  1.00  0.00    -0.113 C  
BRANCH  23  24
HETATM   24  C   UNL     1      -9.549   4.980  68.775  1.00  0.00    -0.209 A  
HETATM   25  C   UNL     1      -9.239   4.858  70.139  1.00  0.00    -0.185 A  
HETATM   26  C   UNL     1      -9.989   5.537  71.099  1.00  0.00    -0.253 A  
HETATM   27  C   UNL     1     -11.052   6.349  70.708  1.00  0.00    -0.365 A  
HETATM   28  C   UNL     1     -11.354   6.497  69.355  1.00  0.00    -0.395 A  
HETATM   29  C   UNL     1     -10.607   5.816  68.392  1.00  0.00    -0.289 A  
ENDBRANCH  23  24
ENDBRANCH  22  23
ENDBRANCH  21  22
ENDBRANCH  13  21
ENDBRANCH   2   7
TORSDOF 5
ENDMDL
MODEL      157
REMARK 921   NORMALIZED FREE ENERGY PREDICTED BY IDOCK:   -4.29 KCAL/MOL
REMARK 922        TOTAL FREE ENERGY PREDICTED BY IDOCK:   -6.19 KCAL/MOL
REMARK 923 INTER-LIGAND FREE ENERGY PREDICTED BY IDOCK:   -6.13 KCAL/MOL
REMARK 924 INTRA-LIGAND FREE ENERGY PREDICTED BY IDOCK:   -0.06 KCAL/MOL
REMARK 927      BINDING AFFINITY PREDICTED BY RF-SCORE:    0.00 PKD
ROOT
HETATM    1  N   UNL     1     -11.094   5.824  66.210  1.00  0.00    -0.755 N  
HETATM    2  S   UNL     1     -10.221   6.214  67.589  1.00  0.00    -0.202 S  
HETATM    3  H1  UNL     1     -10.404   5.829  65.458  1.00  0.00     0.000 HD 
HETATM    4  H2  UNL     1     -12.091   5.625  66.139  1.00  0.00     0.000 HD 
HETATM    5  O   UNL     1     -11.199   6.206  68.654  1.00  0.00    -0.356 OA 
HETATM    6  O   UNL     1      -9.055   5.368  67.620  1.00  0.00    -0.109 OA 
ENDROOT
BRANCH   2   7
HETATM    7  C   UNL     1      -9.722   7.881  67.298  1.00  0.00    -0.176 A  
HETATM    8  C   UNL     1     -10.486   8.907  67.865  1.00  0.00    -0.281 A  
HETATM    9  C   UNL     1     -10.101  10.238  67.670  1.00  0.00    -0.191 A  
HETATM   10  C   UNL     1      -8.976  10.587  66.936  1.00  0.00    -0.140 A  
HETATM   11  N   UNL     1      -8.556  11.900  66.678  1.00  0.00    -0.184 NA 
HETATM   12  C   UNL     1      -8.221   9.544  66.383  1.00  0.00    -0.115 A  
HETATM   13  C   UNL     1      -9.097  12.928  67.244  1.00  0.00    -0.208 C  
HETATM   14  C   UNL     1      -8.581   8.197  66.558  1.00  0.00    -0.138 A  
HETATM   15  N   UNL     1     -10.135  12.851  68.177  1.00  0.00    -0.235 N  
HETATM   16  O   UNL     1     -12.250  11.668  67.605  1.00  0.00    -0.544 OA 
HETATM   17 CL   UNL     1      -7.565   7.015  65.814  1.00  0.00    -0.090 Cl 
HETATM   18  S   UNL     1     -11.054  11.500  68.395  1.00  0.00    -0.261 S  
HETATM   19  H   UNL     1     -10.333  13.670  68.752  1.00  0.00     0.000 HD 
HETATM   20  O   UNL     1     -11.108  11.257  69.818  1.00  0.00    -0.241 OA 
BRANCH  13  21
HETATM   21  C   UNL     1      -8.631  14.333  66.913  1.00  0.00    -0.146 C  
BRANCH  21  22
HETATM   22  S   UNL     1      -7.358  14.906  68.084  1.00  0.00    -0.130 SA 
BRANCH  22  23
HETATM   23  C   UNL     1      -6.491  16.172  67.089  1.00  0.00    -0.149 C  
BRANCH  23  24
HETATM   24  C   UNL     1      -6.742  17.548  67.651  1.00  0.00    -0.175 A  
HETATM   25  C   UNL     1      -5.727  18.519  67.618  1.00  0.00    -0.158 A  
HETATM   26  C   UNL     1      -5.919  19.766  68.212  1.00  0.00    -0.264 A  
HETATM   27  C   UNL     1      -7.128  20.060  68.840  1.00  0.00    -0.264 A  
HETATM   28  C   UNL     1      -8.152  19.114  68.858  1.00  0.00    -0.329 A  
HETATM   29  C   UNL     1      -7.961  17.864  68.267  1.00  0.00    -0.292 A  
ENDBRANCH  23  24
ENDBRANCH  22  23
ENDBRANCH  21  22
ENDBRANCH  13  21
ENDBRANCH   2   7
TORSDOF 5
ENDMDL
MODEL      158
REMARK 921   NORMALIZED FREE ENERGY PREDICTED BY IDOCK:   -4.27 KCAL/MOL
REMARK 922        TOTAL FREE ENERGY PREDICTED BY IDOCK:   -6.16 KCAL/MOL
REMARK 923 INTER-LIGAND FREE ENERGY PREDICTED BY IDOCK:   -5.93 KCAL/MOL
REMARK 924 INTRA-LIGAND FREE ENERGY PREDICTED BY IDOCK:   -0.24 KCAL/MOL
REMARK 927      BINDING AFFINITY PREDICTED BY RF-SCORE:    0.00 PKD
ROOT
HETATM    1  N   UNL     1     -12.784  13.933  64.793  1.00  0.00    -0.685 N  
HETATM    2  S   UNL     1     -11.370  14.112  65.677  1.00  0.00    -0.327 S  
HETATM    3  H1  UNL     1     -13.437  13.488  65.438  1.00  0.00     0.000 HD 
HETATM    4  H2  UNL     1     -12.954  14.208  63.826  1.00  0.00     0.000 HD 
HETATM    5  O   UNL     1     -10.445  14.743  64.763  1.00  0.00    -0.406 OA 
HETATM    6  O   UNL     1     -11.720  14.711  66.941  1.00  0.00    -0.375 OA 
ENDROOT
BRANCH   2   7
HETATM    7  C   UNL     1     -10.844  12.450  65.948  1.00  0.00    -0.270 A  
HETATM    8  C   UNL     1     -10.816  11.972  67.262  1.00  0.00    -0.290 A  
HETATM    9  C   UNL     1     -10.425  10.651  67.504  1.00  0.00    -0.230 A  
HETATM   10  C   UNL     1     -10.065   9.782  66.484  1.00  0.00    -0.239 A  
HETATM   11  N   UNL     1      -9.634   8.460  66.664  1.00  0.00    -0.209 NA 
HETATM   12  C   UNL     1     -10.106  10.278  65.174  1.00  0.00    -0.355 A  
HETATM   13  C   UNL     1      -9.683   7.860  67.808  1.00  0.00    -0.155 C  
HETATM   14  C   UNL     1     -10.493  11.601  64.897  1.00  0.00    -0.288 A  
HETATM   15  N   UNL     1     -10.181   8.446  68.976  1.00  0.00    -0.204 N  
HETATM   16  O   UNL     1      -9.239  10.599  69.799  1.00  0.00     0.012 OA 
HETATM   17 CL   UNL     1     -10.490  12.082  63.238  1.00  0.00    -0.447 Cl 
HETATM   18  S   UNL     1     -10.411  10.070  69.144  1.00  0.00    -0.233 S  
HETATM   19  H   UNL     1     -10.412   7.839  69.762  1.00  0.00     0.000 HD 
HETATM   20  O   UNL     1     -11.737  10.247  69.692  1.00  0.00    -0.227 OA 
BRANCH  13  21
HETATM   21  C   UNL     1      -9.177   6.440  67.964  1.00  0.00    -0.110 C  
BRANCH  21  22
HETATM   22  S   UNL     1     -10.443   5.360  68.710  1.00  0.00    -0.099 SA 
BRANCH  22  23
HETATM   23  C   UNL     1      -9.410   4.203  69.678  1.00  0.00    -0.171 C  
BRANCH  23  24
HETATM   24  C   UNL     1      -8.679   3.255  68.761  1.00  0.00    -0.145 A  
HETATM   25  C   UNL     1      -7.287   3.104  68.867  1.00  0.00    -0.049 A  
HETATM   26  C   UNL     1      -6.591   2.296  67.968  1.00  0.00    -0.029 A  
HETATM   27  C   UNL     1      -7.277   1.625  66.958  1.00  0.00    -0.050 A  
HETATM   28  C   UNL     1      -8.662   1.747  66.857  1.00  0.00    -0.122 A  
HETATM   29  C   UNL     1      -9.361   2.558  67.753  1.00  0.00    -0.222 A  
ENDBRANCH  23  24
ENDBRANCH  22  23
ENDBRANCH  21  22
ENDBRANCH  13  21
ENDBRANCH   2   7
TORSDOF 5
ENDMDL
MODEL      159
REMARK 921   NORMALIZED FREE ENERGY PREDICTED BY IDOCK:   -4.26 KCAL/MOL
REMARK 922        TOTAL FREE ENERGY PREDICTED BY IDOCK:   -6.15 KCAL/MOL
REMARK 923 INTER-LIGAND FREE ENERGY PREDICTED BY IDOCK:   -5.73 KCAL/MOL
REMARK 924 INTRA-LIGAND FREE ENERGY PREDICTED BY IDOCK:   -0.43 KCAL/MOL
REMARK 927      BINDING AFFINITY PREDICTED BY RF-SCORE:    0.00 PKD
ROOT
HETATM    1  N   UNL     1      -9.638   4.211  69.279  1.00  0.00    -0.189 N  
HETATM    2  S   UNL     1      -8.979   4.416  67.750  1.00  0.00    -0.126 S  
HETATM    3  H1  UNL     1     -10.616   4.483  69.177  1.00  0.00     0.000 HD 
HETATM    4  H2  UNL     1      -9.167   3.886  70.122  1.00  0.00     0.000 HD 
HETATM    5  O   UNL     1      -7.594   4.029  67.894  1.00  0.00    -0.067 OA 
HETATM    6  O   UNL     1      -9.857   3.768  66.808  1.00  0.00    -0.182 OA 
ENDROOT
BRANCH   2   7
HETATM    7  C   UNL     1      -9.051   6.162  67.505  1.00  0.00    -0.109 A  
HETATM    8  C   UNL     1      -9.396   6.968  68.595  1.00  0.00    -0.136 A  
HETATM    9  C   UNL     1      -9.438   8.357  68.435  1.00  0.00    -0.139 A  
HETATM   10  C   UNL     1      -9.143   8.977  67.230  1.00  0.00    -0.133 A  
HETATM   11  N   UNL     1      -9.199  10.359  66.998  1.00  0.00    -0.146 NA 
HETATM   12  C   UNL     1      -8.793   8.152  66.152  1.00  0.00    -0.194 A  
HETATM   13  C   UNL     1      -9.380  11.218  67.946  1.00  0.00    -0.161 C  
HETATM   14  C   UNL     1      -8.743   6.753  66.278  1.00  0.00    -0.146 A  
HETATM   15  N   UNL     1      -9.520  10.875  69.295  1.00  0.00    -0.410 N  
HETATM   16  O   UNL     1     -11.282   9.263  70.001  1.00  0.00    -0.235 OA 
HETATM   17 CL   UNL     1      -8.305   5.859  64.867  1.00  0.00    -0.134 Cl 
HETATM   18  S   UNL     1      -9.854   9.344  69.807  1.00  0.00    -0.216 S  
HETATM   19  H   UNL     1      -9.411  11.608  69.996  1.00  0.00     0.000 HD 
HETATM   20  O   UNL     1      -8.921   9.048  70.870  1.00  0.00    -0.205 OA 
BRANCH  13  21
HETATM   21  C   UNL     1      -9.464  12.701  67.646  1.00  0.00    -0.189 C  
BRANCH  21  22
HETATM   22  S   UNL     1     -10.440  13.022  66.140  1.00  0.00    -0.283 SA 
BRANCH  22  23
HETATM   23  C   UNL     1     -11.905  13.871  66.829  1.00  0.00    -0.424 C  
BRANCH  23  24
HETATM   24  C   UNL     1     -11.483  15.010  67.724  1.00  0.00    -0.347 A  
HETATM   25  C   UNL     1     -10.779  16.102  67.191  1.00  0.00    -0.262 A  
HETATM   26  C   UNL     1     -10.309  17.117  68.024  1.00  0.00    -0.353 A  
HETATM   27  C   UNL     1     -10.543  17.057  69.396  1.00  0.00    -0.236 A  
HETATM   28  C   UNL     1     -11.261  15.991  69.934  1.00  0.00    -0.361 A  
HETATM   29  C   UNL     1     -11.730  14.972  69.104  1.00  0.00    -0.345 A  
ENDBRANCH  23  24
ENDBRANCH  22  23
ENDBRANCH  21  22
ENDBRANCH  13  21
ENDBRANCH   2   7
TORSDOF 5
ENDMDL
MODEL      160
REMARK 921   NORMALIZED FREE ENERGY PREDICTED BY IDOCK:   -4.23 KCAL/MOL
REMARK 922        TOTAL FREE ENERGY PREDICTED BY IDOCK:   -6.11 KCAL/MOL
REMARK 923 INTER-LIGAND FREE ENERGY PREDICTED BY IDOCK:   -5.88 KCAL/MOL
REMARK 924 INTRA-LIGAND FREE ENERGY PREDICTED BY IDOCK:   -0.24 KCAL/MOL
REMARK 927      BINDING AFFINITY PREDICTED BY RF-SCORE:    0.00 PKD
ROOT
HETATM    1  N   UNL     1     -11.702   8.730  72.200  1.00  0.00    -0.369 N  
HETATM    2  S   UNL     1     -12.945   9.645  71.541  1.00  0.00    -0.422 S  
HETATM    3  H1  UNL     1     -11.154   9.395  72.746  1.00  0.00     0.000 HD 
HETATM    4  H2  UNL     1     -11.533   7.732  72.082  1.00  0.00     0.000 HD 
HETATM    5  O   UNL     1     -13.722   8.702  70.768  1.00  0.00     0.188 OA 
HETATM    6  O   UNL     1     -13.528  10.419  72.608  1.00  0.00     0.024 OA 
ENDROOT
BRANCH   2   7
HETATM    7  C   UNL     1     -12.108  10.728  70.428  1.00  0.00    -0.354 A  
HETATM    8  C   UNL     1     -12.266  12.107  70.605  1.00  0.00    -0.392 A  
HETATM    9  C   UNL     1     -11.597  12.990  69.751  1.00  0.00    -0.216 A  
HETATM   10  C   UNL     1     -10.768  12.552  68.728  1.00  0.00    -0.202 A  
HETATM   11  N   UNL     1     -10.097  13.384  67.820  1.00  0.00    -0.227 NA 
HETATM   12  C   UNL     1     -10.619  11.167  68.572  1.00  0.00    -0.219 A  
HETATM   13  C   UNL     1     -10.057  14.669  67.951  1.00  0.00    -0.225 C  
HETATM   14  C   UNL     1     -11.278  10.253  69.411  1.00  0.00    -0.239 A  
HETATM   15  N   UNL     1     -10.655  15.365  69.006  1.00  0.00    -0.236 N  
HETATM   16  O   UNL     1     -13.083  15.085  69.478  1.00  0.00     0.310 OA 
HETATM   17 CL   UNL     1     -11.010   8.575  69.099  1.00  0.00    -0.033 Cl 
HETATM   18  S   UNL     1     -11.792  14.701  69.997  1.00  0.00    -0.327 S  
HETATM   19  H   UNL     1     -10.373  16.332  69.170  1.00  0.00     0.000 HD 
HETATM   20  O   UNL     1     -11.393  15.006  71.352  1.00  0.00    -0.336 OA 
BRANCH  13  21
HETATM   21  C   UNL     1      -9.345  15.533  66.929  1.00  0.00    -0.233 C  
BRANCH  21  22
HETATM   22  S   UNL     1     -10.520  16.579  66.007  1.00  0.00    -0.274 SA 
BRANCH  22  23
HETATM   23  C   UNL     1     -10.611  18.057  67.079  1.00  0.00    -0.308 C  
BRANCH  23  24
HETATM   24  C   UNL     1      -9.239  18.649  67.280  1.00  0.00    -0.297 A  
HETATM   25  C   UNL     1      -8.499  19.103  66.175  1.00  0.00    -0.241 A  
HETATM   26  C   UNL     1      -7.196  19.572  66.340  1.00  0.00    -0.253 A  
HETATM   27  C   UNL     1      -6.619  19.600  67.608  1.00  0.00    -0.254 A  
HETATM   28  C   UNL     1      -7.352  19.174  68.715  1.00  0.00    -0.372 A  
HETATM   29  C   UNL     1      -8.655  18.701  68.553  1.00  0.00    -0.370 A  
ENDBRANCH  23  24
ENDBRANCH  22  23
ENDBRANCH  21  22
ENDBRANCH  13  21
ENDBRANCH   2   7
TORSDOF 5
ENDMDL
MODEL      161
REMARK 921   NORMALIZED FREE ENERGY PREDICTED BY IDOCK:   -4.22 KCAL/MOL
REMARK 922        TOTAL FREE ENERGY PREDICTED BY IDOCK:   -6.10 KCAL/MOL
REMARK 923 INTER-LIGAND FREE ENERGY PREDICTED BY IDOCK:   -5.67 KCAL/MOL
REMARK 924 INTRA-LIGAND FREE ENERGY PREDICTED BY IDOCK:   -0.43 KCAL/MOL
REMARK 927      BINDING AFFINITY PREDICTED BY RF-SCORE:    0.00 PKD
ROOT
HETATM    1  N   UNL     1     -10.512   9.336  71.932  1.00  0.00    -0.210 N  
HETATM    2  S   UNL     1     -10.036   8.926  70.377  1.00  0.00    -0.210 S  
HETATM    3  H1  UNL     1     -11.517   9.497  71.861  1.00  0.00     0.000 HD 
HETATM    4  H2  UNL     1      -9.928   9.408  72.765  1.00  0.00     0.000 HD 
HETATM    5  O   UNL     1      -8.613   8.697  70.480  1.00  0.00    -0.133 OA 
HETATM    6  O   UNL     1     -10.938   7.908  69.900  1.00  0.00    -0.243 OA 
ENDROOT
BRANCH   2   7
HETATM    7  C   UNL     1     -10.301  10.411  69.463  1.00  0.00    -0.237 A  
HETATM    8  C   UNL     1      -9.184  11.076  68.945  1.00  0.00    -0.139 A  
HETATM    9  C   UNL     1      -9.366  12.244  68.197  1.00  0.00    -0.205 A  
HETATM   10  C   UNL     1     -10.622  12.774  67.938  1.00  0.00    -0.221 A  
HETATM   11  N   UNL     1     -10.868  13.955  67.224  1.00  0.00    -0.284 NA 
HETATM   12  C   UNL     1     -11.728  12.089  68.459  1.00  0.00    -0.387 A  
HETATM   13  C   UNL     1      -9.939  14.593  66.590  1.00  0.00    -0.274 C  
HETATM   14  C   UNL     1     -11.580  10.914  69.217  1.00  0.00    -0.318 A  
HETATM   15  N   UNL     1      -8.607  14.174  66.529  1.00  0.00    -0.426 N  
HETATM   16  O   UNL     1      -7.323  13.766  68.623  1.00  0.00    -0.109 OA 
HETATM   17 CL   UNL     1     -13.028  10.179  69.805  1.00  0.00     0.348 Cl 
HETATM   18  S   UNL     1      -7.966  13.048  67.549  1.00  0.00    -0.179 S  
HETATM   19  H   UNL     1      -8.001  14.585  65.818  1.00  0.00     0.000 HD 
HETATM   20  O   UNL     1      -7.248  12.102  66.726  1.00  0.00    -0.053 OA 
BRANCH  13  21
HETATM   21  C   UNL     1     -10.244  15.884  65.856  1.00  0.00    -0.352 C  
BRANCH  21  22
HETATM   22  S   UNL     1      -8.853  17.058  65.969  1.00  0.00    -0.034 SA 
BRANCH  22  23
HETATM   23  C   UNL     1      -9.220  17.906  67.546  1.00  0.00    -0.249 C  
BRANCH  23  24
HETATM   24  C   UNL     1      -7.948  18.174  68.310  1.00  0.00    -0.304 A  
HETATM   25  C   UNL     1      -7.107  17.109  68.675  1.00  0.00    -0.217 A  
HETATM   26  C   UNL     1      -5.973  17.337  69.455  1.00  0.00    -0.228 A  
HETATM   27  C   UNL     1      -5.663  18.629  69.874  1.00  0.00    -0.249 A  
HETATM   28  C   UNL     1      -6.476  19.697  69.499  1.00  0.00    -0.374 A  
HETATM   29  C   UNL     1      -7.613  19.472  68.721  1.00  0.00    -0.386 A  
ENDBRANCH  23  24
ENDBRANCH  22  23
ENDBRANCH  21  22
ENDBRANCH  13  21
ENDBRANCH   2   7
TORSDOF 5
ENDMDL
MODEL      162
REMARK 921   NORMALIZED FREE ENERGY PREDICTED BY IDOCK:   -4.20 KCAL/MOL
REMARK 922        TOTAL FREE ENERGY PREDICTED BY IDOCK:   -6.08 KCAL/MOL
REMARK 923 INTER-LIGAND FREE ENERGY PREDICTED BY IDOCK:   -5.72 KCAL/MOL
REMARK 924 INTRA-LIGAND FREE ENERGY PREDICTED BY IDOCK:   -0.36 KCAL/MOL
REMARK 927      BINDING AFFINITY PREDICTED BY RF-SCORE:    0.00 PKD
ROOT
HETATM    1  N   UNL     1     -11.266  14.602  64.767  1.00  0.00    -0.471 N  
HETATM    2  S   UNL     1     -11.984  13.147  64.342  1.00  0.00    -0.422 S  
HETATM    3  H1  UNL     1     -10.349  14.577  64.322  1.00  0.00     0.000 HD 
HETATM    4  H2  UNL     1     -11.659  15.347  65.342  1.00  0.00     0.000 HD 
HETATM    5  O   UNL     1     -13.284  13.183  64.972  1.00  0.00    -0.694 OA 
HETATM    6  O   UNL     1     -11.833  12.987  62.917  1.00  0.00    -0.191 OA 
ENDROOT
BRANCH   2   7
HETATM    7  C   UNL     1     -10.993  11.945  65.170  1.00  0.00    -0.312 A  
HETATM    8  C   UNL     1     -10.115  11.172  64.403  1.00  0.00    -0.377 A  
HETATM    9  C   UNL     1      -9.300  10.227  65.036  1.00  0.00    -0.237 A  
HETATM   10  C   UNL     1      -9.322  10.025  66.408  1.00  0.00    -0.168 A  
HETATM   11  N   UNL     1      -8.555   9.074  67.097  1.00  0.00    -0.116 NA 
HETATM   12  C   UNL     1     -10.204  10.815  67.159  1.00  0.00    -0.255 A  
HETATM   13  C   UNL     1      -7.620   8.388  66.528  1.00  0.00    -0.088 C  
HETATM   14  C   UNL     1     -11.036  11.772  66.554  1.00  0.00    -0.310 A  
HETATM   15  N   UNL     1      -7.257   8.527  65.184  1.00  0.00    -0.079 N  
HETATM   16  O   UNL     1      -8.965   8.264  63.391  1.00  0.00     0.386 OA 
HETATM   17 CL   UNL     1     -12.080  12.668  67.599  1.00  0.00    -0.294 Cl 
HETATM   18  S   UNL     1      -8.203   9.286  64.067  1.00  0.00    -0.174 S  
HETATM   19  H   UNL     1      -6.364   8.138  64.880  1.00  0.00     0.000 HD 
HETATM   20  O   UNL     1      -7.345  10.200  63.348  1.00  0.00    -0.140 OA 
BRANCH  13  21
HETATM   21  C   UNL     1      -6.837   7.348  67.303  1.00  0.00    -0.078 C  
BRANCH  21  22
HETATM   22  S   UNL     1      -7.621   5.706  67.195  1.00  0.00    -0.097 SA 
BRANCH  22  23
HETATM   23  C   UNL     1      -7.608   5.180  68.947  1.00  0.00    -0.081 C  
BRANCH  23  24
HETATM   24  C   UNL     1      -8.924   5.510  69.607  1.00  0.00    -0.134 A  
HETATM   25  C   UNL     1      -9.902   6.235  68.906  1.00  0.00    -0.155 A  
HETATM   26  C   UNL     1     -11.085   6.620  69.535  1.00  0.00    -0.378 A  
HETATM   27  C   UNL     1     -11.308   6.280  70.869  1.00  0.00    -0.389 A  
HETATM   28  C   UNL     1     -10.356   5.541  71.567  1.00  0.00    -0.282 A  
HETATM   29  C   UNL     1      -9.169   5.157  70.941  1.00  0.00    -0.188 A  
ENDBRANCH  23  24
ENDBRANCH  22  23
ENDBRANCH  21  22
ENDBRANCH  13  21
ENDBRANCH   2   7
TORSDOF 5
ENDMDL
MODEL      163
REMARK 921   NORMALIZED FREE ENERGY PREDICTED BY IDOCK:   -4.18 KCAL/MOL
REMARK 922        TOTAL FREE ENERGY PREDICTED BY IDOCK:   -6.05 KCAL/MOL
REMARK 923 INTER-LIGAND FREE ENERGY PREDICTED BY IDOCK:   -6.36 KCAL/MOL
REMARK 924 INTRA-LIGAND FREE ENERGY PREDICTED BY IDOCK:    0.31 KCAL/MOL
REMARK 927      BINDING AFFINITY PREDICTED BY RF-SCORE:    0.00 PKD
ROOT
HETATM    1  N   UNL     1      -9.544   1.700  69.493  1.00  0.00    -0.050 N  
HETATM    2  S   UNL     1      -8.199   2.570  69.992  1.00  0.00    -0.041 S  
HETATM    3  H1  UNL     1      -9.665   1.952  68.512  1.00  0.00     0.000 HD 
HETATM    4  H2  UNL     1     -10.115   1.062  70.046  1.00  0.00     0.000 HD 
HETATM    5  O   UNL     1      -8.029   2.213  71.382  1.00  0.00    -0.040 OA 
HETATM    6  O   UNL     1      -7.158   2.357  69.018  1.00  0.00    -0.043 OA 
ENDROOT
BRANCH   2   7
HETATM    7  C   UNL     1      -8.741   4.247  69.906  1.00  0.00    -0.070 A  
HETATM    8  C   UNL     1      -9.541   4.735  70.944  1.00  0.00    -0.245 A  
HETATM    9  C   UNL     1      -9.967   6.067  70.914  1.00  0.00    -0.187 A  
HETATM   10  C   UNL     1      -9.620   6.937  69.889  1.00  0.00    -0.156 A  
HETATM   11  N   UNL     1     -10.040   8.271  69.785  1.00  0.00    -0.193 NA 
HETATM   12  C   UNL     1      -8.812   6.429  68.863  1.00  0.00    -0.125 A  
HETATM   13  C   UNL     1     -10.674   8.878  70.734  1.00  0.00    -0.233 C  
HETATM   14  C   UNL     1      -8.369   5.095  68.862  1.00  0.00    -0.087 A  
HETATM   15  N   UNL     1     -10.992   8.289  71.962  1.00  0.00    -0.282 N  
HETATM   16  O   UNL     1     -12.292   6.167  72.036  1.00  0.00    -0.290 OA 
HETATM   17 CL   UNL     1      -7.387   4.601  67.530  1.00  0.00    -0.073 Cl 
HETATM   18  S   UNL     1     -10.949   6.662  72.221  1.00  0.00    -0.257 S  
HETATM   19  H   UNL     1     -11.265   8.897  72.735  1.00  0.00     0.000 HD 
HETATM   20  O   UNL     1     -10.223   6.456  73.454  1.00  0.00    -0.196 OA 
BRANCH  13  21
HETATM   21  C   UNL     1     -11.136  10.312  70.567  1.00  0.00    -0.306 C  
BRANCH  21  22
HETATM   22  S   UNL     1     -12.956  10.430  70.578  1.00  0.00    -0.088 SA 
BRANCH  22  23
HETATM   23  C   UNL     1     -13.245  11.451  72.067  1.00  0.00    -0.327 C  
BRANCH  23  24
HETATM   24  C   UNL     1     -13.249  12.917  71.709  1.00  0.00    -0.479 A  
HETATM   25  C   UNL     1     -12.341  13.413  70.759  1.00  0.00    -0.433 A  
HETATM   26  C   UNL     1     -12.278  14.779  70.485  1.00  0.00    -0.385 A  
HETATM   27  C   UNL     1     -13.124  15.664  71.152  1.00  0.00    -0.523 A  
HETATM   28  C   UNL     1     -14.046  15.181  72.080  1.00  0.00    -0.659 A  
HETATM   29  C   UNL     1     -14.109  13.814  72.358  1.00  0.00    -0.593 A  
ENDBRANCH  23  24
ENDBRANCH  22  23
ENDBRANCH  21  22
ENDBRANCH  13  21
ENDBRANCH   2   7
TORSDOF 5
ENDMDL
MODEL      164
REMARK 921   NORMALIZED FREE ENERGY PREDICTED BY IDOCK:   -4.18 KCAL/MOL
REMARK 922        TOTAL FREE ENERGY PREDICTED BY IDOCK:   -6.05 KCAL/MOL
REMARK 923 INTER-LIGAND FREE ENERGY PREDICTED BY IDOCK:   -5.99 KCAL/MOL
REMARK 924 INTRA-LIGAND FREE ENERGY PREDICTED BY IDOCK:   -0.06 KCAL/MOL
REMARK 927      BINDING AFFINITY PREDICTED BY RF-SCORE:    0.00 PKD
ROOT
HETATM    1  N   UNL     1      -9.272   4.899  63.794  1.00  0.00    -0.349 N  
HETATM    2  S   UNL     1      -8.047   5.721  64.593  1.00  0.00    -0.128 S  
HETATM    3  H1  UNL     1      -9.753   5.616  63.251  1.00  0.00     0.000 HD 
HETATM    4  H2  UNL     1      -9.487   3.903  63.839  1.00  0.00     0.000 HD 
HETATM    5  O   UNL     1      -7.366   4.704  65.362  1.00  0.00    -0.073 OA 
HETATM    6  O   UNL     1      -7.358   6.529  63.619  1.00  0.00    -0.055 OA 
ENDROOT
BRANCH   2   7
HETATM    7  C   UNL     1      -8.922   6.774  65.707  1.00  0.00    -0.016 A  
HETATM    8  C   UNL     1      -8.815   8.157  65.528  1.00  0.00    -0.130 A  
HETATM    9  C   UNL     1      -9.515   9.015  66.383  1.00  0.00    -0.226 A  
HETATM   10  C   UNL     1     -10.326   8.548  67.407  1.00  0.00    -0.286 A  
HETATM   11  N   UNL     1     -11.027   9.355  68.315  1.00  0.00    -0.100 NA 
HETATM   12  C   UNL     1     -10.425   7.159  67.564  1.00  0.00    -0.331 A  
HETATM   13  C   UNL     1     -11.114  10.637  68.183  1.00  0.00    -0.285 C  
HETATM   14  C   UNL     1      -9.733   6.269  66.724  1.00  0.00    -0.156 A  
HETATM   15  N   UNL     1     -10.543  11.355  67.127  1.00  0.00    -0.230 N  
HETATM   16  O   UNL     1      -8.106  11.163  66.653  1.00  0.00    -0.148 OA 
HETATM   17 CL   UNL     1      -9.939   4.583  67.037  1.00  0.00    -0.230 Cl 
HETATM   18  S   UNL     1      -9.383  10.733  66.136  1.00  0.00    -0.190 S  
HETATM   19  H   UNL     1     -10.860  12.311  66.963  1.00  0.00     0.000 HD 
HETATM   20  O   UNL     1      -9.794  11.022  64.781  1.00  0.00    -0.235 OA 
BRANCH  13  21
HETATM   21  C   UNL     1     -11.856  11.476  69.206  1.00  0.00    -0.348 C  
BRANCH  21  22
HETATM   22  S   UNL     1     -12.431  10.462  70.608  1.00  0.00    -0.347 SA 
BRANCH  22  23
HETATM   23  C   UNL     1     -10.861   9.732  71.197  1.00  0.00    -0.263 C  
BRANCH  23  24
HETATM   24  C   UNL     1     -11.115   8.406  71.868  1.00  0.00    -0.378 A  
HETATM   25  C   UNL     1     -10.328   8.007  72.961  1.00  0.00    -0.351 A  
HETATM   26  C   UNL     1     -10.497   6.747  73.534  1.00  0.00    -0.356 A  
HETATM   27  C   UNL     1     -11.457   5.873  73.026  1.00  0.00    -0.151 A  
HETATM   28  C   UNL     1     -12.260   6.266  71.957  1.00  0.00    -0.270 A  
HETATM   29  C   UNL     1     -12.091   7.526  71.380  1.00  0.00    -0.354 A  
ENDBRANCH  23  24
ENDBRANCH  22  23
ENDBRANCH  21  22
ENDBRANCH  13  21
ENDBRANCH   2   7
TORSDOF 5
ENDMDL
MODEL      165
REMARK 921   NORMALIZED FREE ENERGY PREDICTED BY IDOCK:   -4.17 KCAL/MOL
REMARK 922        TOTAL FREE ENERGY PREDICTED BY IDOCK:   -6.03 KCAL/MOL
REMARK 923 INTER-LIGAND FREE ENERGY PREDICTED BY IDOCK:   -5.67 KCAL/MOL
REMARK 924 INTRA-LIGAND FREE ENERGY PREDICTED BY IDOCK:   -0.36 KCAL/MOL
REMARK 927      BINDING AFFINITY PREDICTED BY RF-SCORE:    0.00 PKD
ROOT
HETATM    1  N   UNL     1      -9.390   4.135  69.526  1.00  0.00    -0.151 N  
HETATM    2  S   UNL     1      -8.364   5.438  69.780  1.00  0.00    -0.101 S  
HETATM    3  H1  UNL     1      -9.121   3.770  68.612  1.00  0.00     0.000 HD 
HETATM    4  H2  UNL     1     -10.119   3.786  70.147  1.00  0.00     0.000 HD 
HETATM    5  O   UNL     1      -8.744   5.955  71.075  1.00  0.00    -0.132 OA 
HETATM    6  O   UNL     1      -7.021   4.995  69.502  1.00  0.00    -0.051 OA 
ENDROOT
BRANCH   2   7
HETATM    7  C   UNL     1      -8.861   6.596  68.545  1.00  0.00    -0.122 A  
HETATM    8  C   UNL     1      -9.280   7.865  68.961  1.00  0.00    -0.147 A  
HETATM    9  C   UNL     1      -9.658   8.811  68.003  1.00  0.00    -0.142 A  
HETATM   10  C   UNL     1      -9.629   8.545  66.641  1.00  0.00    -0.227 A  
HETATM   11  N   UNL     1     -10.025   9.437  65.635  1.00  0.00    -0.250 NA 
HETATM   12  C   UNL     1      -9.200   7.270  66.246  1.00  0.00    -0.175 A  
HETATM   13  C   UNL     1     -10.311  10.674  65.874  1.00  0.00    -0.224 C  
HETATM   14  C   UNL     1      -8.815   6.296  67.183  1.00  0.00    -0.109 A  
HETATM   15  N   UNL     1     -10.242  11.261  67.142  1.00  0.00    -0.196 N  
HETATM   16  O   UNL     1     -11.507  10.281  69.049  1.00  0.00    -0.217 OA 
HETATM   17 CL   UNL     1      -8.316   4.766  66.556  1.00  0.00    -0.107 Cl 
HETATM   18  S   UNL     1     -10.162  10.388  68.538  1.00  0.00    -0.183 S  
HETATM   19  H   UNL     1     -10.241  12.280  67.205  1.00  0.00     0.000 HD 
HETATM   20  O   UNL     1      -9.090  10.957  69.323  1.00  0.00    -0.110 OA 
BRANCH  13  21
HETATM   21  C   UNL     1     -10.765  11.597  64.760  1.00  0.00    -0.309 C  
BRANCH  21  22
HETATM   22  S   UNL     1     -11.817  12.943  65.398  1.00  0.00    -0.429 SA 
BRANCH  22  23
HETATM   23  C   UNL     1     -10.916  14.420  64.806  1.00  0.00    -0.397 C  
BRANCH  23  24
HETATM   24  C   UNL     1     -10.777  15.433  65.915  1.00  0.00    -0.343 A  
HETATM   25  C   UNL     1     -10.572  16.788  65.610  1.00  0.00    -0.258 A  
HETATM   26  C   UNL     1     -10.356  17.719  66.626  1.00  0.00    -0.345 A  
HETATM   27  C   UNL     1     -10.347  17.307  67.958  1.00  0.00    -0.353 A  
HETATM   28  C   UNL     1     -10.573  15.969  68.275  1.00  0.00    -0.283 A  
HETATM   29  C   UNL     1     -10.787  15.035  67.259  1.00  0.00    -0.310 A  
ENDBRANCH  23  24
ENDBRANCH  22  23
ENDBRANCH  21  22
ENDBRANCH  13  21
ENDBRANCH   2   7
TORSDOF 5
ENDMDL
MODEL      166
REMARK 921   NORMALIZED FREE ENERGY PREDICTED BY IDOCK:   -4.15 KCAL/MOL
REMARK 922        TOTAL FREE ENERGY PREDICTED BY IDOCK:   -6.01 KCAL/MOL
REMARK 923 INTER-LIGAND FREE ENERGY PREDICTED BY IDOCK:   -5.83 KCAL/MOL
REMARK 924 INTRA-LIGAND FREE ENERGY PREDICTED BY IDOCK:   -0.18 KCAL/MOL
REMARK 927      BINDING AFFINITY PREDICTED BY RF-SCORE:    0.00 PKD
ROOT
HETATM    1  N   UNL     1      -9.826   3.483  67.352  1.00  0.00    -0.254 N  
HETATM    2  S   UNL     1      -8.519   4.531  67.455  1.00  0.00    -0.104 S  
HETATM    3  H1  UNL     1     -10.413   3.875  66.617  1.00  0.00     0.000 HD 
HETATM    4  H2  UNL     1      -9.994   2.641  67.902  1.00  0.00     0.000 HD 
HETATM    5  O   UNL     1      -7.686   3.975  68.497  1.00  0.00    -0.065 OA 
HETATM    6  O   UNL     1      -8.026   4.743  66.117  1.00  0.00    -0.101 OA 
ENDROOT
BRANCH   2   7
HETATM    7  C   UNL     1      -9.241   6.026  68.052  1.00  0.00    -0.115 A  
HETATM    8  C   UNL     1      -9.127   7.175  67.262  1.00  0.00    -0.130 A  
HETATM    9  C   UNL     1      -9.709   8.369  67.700  1.00  0.00    -0.160 A  
HETATM   10  C   UNL     1     -10.409   8.463  68.895  1.00  0.00    -0.215 A  
HETATM   11  N   UNL     1     -10.986   9.635  69.403  1.00  0.00    -0.219 NA 
HETATM   12  C   UNL     1     -10.517   7.298  69.667  1.00  0.00    -0.239 A  
HETATM   13  C   UNL     1     -11.060  10.729  68.718  1.00  0.00    -0.259 C  
HETATM   14  C   UNL     1      -9.943   6.083  69.257  1.00  0.00    -0.163 A  
HETATM   15  N   UNL     1     -10.598  10.861  67.405  1.00  0.00    -0.227 N  
HETATM   16  O   UNL     1      -8.235  10.311  66.847  1.00  0.00    -0.121 OA 
HETATM   17 CL   UNL     1     -10.147   4.730  70.312  1.00  0.00    -0.317 Cl 
HETATM   18  S   UNL     1      -9.570   9.785  66.697  1.00  0.00    -0.200 S  
HETATM   19  H   UNL     1     -10.912  11.664  66.859  1.00  0.00     0.000 HD 
HETATM   20  O   UNL     1     -10.125   9.470  65.401  1.00  0.00    -0.218 OA 
BRANCH  13  21
HETATM   21  C   UNL     1     -11.666  11.982  69.318  1.00  0.00    -0.330 C  
BRANCH  21  22
HETATM   22  S   UNL     1     -11.680  13.355  68.118  1.00  0.00    -0.370 SA 
BRANCH  22  23
HETATM   23  C   UNL     1     -10.056  14.132  68.434  1.00  0.00    -0.238 C  
BRANCH  23  24
HETATM   24  C   UNL     1      -9.993  15.499  67.802  1.00  0.00    -0.222 A  
HETATM   25  C   UNL     1      -9.049  15.769  66.797  1.00  0.00    -0.276 A  
HETATM   26  C   UNL     1      -8.925  17.052  66.266  1.00  0.00    -0.282 A  
HETATM   27  C   UNL     1      -9.744  18.080  66.729  1.00  0.00    -0.323 A  
HETATM   28  C   UNL     1     -10.700  17.821  67.709  1.00  0.00    -0.332 A  
HETATM   29  C   UNL     1     -10.825  16.537  68.244  1.00  0.00    -0.352 A  
ENDBRANCH  23  24
ENDBRANCH  22  23
ENDBRANCH  21  22
ENDBRANCH  13  21
ENDBRANCH   2   7
TORSDOF 5
ENDMDL
MODEL      167
REMARK 921   NORMALIZED FREE ENERGY PREDICTED BY IDOCK:   -4.14 KCAL/MOL
REMARK 922        TOTAL FREE ENERGY PREDICTED BY IDOCK:   -6.00 KCAL/MOL
REMARK 923 INTER-LIGAND FREE ENERGY PREDICTED BY IDOCK:   -5.25 KCAL/MOL
REMARK 924 INTRA-LIGAND FREE ENERGY PREDICTED BY IDOCK:   -0.75 KCAL/MOL
REMARK 927      BINDING AFFINITY PREDICTED BY RF-SCORE:    0.00 PKD
ROOT
HETATM    1  N   UNL     1     -13.586  10.876  72.325  1.00  0.00    -0.466 N  
HETATM    2  S   UNL     1     -12.745  10.415  70.948  1.00  0.00    -0.395 S  
HETATM    3  H1  UNL     1     -12.862  11.094  73.009  1.00  0.00     0.000 HD 
HETATM    4  H2  UNL     1     -14.597  10.928  72.449  1.00  0.00     0.000 HD 
HETATM    5  O   UNL     1     -13.772  10.107  69.979  1.00  0.00     0.330 OA 
HETATM    6  O   UNL     1     -11.738  11.415  70.699  1.00  0.00    -0.298 OA 
ENDROOT
BRANCH   2   7
HETATM    7  C   UNL     1     -11.962   8.910  71.433  1.00  0.00    -0.311 A  
HETATM    8  C   UNL     1     -10.585   8.931  71.678  1.00  0.00    -0.422 A  
HETATM    9  C   UNL     1      -9.942   7.758  72.085  1.00  0.00    -0.193 A  
HETATM   10  C   UNL     1     -10.621   6.561  72.265  1.00  0.00    -0.212 A  
HETATM   11  N   UNL     1     -10.030   5.346  72.640  1.00  0.00    -0.162 NA 
HETATM   12  C   UNL     1     -12.001   6.563  72.021  1.00  0.00    -0.372 A  
HETATM   13  C   UNL     1      -8.797   5.258  73.016  1.00  0.00    -0.116 C  
HETATM   14  C   UNL     1     -12.677   7.724  71.609  1.00  0.00    -0.335 A  
HETATM   15  N   UNL     1      -7.928   6.350  73.109  1.00  0.00    -0.105 N  
HETATM   16  O   UNL     1      -7.542   7.815  71.133  1.00  0.00    -0.076 OA 
HETATM   17 CL   UNL     1     -14.377   7.580  71.336  1.00  0.00    -0.566 Cl 
HETATM   18  S   UNL     1      -8.232   7.807  72.401  1.00  0.00    -0.132 S  
HETATM   19  H   UNL     1      -7.064   6.239  73.640  1.00  0.00     0.000 HD 
HETATM   20  O   UNL     1      -7.992   8.817  73.407  1.00  0.00    -0.410 OA 
BRANCH  13  21
HETATM   21  C   UNL     1      -8.189   3.918  73.383  1.00  0.00    -0.088 C  
BRANCH  21  22
HETATM   22  S   UNL     1      -9.042   2.546  72.539  1.00  0.00    -0.084 SA 
BRANCH  22  23
HETATM   23  C   UNL     1      -8.010   2.342  71.043  1.00  0.00    -0.049 C  
BRANCH  23  24
HETATM   24  C   UNL     1      -8.263   3.466  70.070  1.00  0.00    -0.069 A  
HETATM   25  C   UNL     1      -7.192   4.240  69.592  1.00  0.00    -0.050 A  
HETATM   26  C   UNL     1      -7.424   5.335  68.761  1.00  0.00    -0.074 A  
HETATM   27  C   UNL     1      -8.726   5.667  68.392  1.00  0.00    -0.109 A  
HETATM   28  C   UNL     1      -9.795   4.894  68.841  1.00  0.00    -0.241 A  
HETATM   29  C   UNL     1      -9.566   3.798  69.675  1.00  0.00    -0.242 A  
ENDBRANCH  23  24
ENDBRANCH  22  23
ENDBRANCH  21  22
ENDBRANCH  13  21
ENDBRANCH   2   7
TORSDOF 5
ENDMDL
MODEL      168
REMARK 921   NORMALIZED FREE ENERGY PREDICTED BY IDOCK:   -4.14 KCAL/MOL
REMARK 922        TOTAL FREE ENERGY PREDICTED BY IDOCK:   -6.00 KCAL/MOL
REMARK 923 INTER-LIGAND FREE ENERGY PREDICTED BY IDOCK:   -5.51 KCAL/MOL
REMARK 924 INTRA-LIGAND FREE ENERGY PREDICTED BY IDOCK:   -0.49 KCAL/MOL
REMARK 927      BINDING AFFINITY PREDICTED BY RF-SCORE:    0.00 PKD
ROOT
HETATM    1  N   UNL     1      -8.062   5.489  72.726  1.00  0.00    -0.109 N  
HETATM    2  S   UNL     1      -9.725   5.710  72.737  1.00  0.00    -0.156 S  
HETATM    3  H1  UNL     1      -7.690   6.304  73.213  1.00  0.00     0.000 HD 
HETATM    4  H2  UNL     1      -7.539   4.711  72.324  1.00  0.00     0.000 HD 
HETATM    5  O   UNL     1     -10.252   4.554  72.048  1.00  0.00    -0.192 OA 
HETATM    6  O   UNL     1     -10.112   6.033  74.087  1.00  0.00    -0.221 OA 
ENDROOT
BRANCH   2   7
HETATM    7  C   UNL     1      -9.955   7.127  71.712  1.00  0.00    -0.175 A  
HETATM    8  C   UNL     1      -8.819   7.773  71.214  1.00  0.00    -0.144 A  
HETATM    9  C   UNL     1      -8.972   8.885  70.380  1.00  0.00    -0.182 A  
HETATM   10  C   UNL     1     -10.217   9.377  70.015  1.00  0.00    -0.229 A  
HETATM   11  N   UNL     1     -10.436  10.505  69.210  1.00  0.00    -0.222 NA 
HETATM   12  C   UNL     1     -11.343   8.711  70.519  1.00  0.00    -0.241 A  
HETATM   13  C   UNL     1      -9.481  11.113  68.588  1.00  0.00    -0.193 C  
HETATM   14  C   UNL     1     -11.224   7.592  71.361  1.00  0.00    -0.242 A  
HETATM   15  N   UNL     1      -8.142  10.712  68.629  1.00  0.00    -0.124 N  
HETATM   16  O   UNL     1      -6.974  10.464  70.815  1.00  0.00    -0.313 OA 
HETATM   17 CL   UNL     1     -12.694   6.875  71.915  1.00  0.00    -0.352 Cl 
HETATM   18  S   UNL     1      -7.547   9.667  69.757  1.00  0.00    -0.143 S  
HETATM   19  H   UNL     1      -7.502  11.084  67.928  1.00  0.00     0.000 HD 
HETATM   20  O   UNL     1      -6.772   8.679  69.042  1.00  0.00    -0.050 OA 
BRANCH  13  21
HETATM   21  C   UNL     1      -9.759  12.347  67.753  1.00  0.00    -0.201 C  
BRANCH  21  22
HETATM   22  S   UNL     1      -8.234  13.296  67.439  1.00  0.00    -0.169 SA 
BRANCH  22  23
HETATM   23  C   UNL     1      -8.406  14.667  68.636  1.00  0.00    -0.165 C  
BRANCH  23  24
HETATM   24  C   UNL     1      -9.116  15.836  68.001  1.00  0.00    -0.187 A  
HETATM   25  C   UNL     1      -8.842  16.189  66.669  1.00  0.00    -0.298 A  
HETATM   26  C   UNL     1      -9.428  17.319  66.100  1.00  0.00    -0.204 A  
HETATM   27  C   UNL     1     -10.299  18.106  66.851  1.00  0.00    -0.386 A  
HETATM   28  C   UNL     1     -10.597  17.754  68.166  1.00  0.00    -0.350 A  
HETATM   29  C   UNL     1     -10.010  16.624  68.739  1.00  0.00    -0.265 A  
ENDBRANCH  23  24
ENDBRANCH  22  23
ENDBRANCH  21  22
ENDBRANCH  13  21
ENDBRANCH   2   7
TORSDOF 5
ENDMDL
MODEL      169
REMARK 921   NORMALIZED FREE ENERGY PREDICTED BY IDOCK:   -4.14 KCAL/MOL
REMARK 922        TOTAL FREE ENERGY PREDICTED BY IDOCK:   -6.00 KCAL/MOL
REMARK 923 INTER-LIGAND FREE ENERGY PREDICTED BY IDOCK:   -6.28 KCAL/MOL
REMARK 924 INTRA-LIGAND FREE ENERGY PREDICTED BY IDOCK:    0.28 KCAL/MOL
REMARK 927      BINDING AFFINITY PREDICTED BY RF-SCORE:    0.00 PKD
ROOT
HETATM    1  N   UNL     1     -12.728  13.446  68.418  1.00  0.00     0.389 N  
HETATM    2  S   UNL     1     -11.417  12.610  67.789  1.00  0.00    -0.342 S  
HETATM    3  H1  UNL     1     -13.148  13.910  67.613  1.00  0.00     0.000 HD 
HETATM    4  H2  UNL     1     -13.037  13.483  69.389  1.00  0.00     0.000 HD 
HETATM    5  O   UNL     1     -10.822  11.952  68.931  1.00  0.00    -0.221 OA 
HETATM    6  O   UNL     1     -11.881  11.872  66.642  1.00  0.00    -0.591 OA 
ENDROOT
BRANCH   2   7
HETATM    7  C   UNL     1     -10.331  13.893  67.254  1.00  0.00    -0.257 A  
HETATM    8  C   UNL     1      -9.153  14.106  67.978  1.00  0.00    -0.191 A  
HETATM    9  C   UNL     1      -8.263  15.102  67.563  1.00  0.00    -0.178 A  
HETATM   10  C   UNL     1      -8.498  15.893  66.447  1.00  0.00    -0.313 A  
HETATM   11  N   UNL     1      -7.663  16.927  65.999  1.00  0.00    -0.344 NA 
HETATM   12  C   UNL     1      -9.681  15.659  65.732  1.00  0.00    -0.380 A  
HETATM   13  C   UNL     1      -6.491  17.142  66.500  1.00  0.00    -0.233 C  
HETATM   14  C   UNL     1     -10.597  14.667  66.123  1.00  0.00    -0.312 A  
HETATM   15  N   UNL     1      -5.922  16.369  67.517  1.00  0.00    -0.144 N  
HETATM   16  O   UNL     1      -7.125  16.057  69.675  1.00  0.00    -0.200 OA 
HETATM   17 CL   UNL     1     -12.017  14.494  65.155  1.00  0.00    -0.376 Cl 
HETATM   18  S   UNL     1      -6.795  15.342  68.466  1.00  0.00    -0.118 S  
HETATM   19  H   UNL     1      -4.918  16.445  67.681  1.00  0.00     0.000 HD 
HETATM   20  O   UNL     1      -6.077  14.088  68.492  1.00  0.00    -0.082 OA 
BRANCH  13  21
HETATM   21  C   UNL     1      -5.633  18.290  66.006  1.00  0.00    -0.177 C  
BRANCH  21  22
HETATM   22  S   UNL     1      -6.592  19.439  64.965  1.00  0.00    -0.072 SA 
BRANCH  22  23
HETATM   23  C   UNL     1      -7.624  20.287  66.214  1.00  0.00    -0.219 C  
BRANCH  23  24
HETATM   24  C   UNL     1      -6.932  20.294  67.554  1.00  0.00    -0.320 A  
HETATM   25  C   UNL     1      -5.836  21.143  67.776  1.00  0.00    -0.405 A  
HETATM   26  C   UNL     1      -5.135  21.095  68.982  1.00  0.00    -0.271 A  
HETATM   27  C   UNL     1      -5.525  20.204  69.980  1.00  0.00    -0.298 A  
HETATM   28  C   UNL     1      -6.626  19.373  69.780  1.00  0.00    -0.261 A  
HETATM   29  C   UNL     1      -7.327  19.417  68.574  1.00  0.00    -0.368 A  
ENDBRANCH  23  24
ENDBRANCH  22  23
ENDBRANCH  21  22
ENDBRANCH  13  21
ENDBRANCH   2   7
TORSDOF 5
ENDMDL
MODEL      170
REMARK 921   NORMALIZED FREE ENERGY PREDICTED BY IDOCK:   -4.14 KCAL/MOL
REMARK 922        TOTAL FREE ENERGY PREDICTED BY IDOCK:   -5.99 KCAL/MOL
REMARK 923 INTER-LIGAND FREE ENERGY PREDICTED BY IDOCK:   -5.13 KCAL/MOL
REMARK 924 INTRA-LIGAND FREE ENERGY PREDICTED BY IDOCK:   -0.86 KCAL/MOL
REMARK 927      BINDING AFFINITY PREDICTED BY RF-SCORE:    0.00 PKD
ROOT
HETATM    1  N   UNL     1     -13.358   8.805  73.073  1.00  0.00    -0.715 N  
HETATM    2  S   UNL     1     -13.221   9.832  71.753  1.00  0.00    -0.447 S  
HETATM    3  H1  UNL     1     -12.613   9.097  73.705  1.00  0.00     0.000 HD 
HETATM    4  H2  UNL     1     -14.035   8.056  73.212  1.00  0.00     0.000 HD 
HETATM    5  O   UNL     1     -14.277   9.418  70.857  1.00  0.00    -0.008 OA 
HETATM    6  O   UNL     1     -13.135  11.179  72.258  1.00  0.00    -0.370 OA 
ENDROOT
BRANCH   2   7
HETATM    7  C   UNL     1     -11.672   9.378  71.041  1.00  0.00    -0.323 A  
HETATM    8  C   UNL     1     -11.162   8.107  71.325  1.00  0.00    -0.297 A  
HETATM    9  C   UNL     1      -9.947   7.712  70.756  1.00  0.00    -0.181 A  
HETATM   10  C   UNL     1      -9.220   8.534  69.906  1.00  0.00    -0.154 A  
HETATM   11  N   UNL     1      -7.984   8.209  69.331  1.00  0.00    -0.112 NA 
HETATM   12  C   UNL     1      -9.753   9.800  69.629  1.00  0.00    -0.242 A  
HETATM   13  C   UNL     1      -7.466   7.028  69.411  1.00  0.00    -0.097 C  
HETATM   14  C   UNL     1     -10.970  10.229  70.185  1.00  0.00    -0.314 A  
HETATM   15  N   UNL     1      -8.080   5.949  70.056  1.00  0.00    -0.107 N  
HETATM   16  O   UNL     1      -8.774   6.142  72.439  1.00  0.00    -0.126 OA 
HETATM   17 CL   UNL     1     -11.503  11.817  69.764  1.00  0.00    -0.342 Cl 
HETATM   18  S   UNL     1      -9.335   6.122  71.110  1.00  0.00    -0.164 S  
HETATM   19  H   UNL     1      -7.733   5.008  69.864  1.00  0.00     0.000 HD 
HETATM   20  O   UNL     1     -10.341   5.160  70.720  1.00  0.00    -0.240 OA 
BRANCH  13  21
HETATM   21  C   UNL     1      -6.112   6.728  68.800  1.00  0.00    -0.026 C  
BRANCH  21  22
HETATM   22  S   UNL     1      -6.268   5.695  67.307  1.00  0.00    -0.031 SA 
BRANCH  22  23
HETATM   23  C   UNL     1      -5.916   6.909  65.986  1.00  0.00    -0.035 C  
BRANCH  23  24
HETATM   24  C   UNL     1      -6.894   8.055  66.047  1.00  0.00    -0.057 A  
HETATM   25  C   UNL     1      -6.450   9.343  66.388  1.00  0.00    -0.066 A  
HETATM   26  C   UNL     1      -7.359  10.392  66.532  1.00  0.00    -0.119 A  
HETATM   27  C   UNL     1      -8.720  10.167  66.333  1.00  0.00    -0.140 A  
HETATM   28  C   UNL     1      -9.170   8.898  65.972  1.00  0.00    -0.287 A  
HETATM   29  C   UNL     1      -8.263   7.847  65.829  1.00  0.00    -0.130 A  
ENDBRANCH  23  24
ENDBRANCH  22  23
ENDBRANCH  21  22
ENDBRANCH  13  21
ENDBRANCH   2   7
TORSDOF 5
ENDMDL
MODEL      171
REMARK 921   NORMALIZED FREE ENERGY PREDICTED BY IDOCK:   -4.12 KCAL/MOL
REMARK 922        TOTAL FREE ENERGY PREDICTED BY IDOCK:   -5.98 KCAL/MOL
REMARK 923 INTER-LIGAND FREE ENERGY PREDICTED BY IDOCK:   -5.77 KCAL/MOL
REMARK 924 INTRA-LIGAND FREE ENERGY PREDICTED BY IDOCK:   -0.20 KCAL/MOL
REMARK 927      BINDING AFFINITY PREDICTED BY RF-SCORE:    0.00 PKD
ROOT
HETATM    1  N   UNL     1      -8.843   4.208  63.836  1.00  0.00    -0.121 N  
HETATM    2  S   UNL     1      -7.699   4.991  64.779  1.00  0.00    -0.088 S  
HETATM    3  H1  UNL     1      -9.167   4.918  63.179  1.00  0.00     0.000 HD 
HETATM    4  H2  UNL     1      -9.147   3.237  63.902  1.00  0.00     0.000 HD 
HETATM    5  O   UNL     1      -7.240   3.984  65.709  1.00  0.00    -0.069 OA 
HETATM    6  O   UNL     1      -6.794   5.674  63.889  1.00  0.00    -0.046 OA 
ENDROOT
BRANCH   2   7
HETATM    7  C   UNL     1      -8.649   6.183  65.668  1.00  0.00    -0.145 A  
HETATM    8  C   UNL     1      -8.513   7.530  65.317  1.00  0.00    -0.075 A  
HETATM    9  C   UNL     1      -9.271   8.495  65.990  1.00  0.00    -0.202 A  
HETATM   10  C   UNL     1     -10.168   8.168  66.997  1.00  0.00    -0.308 A  
HETATM   11  N   UNL     1     -10.931   9.089  67.729  1.00  0.00    -0.055 NA 
HETATM   12  C   UNL     1     -10.294   6.812  67.328  1.00  0.00    -0.311 A  
HETATM   13  C   UNL     1     -10.993  10.342  67.422  1.00  0.00    -0.270 C  
HETATM   14  C   UNL     1      -9.546   5.818  66.674  1.00  0.00    -0.152 A  
HETATM   15  N   UNL     1     -10.330  10.913  66.331  1.00  0.00    -0.245 N  
HETATM   16  O   UNL     1      -7.865  10.659  66.088  1.00  0.00    -0.142 OA 
HETATM   17 CL   UNL     1      -9.796   4.189  67.189  1.00  0.00    -0.223 Cl 
HETATM   18  S   UNL     1      -9.100  10.164  65.529  1.00  0.00    -0.194 S  
HETATM   19  H   UNL     1     -10.622  11.838  66.016  1.00  0.00     0.000 HD 
HETATM   20  O   UNL     1      -9.397  10.271  64.119  1.00  0.00    -0.241 OA 
BRANCH  13  21
HETATM   21  C   UNL     1     -11.806  11.309  68.260  1.00  0.00    -0.229 C  
BRANCH  21  22
HETATM   22  S   UNL     1     -10.835  12.786  68.705  1.00  0.00    -0.245 SA 
BRANCH  22  23
HETATM   23  C   UNL     1     -12.012  14.128  68.310  1.00  0.00    -0.332 C  
BRANCH  23  24
HETATM   24  C   UNL     1     -11.292  15.292  67.677  1.00  0.00    -0.315 A  
HETATM   25  C   UNL     1     -11.054  16.461  68.417  1.00  0.00    -0.351 A  
HETATM   26  C   UNL     1     -10.466  17.574  67.816  1.00  0.00    -0.381 A  
HETATM   27  C   UNL     1     -10.106  17.531  66.471  1.00  0.00    -0.331 A  
HETATM   28  C   UNL     1     -10.316  16.368  65.731  1.00  0.00    -0.388 A  
HETATM   29  C   UNL     1     -10.905  15.254  66.330  1.00  0.00    -0.312 A  
ENDBRANCH  23  24
ENDBRANCH  22  23
ENDBRANCH  21  22
ENDBRANCH  13  21
ENDBRANCH   2   7
TORSDOF 5
ENDMDL
MODEL      172
REMARK 921   NORMALIZED FREE ENERGY PREDICTED BY IDOCK:   -4.11 KCAL/MOL
REMARK 922        TOTAL FREE ENERGY PREDICTED BY IDOCK:   -5.96 KCAL/MOL
REMARK 923 INTER-LIGAND FREE ENERGY PREDICTED BY IDOCK:   -5.76 KCAL/MOL
REMARK 924 INTRA-LIGAND FREE ENERGY PREDICTED BY IDOCK:   -0.20 KCAL/MOL
REMARK 927      BINDING AFFINITY PREDICTED BY RF-SCORE:    0.00 PKD
ROOT
HETATM    1  N   UNL     1      -5.706   4.450  70.420  1.00  0.00    -0.012 N  
HETATM    2  S   UNL     1      -6.852   4.505  71.644  1.00  0.00    -0.036 S  
HETATM    3  H1  UNL     1      -5.080   5.230  70.617  1.00  0.00     0.000 HD 
HETATM    4  H2  UNL     1      -5.649   3.784  69.650  1.00  0.00     0.000 HD 
HETATM    5  O   UNL     1      -7.739   3.399  71.365  1.00  0.00    -0.053 OA 
HETATM    6  O   UNL     1      -6.145   4.617  72.896  1.00  0.00    -0.022 OA 
ENDROOT
BRANCH   2   7
HETATM    7  C   UNL     1      -7.716   6.011  71.328  1.00  0.00    -0.110 A  
HETATM    8  C   UNL     1      -9.097   5.947  71.117  1.00  0.00    -0.152 A  
HETATM    9  C   UNL     1      -9.811   7.128  70.886  1.00  0.00    -0.181 A  
HETATM   10  C   UNL     1      -9.202   8.374  70.864  1.00  0.00    -0.160 A  
HETATM   11  N   UNL     1      -9.856   9.588  70.607  1.00  0.00    -0.274 NA 
HETATM   12  C   UNL     1      -7.819   8.416  71.084  1.00  0.00    -0.117 A  
HETATM   13  C   UNL     1     -11.142   9.682  70.521  1.00  0.00    -0.308 C  
HETATM   14  C   UNL     1      -7.071   7.249  71.317  1.00  0.00    -0.064 A  
HETATM   15  N   UNL     1     -12.017   8.605  70.691  1.00  0.00    -0.478 N  
HETATM   16  O   UNL     1     -11.767   6.555  69.300  1.00  0.00    -0.250 OA 
HETATM   17 CL   UNL     1      -5.373   7.448  71.564  1.00  0.00    -0.034 Cl 
HETATM   18  S   UNL     1     -11.531   7.030  70.642  1.00  0.00    -0.332 S  
HETATM   19  H   UNL     1     -13.005   8.803  70.853  1.00  0.00     0.000 HD 
HETATM   20  O   UNL     1     -12.110   6.380  71.795  1.00  0.00    -0.340 OA 
BRANCH  13  21
HETATM   21  C   UNL     1     -11.806  11.009  70.211  1.00  0.00    -0.367 C  
BRANCH  21  22
HETATM   22  S   UNL     1     -10.792  12.012  69.076  1.00  0.00    -0.132 SA 
BRANCH  22  23
HETATM   23  C   UNL     1     -12.045  13.139  68.367  1.00  0.00    -0.181 C  
BRANCH  23  24
HETATM   24  C   UNL     1     -11.480  13.878  67.180  1.00  0.00    -0.370 A  
HETATM   25  C   UNL     1     -11.586  13.329  65.892  1.00  0.00    -0.380 A  
HETATM   26  C   UNL     1     -10.991  13.962  64.801  1.00  0.00    -0.407 A  
HETATM   27  C   UNL     1     -10.290  15.152  64.982  1.00  0.00    -0.377 A  
HETATM   28  C   UNL     1     -10.198  15.720  66.252  1.00  0.00    -0.317 A  
HETATM   29  C   UNL     1     -10.790  15.087  67.346  1.00  0.00    -0.305 A  
ENDBRANCH  23  24
ENDBRANCH  22  23
ENDBRANCH  21  22
ENDBRANCH  13  21
ENDBRANCH   2   7
TORSDOF 5
ENDMDL
MODEL      173
REMARK 921   NORMALIZED FREE ENERGY PREDICTED BY IDOCK:   -4.10 KCAL/MOL
REMARK 922        TOTAL FREE ENERGY PREDICTED BY IDOCK:   -5.95 KCAL/MOL
REMARK 923 INTER-LIGAND FREE ENERGY PREDICTED BY IDOCK:   -5.48 KCAL/MOL
REMARK 924 INTRA-LIGAND FREE ENERGY PREDICTED BY IDOCK:   -0.47 KCAL/MOL
REMARK 927      BINDING AFFINITY PREDICTED BY RF-SCORE:    0.00 PKD
ROOT
HETATM    1  N   UNL     1      -8.705   6.117  63.701  1.00  0.00    -0.259 N  
HETATM    2  S   UNL     1      -7.685   6.752  64.872  1.00  0.00    -0.115 S  
HETATM    3  H1  UNL     1      -8.927   6.908  63.096  1.00  0.00     0.000 HD 
HETATM    4  H2  UNL     1      -9.030   5.155  63.612  1.00  0.00     0.000 HD 
HETATM    5  O   UNL     1      -7.370   5.631  65.728  1.00  0.00    -0.071 OA 
HETATM    6  O   UNL     1      -6.659   7.504  64.194  1.00  0.00    -0.047 OA 
ENDROOT
BRANCH   2   7
HETATM    7  C   UNL     1      -8.727   7.862  65.763  1.00  0.00    -0.135 A  
HETATM    8  C   UNL     1      -9.116   7.507  67.059  1.00  0.00    -0.156 A  
HETATM    9  C   UNL     1      -9.923   8.378  67.797  1.00  0.00    -0.186 A  
HETATM   10  C   UNL     1     -10.355   9.598  67.296  1.00  0.00    -0.249 A  
HETATM   11  N   UNL     1     -11.190  10.499  67.972  1.00  0.00    -0.304 NA 
HETATM   12  C   UNL     1      -9.949   9.938  65.998  1.00  0.00    -0.338 A  
HETATM   13  C   UNL     1     -11.515  10.350  69.214  1.00  0.00    -0.215 C  
HETATM   14  C   UNL     1      -9.139   9.085  65.229  1.00  0.00    -0.167 A  
HETATM   15  N   UNL     1     -11.064   9.299  70.019  1.00  0.00    -0.300 N  
HETATM   16  O   UNL     1     -11.431   6.938  69.321  1.00  0.00    -0.134 OA 
HETATM   17 CL   UNL     1      -8.722   9.627  63.643  1.00  0.00    -0.220 Cl 
HETATM   18  S   UNL     1     -10.383   7.926  69.413  1.00  0.00    -0.220 S  
HETATM   19  H   UNL     1     -11.161   9.387  71.031  1.00  0.00     0.000 HD 
HETATM   20  O   UNL     1      -9.176   7.689  70.172  1.00  0.00    -0.153 OA 
BRANCH  13  21
HETATM   21  C   UNL     1     -12.445  11.332  69.897  1.00  0.00    -0.153 C  
BRANCH  21  22
HETATM   22  S   UNL     1     -11.675  12.976  70.062  1.00  0.00    -0.148 SA 
BRANCH  22  23
HETATM   23  C   UNL     1     -12.024  13.708  68.423  1.00  0.00    -0.356 C  
BRANCH  23  24
HETATM   24  C   UNL     1     -10.788  14.368  67.865  1.00  0.00    -0.256 A  
HETATM   25  C   UNL     1     -10.811  15.729  67.519  1.00  0.00    -0.315 A  
HETATM   26  C   UNL     1      -9.702  16.327  66.922  1.00  0.00    -0.247 A  
HETATM   27  C   UNL     1      -8.555  15.575  66.670  1.00  0.00    -0.325 A  
HETATM   28  C   UNL     1      -8.512  14.230  67.031  1.00  0.00    -0.190 A  
HETATM   29  C   UNL     1      -9.622  13.628  67.626  1.00  0.00    -0.221 A  
ENDBRANCH  23  24
ENDBRANCH  22  23
ENDBRANCH  21  22
ENDBRANCH  13  21
ENDBRANCH   2   7
TORSDOF 5
ENDMDL
MODEL      174
REMARK 921   NORMALIZED FREE ENERGY PREDICTED BY IDOCK:   -4.08 KCAL/MOL
REMARK 922        TOTAL FREE ENERGY PREDICTED BY IDOCK:   -5.92 KCAL/MOL
REMARK 923 INTER-LIGAND FREE ENERGY PREDICTED BY IDOCK:   -5.73 KCAL/MOL
REMARK 924 INTRA-LIGAND FREE ENERGY PREDICTED BY IDOCK:   -0.19 KCAL/MOL
REMARK 927      BINDING AFFINITY PREDICTED BY RF-SCORE:    0.00 PKD
ROOT
HETATM    1  N   UNL     1      -7.821  16.580  68.690  1.00  0.00    -0.213 N  
HETATM    2  S   UNL     1      -8.891  15.883  67.602  1.00  0.00    -0.176 S  
HETATM    3  H1  UNL     1      -6.902  16.246  68.399  1.00  0.00     0.000 HD 
HETATM    4  H2  UNL     1      -8.040  17.200  69.469  1.00  0.00     0.000 HD 
HETATM    5  O   UNL     1     -10.192  16.357  68.015  1.00  0.00    -0.248 OA 
HETATM    6  O   UNL     1      -8.379  16.122  66.276  1.00  0.00    -0.310 OA 
ENDROOT
BRANCH   2   7
HETATM    7  C   UNL     1      -8.780  14.160  67.966  1.00  0.00    -0.177 A  
HETATM    8  C   UNL     1      -9.961  13.469  68.254  1.00  0.00    -0.237 A  
HETATM    9  C   UNL     1      -9.906  12.098  68.525  1.00  0.00    -0.162 A  
HETATM   10  C   UNL     1      -8.717  11.383  68.512  1.00  0.00    -0.149 A  
HETATM   11  N   UNL     1      -8.591  10.018  68.805  1.00  0.00    -0.125 NA 
HETATM   12  C   UNL     1      -7.545  12.093  68.214  1.00  0.00    -0.132 A  
HETATM   13  C   UNL     1      -9.613   9.243  68.963  1.00  0.00    -0.159 C  
HETATM   14  C   UNL     1      -7.566  13.472  67.940  1.00  0.00    -0.151 A  
HETATM   15  N   UNL     1     -10.940   9.666  68.843  1.00  0.00    -0.394 N  
HETATM   16  O   UNL     1     -11.781  11.563  70.220  1.00  0.00    -0.327 OA 
HETATM   17 CL   UNL     1      -6.047  14.220  67.597  1.00  0.00    -0.126 Cl 
HETATM   18  S   UNL     1     -11.388  11.252  68.866  1.00  0.00    -0.306 S  
HETATM   19  H   UNL     1     -11.667   8.958  68.737  1.00  0.00     0.000 HD 
HETATM   20  O   UNL     1     -12.282  11.448  67.748  1.00  0.00    -0.537 OA 
BRANCH  13  21
HETATM   21  C   UNL     1      -9.432   7.778  69.310  1.00  0.00    -0.155 C  
BRANCH  21  22
HETATM   22  S   UNL     1     -11.012   6.874  69.229  1.00  0.00    -0.193 SA 
BRANCH  22  23
HETATM   23  C   UNL     1     -11.032   6.331  67.483  1.00  0.00    -0.350 C  
BRANCH  23  24
HETATM   24  C   UNL     1     -10.134   5.134  67.292  1.00  0.00    -0.235 A  
HETATM   25  C   UNL     1      -9.842   4.671  65.999  1.00  0.00    -0.236 A  
HETATM   26  C   UNL     1      -9.085   3.514  65.814  1.00  0.00    -0.150 A  
HETATM   27  C   UNL     1      -8.606   2.811  66.918  1.00  0.00    -0.116 A  
HETATM   28  C   UNL     1      -8.869   3.273  68.206  1.00  0.00    -0.159 A  
HETATM   29  C   UNL     1      -9.629   4.429  68.394  1.00  0.00    -0.203 A  
ENDBRANCH  23  24
ENDBRANCH  22  23
ENDBRANCH  21  22
ENDBRANCH  13  21
ENDBRANCH   2   7
TORSDOF 5
ENDMDL
MODEL      175
REMARK 921   NORMALIZED FREE ENERGY PREDICTED BY IDOCK:   -4.06 KCAL/MOL
REMARK 922        TOTAL FREE ENERGY PREDICTED BY IDOCK:   -5.90 KCAL/MOL
REMARK 923 INTER-LIGAND FREE ENERGY PREDICTED BY IDOCK:   -5.60 KCAL/MOL
REMARK 924 INTRA-LIGAND FREE ENERGY PREDICTED BY IDOCK:   -0.30 KCAL/MOL
REMARK 927      BINDING AFFINITY PREDICTED BY RF-SCORE:    0.00 PKD
ROOT
HETATM    1  N   UNL     1     -10.066  11.859  62.627  1.00  0.00    -0.239 N  
HETATM    2  S   UNL     1     -11.341  12.376  63.587  1.00  0.00    -0.499 S  
HETATM    3  H1  UNL     1     -10.168  10.845  62.588  1.00  0.00     0.000 HD 
HETATM    4  H2  UNL     1      -9.350  12.431  62.181  1.00  0.00     0.000 HD 
HETATM    5  O   UNL     1     -11.198  13.813  63.642  1.00  0.00     0.062 OA 
HETATM    6  O   UNL     1     -12.541  11.749  63.092  1.00  0.00    -0.514 OA 
ENDROOT
BRANCH   2   7
HETATM    7  C   UNL     1     -10.952  11.713  65.175  1.00  0.00    -0.266 A  
HETATM    8  C   UNL     1     -10.110  10.597  65.236  1.00  0.00    -0.363 A  
HETATM    9  C   UNL     1      -9.767  10.064  66.483  1.00  0.00    -0.200 A  
HETATM   10  C   UNL     1     -10.225  10.604  67.676  1.00  0.00    -0.194 A  
HETATM   11  N   UNL     1      -9.943  10.098  68.953  1.00  0.00    -0.189 NA 
HETATM   12  C   UNL     1     -11.062  11.726  67.593  1.00  0.00    -0.312 A  
HETATM   13  C   UNL     1      -9.084   9.155  69.154  1.00  0.00    -0.144 C  
HETATM   14  C   UNL     1     -11.427  12.285  66.356  1.00  0.00    -0.378 A  
HETATM   15  N   UNL     1      -8.333   8.553  68.140  1.00  0.00    -0.126 N  
HETATM   16  O   UNL     1      -9.472   7.515  66.184  1.00  0.00    -0.136 OA 
HETATM   17 CL   UNL     1     -12.471  13.661  66.402  1.00  0.00    -0.422 Cl 
HETATM   18  S   UNL     1      -8.706   8.686  66.540  1.00  0.00    -0.133 S  
HETATM   19  H   UNL     1      -7.514   8.004  68.403  1.00  0.00     0.000 HD 
HETATM   20  O   UNL     1      -7.483   9.034  65.854  1.00  0.00    -0.092 OA 
BRANCH  13  21
HETATM   21  C   UNL     1      -8.832   8.616  70.549  1.00  0.00    -0.163 C  
BRANCH  21  22
HETATM   22  S   UNL     1      -8.187   6.912  70.498  1.00  0.00    -0.121 SA 
BRANCH  22  23
HETATM   23  C   UNL     1      -9.693   5.965  70.078  1.00  0.00    -0.167 C  
BRANCH  23  24
HETATM   24  C   UNL     1      -9.378   4.494  69.967  1.00  0.00    -0.223 A  
HETATM   25  C   UNL     1      -8.727   3.997  68.826  1.00  0.00    -0.131 A  
HETATM   26  C   UNL     1      -8.509   2.628  68.674  1.00  0.00    -0.095 A  
HETATM   27  C   UNL     1      -8.932   1.741  69.662  1.00  0.00    -0.143 A  
HETATM   28  C   UNL     1      -9.558   2.224  70.810  1.00  0.00    -0.168 A  
HETATM   29  C   UNL     1      -9.780   3.594  70.963  1.00  0.00    -0.243 A  
ENDBRANCH  23  24
ENDBRANCH  22  23
ENDBRANCH  21  22
ENDBRANCH  13  21
ENDBRANCH   2   7
TORSDOF 5
ENDMDL
MODEL      176
REMARK 921   NORMALIZED FREE ENERGY PREDICTED BY IDOCK:   -4.05 KCAL/MOL
REMARK 922        TOTAL FREE ENERGY PREDICTED BY IDOCK:   -5.88 KCAL/MOL
REMARK 923 INTER-LIGAND FREE ENERGY PREDICTED BY IDOCK:   -5.04 KCAL/MOL
REMARK 924 INTRA-LIGAND FREE ENERGY PREDICTED BY IDOCK:   -0.84 KCAL/MOL
REMARK 927      BINDING AFFINITY PREDICTED BY RF-SCORE:    0.00 PKD
ROOT
HETATM    1  N   UNL     1      -8.695  11.810  66.269  1.00  0.00    -0.334 N  
HETATM    2  S   UNL     1     -10.042  11.883  67.268  1.00  0.00    -0.197 S  
HETATM    3  H1  UNL     1      -8.767  10.906  65.804  1.00  0.00     0.000 HD 
HETATM    4  H2  UNL     1      -7.967  12.514  66.153  1.00  0.00     0.000 HD 
HETATM    5  O   UNL     1      -9.939  13.166  67.926  1.00  0.00    -0.220 OA 
HETATM    6  O   UNL     1     -11.190  11.524  66.475  1.00  0.00    -0.310 OA 
ENDROOT
BRANCH   2   7
HETATM    7  C   UNL     1      -9.737  10.616  68.457  1.00  0.00    -0.174 A  
HETATM    8  C   UNL     1      -8.665   9.746  68.235  1.00  0.00    -0.119 A  
HETATM    9  C   UNL     1      -8.386   8.746  69.173  1.00  0.00    -0.125 A  
HETATM   10  C   UNL     1      -9.132   8.583  70.331  1.00  0.00    -0.152 A  
HETATM   11  N   UNL     1      -8.924   7.584  71.292  1.00  0.00    -0.137 NA 
HETATM   12  C   UNL     1     -10.198   9.470  70.539  1.00  0.00    -0.349 A  
HETATM   13  C   UNL     1      -7.898   6.799  71.270  1.00  0.00    -0.101 C  
HETATM   14  C   UNL     1     -10.505  10.484  69.615  1.00  0.00    -0.219 A  
HETATM   15  N   UNL     1      -6.882   6.869  70.311  1.00  0.00    -0.056 N  
HETATM   16  O   UNL     1      -7.433   6.718  67.888  1.00  0.00    -0.094 OA 
HETATM   17 CL   UNL     1     -11.851  11.500  69.993  1.00  0.00    -0.412 Cl 
HETATM   18  S   UNL     1      -7.039   7.683  68.887  1.00  0.00    -0.081 S  
HETATM   19  H   UNL     1      -6.000   6.392  70.503  1.00  0.00     0.000 HD 
HETATM   20  O   UNL     1      -5.853   8.494  68.738  1.00  0.00    -0.042 OA 
BRANCH  13  21
HETATM   21  C   UNL     1      -7.727   5.711  72.312  1.00  0.00    -0.102 C  
BRANCH  21  22
HETATM   22  S   UNL     1      -8.049   4.060  71.609  1.00  0.00    -0.079 SA 
BRANCH  22  23
HETATM   23  C   UNL     1      -9.835   4.167  71.230  1.00  0.00    -0.179 C  
BRANCH  23  24
HETATM   24  C   UNL     1     -10.046   4.545  69.785  1.00  0.00    -0.177 A  
HETATM   25  C   UNL     1      -9.423   3.807  68.766  1.00  0.00    -0.220 A  
HETATM   26  C   UNL     1      -9.542   4.199  67.433  1.00  0.00    -0.222 A  
HETATM   27  C   UNL     1     -10.288   5.329  67.102  1.00  0.00    -0.268 A  
HETATM   28  C   UNL     1     -10.931   6.056  68.103  1.00  0.00    -0.340 A  
HETATM   29  C   UNL     1     -10.811   5.667  69.438  1.00  0.00    -0.334 A  
ENDBRANCH  23  24
ENDBRANCH  22  23
ENDBRANCH  21  22
ENDBRANCH  13  21
ENDBRANCH   2   7
TORSDOF 5
ENDMDL
MODEL      177
REMARK 921   NORMALIZED FREE ENERGY PREDICTED BY IDOCK:   -4.04 KCAL/MOL
REMARK 922        TOTAL FREE ENERGY PREDICTED BY IDOCK:   -5.86 KCAL/MOL
REMARK 923 INTER-LIGAND FREE ENERGY PREDICTED BY IDOCK:   -5.27 KCAL/MOL
REMARK 924 INTRA-LIGAND FREE ENERGY PREDICTED BY IDOCK:   -0.60 KCAL/MOL
REMARK 927      BINDING AFFINITY PREDICTED BY RF-SCORE:    0.00 PKD
ROOT
HETATM    1  N   UNL     1      -6.621   5.822  64.489  1.00  0.00    -0.044 N  
HETATM    2  S   UNL     1      -7.365   4.318  64.477  1.00  0.00    -0.072 S  
HETATM    3  H1  UNL     1      -5.861   5.728  65.163  1.00  0.00     0.000 HD 
HETATM    4  H2  UNL     1      -6.872   6.646  63.944  1.00  0.00     0.000 HD 
HETATM    5  O   UNL     1      -8.442   4.452  63.522  1.00  0.00    -0.098 OA 
HETATM    6  O   UNL     1      -6.334   3.323  64.327  1.00  0.00    -0.022 OA 
ENDROOT
BRANCH   2   7
HETATM    7  C   UNL     1      -8.061   4.194  66.094  1.00  0.00    -0.098 A  
HETATM    8  C   UNL     1      -7.827   5.237  66.995  1.00  0.00    -0.100 A  
HETATM    9  C   UNL     1      -8.385   5.176  68.276  1.00  0.00    -0.096 A  
HETATM   10  C   UNL     1      -9.176   4.115  68.694  1.00  0.00    -0.145 A  
HETATM   11  N   UNL     1      -9.737   3.980  69.972  1.00  0.00    -0.207 NA 
HETATM   12  C   UNL     1      -9.405   3.083  67.773  1.00  0.00    -0.251 A  
HETATM   13  C   UNL     1      -9.702   4.925  70.852  1.00  0.00    -0.195 C  
HETATM   14  C   UNL     1      -8.857   3.114  66.479  1.00  0.00    -0.144 A  
HETATM   15  N   UNL     1      -9.126   6.180  70.628  1.00  0.00    -0.149 N  
HETATM   16  O   UNL     1      -6.753   6.357  69.893  1.00  0.00    -0.049 OA 
HETATM   17 CL   UNL     1      -9.214   1.772  65.451  1.00  0.00    -0.084 Cl 
HETATM   18  S   UNL     1      -8.095   6.490  69.379  1.00  0.00    -0.120 S  
HETATM   19  H   UNL     1      -9.354   6.940  71.269  1.00  0.00     0.000 HD 
HETATM   20  O   UNL     1      -8.555   7.708  68.753  1.00  0.00    -0.128 OA 
BRANCH  13  21
HETATM   21  C   UNL     1     -10.294   4.725  72.233  1.00  0.00    -0.201 C  
BRANCH  21  22
HETATM   22  S   UNL     1     -10.825   6.308  72.966  1.00  0.00    -0.248 SA 
BRANCH  22  23
HETATM   23  C   UNL     1     -12.285   6.711  71.941  1.00  0.00    -0.335 C  
BRANCH  23  24
HETATM   24  C   UNL     1     -12.387   8.201  71.730  1.00  0.00    -0.357 A  
HETATM   25  C   UNL     1     -13.497   8.908  72.219  1.00  0.00    -0.503 A  
HETATM   26  C   UNL     1     -13.643  10.270  71.954  1.00  0.00    -0.292 A  
HETATM   27  C   UNL     1     -12.679  10.941  71.204  1.00  0.00    -0.530 A  
HETATM   28  C   UNL     1     -11.561  10.256  70.733  1.00  0.00    -0.446 A  
HETATM   29  C   UNL     1     -11.414   8.892  70.994  1.00  0.00    -0.351 A  
ENDBRANCH  23  24
ENDBRANCH  22  23
ENDBRANCH  21  22
ENDBRANCH  13  21
ENDBRANCH   2   7
TORSDOF 5
ENDMDL
MODEL      178
REMARK 921   NORMALIZED FREE ENERGY PREDICTED BY IDOCK:   -4.02 KCAL/MOL
REMARK 922        TOTAL FREE ENERGY PREDICTED BY IDOCK:   -5.85 KCAL/MOL
REMARK 923 INTER-LIGAND FREE ENERGY PREDICTED BY IDOCK:   -5.21 KCAL/MOL
REMARK 924 INTRA-LIGAND FREE ENERGY PREDICTED BY IDOCK:   -0.64 KCAL/MOL
REMARK 927      BINDING AFFINITY PREDICTED BY RF-SCORE:    0.00 PKD
ROOT
HETATM    1  N   UNL     1      -9.996  12.002  63.112  1.00  0.00    -0.509 N  
HETATM    2  S   UNL     1     -11.044  12.174  64.411  1.00  0.00    -0.358 S  
HETATM    3  H1  UNL     1     -10.095  11.028  62.829  1.00  0.00     0.000 HD 
HETATM    4  H2  UNL     1      -9.395  12.714  62.698  1.00  0.00     0.000 HD 
HETATM    5  O   UNL     1     -10.904  13.556  64.813  1.00  0.00    -0.337 OA 
HETATM    6  O   UNL     1     -12.316  11.619  64.021  1.00  0.00    -0.250 OA 
ENDROOT
BRANCH   2   7
HETATM    7  C   UNL     1     -10.322  11.153  65.656  1.00  0.00    -0.254 A  
HETATM    8  C   UNL     1      -9.277  10.300  65.286  1.00  0.00    -0.244 A  
HETATM    9  C   UNL     1      -8.671   9.496  66.257  1.00  0.00    -0.143 A  
HETATM   10  C   UNL     1      -9.061   9.513  67.588  1.00  0.00    -0.120 A  
HETATM   11  N   UNL     1      -8.517   8.709  68.600  1.00  0.00    -0.129 NA 
HETATM   12  C   UNL     1     -10.106  10.379  67.939  1.00  0.00    -0.200 A  
HETATM   13  C   UNL     1      -7.469   7.975  68.418  1.00  0.00    -0.103 C  
HETATM   14  C   UNL     1     -10.737  11.199  66.988  1.00  0.00    -0.268 A  
HETATM   15  N   UNL     1      -6.758   7.912  67.216  1.00  0.00    -0.067 N  
HETATM   16  O   UNL     1      -7.924   7.310  65.100  1.00  0.00    -0.117 OA 
HETATM   17 CL   UNL     1     -12.015  12.212  67.559  1.00  0.00    -0.287 Cl 
HETATM   18  S   UNL     1      -7.362   8.452  65.780  1.00  0.00    -0.073 S  
HETATM   19  H   UNL     1      -5.819   7.512  67.227  1.00  0.00     0.000 HD 
HETATM   20  O   UNL     1      -6.335   9.271  65.178  1.00  0.00    -0.067 OA 
BRANCH  13  21
HETATM   21  C   UNL     1      -6.931   7.098  69.532  1.00  0.00    -0.058 C  
BRANCH  21  22
HETATM   22  S   UNL     1      -7.028   5.331  69.093  1.00  0.00    -0.057 SA 
BRANCH  22  23
HETATM   23  C   UNL     1      -8.834   5.095  68.932  1.00  0.00    -0.092 C  
BRANCH  23  24
HETATM   24  C   UNL     1      -9.475   4.974  70.291  1.00  0.00    -0.237 A  
HETATM   25  C   UNL     1      -9.027   3.999  71.198  1.00  0.00    -0.161 A  
HETATM   26  C   UNL     1      -9.669   3.822  72.423  1.00  0.00    -0.213 A  
HETATM   27  C   UNL     1     -10.761   4.619  72.760  1.00  0.00    -0.273 A  
HETATM   28  C   UNL     1     -11.200   5.606  71.879  1.00  0.00    -0.246 A  
HETATM   29  C   UNL     1     -10.561   5.784  70.651  1.00  0.00    -0.346 A  
ENDBRANCH  23  24
ENDBRANCH  22  23
ENDBRANCH  21  22
ENDBRANCH  13  21
ENDBRANCH   2   7
TORSDOF 5
ENDMDL
MODEL      179
REMARK 921   NORMALIZED FREE ENERGY PREDICTED BY IDOCK:   -3.99 KCAL/MOL
REMARK 922        TOTAL FREE ENERGY PREDICTED BY IDOCK:   -5.80 KCAL/MOL
REMARK 923 INTER-LIGAND FREE ENERGY PREDICTED BY IDOCK:   -5.67 KCAL/MOL
REMARK 924 INTRA-LIGAND FREE ENERGY PREDICTED BY IDOCK:   -0.13 KCAL/MOL
REMARK 927      BINDING AFFINITY PREDICTED BY RF-SCORE:    0.00 PKD
ROOT
HETATM    1  N   UNL     1     -10.870  15.265  67.382  1.00  0.00    -0.298 N  
HETATM    2  S   UNL     1     -11.318  13.960  66.427  1.00  0.00    -0.339 S  
HETATM    3  H1  UNL     1      -9.901  15.076  67.639  1.00  0.00     0.000 HD 
HETATM    4  H2  UNL     1     -11.439  16.069  67.646  1.00  0.00     0.000 HD 
HETATM    5  O   UNL     1     -12.691  14.228  66.063  1.00  0.00    -0.430 OA 
HETATM    6  O   UNL     1     -10.289  13.773  65.435  1.00  0.00    -0.305 OA 
ENDROOT
BRANCH   2   7
HETATM    7  C   UNL     1     -11.292  12.602  67.554  1.00  0.00    -0.308 A  
HETATM    8  C   UNL     1     -10.689  11.411  67.138  1.00  0.00    -0.292 A  
HETATM    9  C   UNL     1     -10.634  10.325  68.018  1.00  0.00    -0.231 A  
HETATM   10  C   UNL     1     -11.153  10.382  69.304  1.00  0.00    -0.253 A  
HETATM   11  N   UNL     1     -11.158   9.321  70.220  1.00  0.00    -0.248 NA 
HETATM   12  C   UNL     1     -11.747  11.587  69.703  1.00  0.00    -0.419 A  
HETATM   13  C   UNL     1     -10.525   8.214  70.008  1.00  0.00    -0.231 C  
HETATM   14  C   UNL     1     -11.820  12.696  68.843  1.00  0.00    -0.302 A  
HETATM   15  N   UNL     1      -9.759   7.959  68.867  1.00  0.00    -0.156 N  
HETATM   16  O   UNL     1     -10.775   8.169  66.603  1.00  0.00    -0.210 OA 
HETATM   17 CL   UNL     1     -12.587  14.114  69.463  1.00  0.00    -0.156 Cl 
HETATM   18  S   UNL     1      -9.866   8.856  67.488  1.00  0.00    -0.199 S  
HETATM   19  H   UNL     1      -9.102   7.178  68.888  1.00  0.00     0.000 HD 
HETATM   20  O   UNL     1      -8.513   9.177  67.095  1.00  0.00    -0.119 OA 
BRANCH  13  21
HETATM   21  C   UNL     1     -10.582   7.081  71.013  1.00  0.00    -0.218 C  
BRANCH  21  22
HETATM   22  S   UNL     1     -10.816   7.705  72.710  1.00  0.00    -0.389 SA 
BRANCH  22  23
HETATM   23  C   UNL     1      -9.233   8.574  72.999  1.00  0.00    -0.073 C  
BRANCH  23  24
HETATM   24  C   UNL     1      -8.074   7.730  72.533  1.00  0.00    -0.156 A  
HETATM   25  C   UNL     1      -7.193   8.219  71.555  1.00  0.00    -0.087 A  
HETATM   26  C   UNL     1      -6.170   7.414  71.055  1.00  0.00    -0.036 A  
HETATM   27  C   UNL     1      -6.012   6.113  71.529  1.00  0.00    -0.035 A  
HETATM   28  C   UNL     1      -6.865   5.623  72.517  1.00  0.00    -0.077 A  
HETATM   29  C   UNL     1      -7.891   6.427  73.017  1.00  0.00    -0.105 A  
ENDBRANCH  23  24
ENDBRANCH  22  23
ENDBRANCH  21  22
ENDBRANCH  13  21
ENDBRANCH   2   7
TORSDOF 5
ENDMDL
MODEL      180
REMARK 921   NORMALIZED FREE ENERGY PREDICTED BY IDOCK:   -3.98 KCAL/MOL
REMARK 922        TOTAL FREE ENERGY PREDICTED BY IDOCK:   -5.80 KCAL/MOL
REMARK 923 INTER-LIGAND FREE ENERGY PREDICTED BY IDOCK:   -5.32 KCAL/MOL
REMARK 924 INTRA-LIGAND FREE ENERGY PREDICTED BY IDOCK:   -0.48 KCAL/MOL
REMARK 927      BINDING AFFINITY PREDICTED BY RF-SCORE:    0.00 PKD
ROOT
HETATM    1  N   UNL     1      -8.019   5.057  72.507  1.00  0.00    -0.100 N  
HETATM    2  S   UNL     1      -9.675   5.122  72.769  1.00  0.00    -0.155 S  
HETATM    3  H1  UNL     1      -7.652   5.892  72.962  1.00  0.00     0.000 HD 
HETATM    4  H2  UNL     1      -7.495   4.341  72.005  1.00  0.00     0.000 HD 
HETATM    5  O   UNL     1     -10.193   3.937  72.124  1.00  0.00    -0.177 OA 
HETATM    6  O   UNL     1      -9.883   5.378  74.172  1.00  0.00    -0.162 OA 
ENDROOT
BRANCH   2   7
HETATM    7  C   UNL     1     -10.180   6.534  71.839  1.00  0.00    -0.194 A  
HETATM    8  C   UNL     1      -9.197   7.271  71.172  1.00  0.00    -0.156 A  
HETATM    9  C   UNL     1      -9.571   8.382  70.408  1.00  0.00    -0.169 A  
HETATM   10  C   UNL     1     -10.893   8.784  70.277  1.00  0.00    -0.231 A  
HETATM   11  N   UNL     1     -11.328   9.904  69.555  1.00  0.00    -0.173 NA 
HETATM   12  C   UNL     1     -11.863   8.027  70.948  1.00  0.00    -0.236 A  
HETATM   13  C   UNL     1     -10.541  10.592  68.795  1.00  0.00    -0.206 C  
HETATM   14  C   UNL     1     -11.520   6.907  71.724  1.00  0.00    -0.275 A  
HETATM   15  N   UNL     1      -9.190  10.293  68.595  1.00  0.00    -0.151 N  
HETATM   16  O   UNL     1      -7.647  10.100  70.539  1.00  0.00    -0.269 OA 
HETATM   17 CL   UNL     1     -12.817   6.072  72.502  1.00  0.00     0.166 Cl 
HETATM   18  S   UNL     1      -8.335   9.278  69.573  1.00  0.00    -0.142 S  
HETATM   19  H   UNL     1      -8.709  10.724  67.805  1.00  0.00     0.000 HD 
HETATM   20  O   UNL     1      -7.627   8.363  68.707  1.00  0.00    -0.096 OA 
BRANCH  13  21
HETATM   21  C   UNL     1     -11.047  11.815  68.055  1.00  0.00    -0.242 C  
BRANCH  21  22
HETATM   22  S   UNL     1      -9.830  13.172  68.101  1.00  0.00    -0.228 SA 
BRANCH  22  23
HETATM   23  C   UNL     1     -10.919  14.640  68.047  1.00  0.00    -0.267 C  
BRANCH  23  24
HETATM   24  C   UNL     1     -11.402  14.990  69.432  1.00  0.00    -0.314 A  
HETATM   25  C   UNL     1     -12.579  14.413  69.935  1.00  0.00    -0.217 A  
HETATM   26  C   UNL     1     -13.081  14.795  71.180  1.00  0.00    -0.443 A  
HETATM   27  C   UNL     1     -12.409  15.752  71.938  1.00  0.00    -0.533 A  
HETATM   28  C   UNL     1     -11.227  16.315  71.460  1.00  0.00    -0.035 A  
HETATM   29  C   UNL     1     -10.724  15.936  70.214  1.00  0.00    -0.313 A  
ENDBRANCH  23  24
ENDBRANCH  22  23
ENDBRANCH  21  22
ENDBRANCH  13  21
ENDBRANCH   2   7
TORSDOF 5
ENDMDL
MODEL      181
REMARK 921   NORMALIZED FREE ENERGY PREDICTED BY IDOCK:   -3.98 KCAL/MOL
REMARK 922        TOTAL FREE ENERGY PREDICTED BY IDOCK:   -5.79 KCAL/MOL
REMARK 923 INTER-LIGAND FREE ENERGY PREDICTED BY IDOCK:   -5.54 KCAL/MOL
REMARK 924 INTRA-LIGAND FREE ENERGY PREDICTED BY IDOCK:   -0.24 KCAL/MOL
REMARK 927      BINDING AFFINITY PREDICTED BY RF-SCORE:    0.00 PKD
ROOT
HETATM    1  N   UNL     1     -10.770  19.744  68.193  1.00  0.00    -0.344 N  
HETATM    2  S   UNL     1      -9.759  19.461  66.885  1.00  0.00    -0.370 S  
HETATM    3  H1  UNL     1     -10.160  19.692  69.008  1.00  0.00     0.000 HD 
HETATM    4  H2  UNL     1     -11.773  19.929  68.177  1.00  0.00     0.000 HD 
HETATM    5  O   UNL     1     -10.625  19.536  65.731  1.00  0.00    -0.508 OA 
HETATM    6  O   UNL     1      -8.609  20.318  67.031  1.00  0.00    -0.328 OA 
ENDROOT
BRANCH   2   7
HETATM    7  C   UNL     1      -9.264  17.782  67.107  1.00  0.00    -0.253 A  
HETATM    8  C   UNL     1     -10.113  16.934  67.826  1.00  0.00    -0.292 A  
HETATM    9  C   UNL     1      -9.757  15.592  67.998  1.00  0.00    -0.207 A  
HETATM   10  C   UNL     1      -8.588  15.058  67.474  1.00  0.00    -0.180 A  
HETATM   11  N   UNL     1      -8.161  13.733  67.639  1.00  0.00    -0.163 NA 
HETATM   12  C   UNL     1      -7.756  15.923  66.752  1.00  0.00    -0.245 A  
HETATM   13  C   UNL     1      -8.907  12.821  68.170  1.00  0.00    -0.194 C  
HETATM   14  C   UNL     1      -8.083  17.277  66.562  1.00  0.00    -0.278 A  
HETATM   15  N   UNL     1     -10.213  13.044  68.619  1.00  0.00    -0.372 N  
HETATM   16  O   UNL     1     -10.678  14.831  70.289  1.00  0.00    -0.115 OA 
HETATM   17 CL   UNL     1      -6.961  18.230  65.658  1.00  0.00    -0.287 Cl 
HETATM   18  S   UNL     1     -10.833  14.548  68.882  1.00  0.00    -0.260 S  
HETATM   19  H   UNL     1     -10.811  12.235  68.792  1.00  0.00     0.000 HD 
HETATM   20  O   UNL     1     -12.124  14.585  68.234  1.00  0.00    -0.292 OA 
BRANCH  13  21
HETATM   21  C   UNL     1      -8.393  11.407  68.357  1.00  0.00    -0.153 C  
BRANCH  21  22
HETATM   22  S   UNL     1      -6.571  11.358  68.377  1.00  0.00    -0.066 SA 
BRANCH  22  23
HETATM   23  C   UNL     1      -6.199  10.948  66.635  1.00  0.00    -0.113 C  
BRANCH  23  24
HETATM   24  C   UNL     1      -7.184   9.935  66.108  1.00  0.00    -0.104 A  
HETATM   25  C   UNL     1      -7.250   8.654  66.679  1.00  0.00    -0.081 A  
HETATM   26  C   UNL     1      -8.096   7.682  66.144  1.00  0.00    -0.118 A  
HETATM   27  C   UNL     1      -8.889   7.981  65.038  1.00  0.00     0.126 A  
HETATM   28  C   UNL     1      -8.850   9.257  64.477  1.00  0.00    -0.203 A  
HETATM   29  C   UNL     1      -8.002  10.230  65.008  1.00  0.00    -0.144 A  
ENDBRANCH  23  24
ENDBRANCH  22  23
ENDBRANCH  21  22
ENDBRANCH  13  21
ENDBRANCH   2   7
TORSDOF 5
ENDMDL
MODEL      182
REMARK 921   NORMALIZED FREE ENERGY PREDICTED BY IDOCK:   -3.94 KCAL/MOL
REMARK 922        TOTAL FREE ENERGY PREDICTED BY IDOCK:   -5.74 KCAL/MOL
REMARK 923 INTER-LIGAND FREE ENERGY PREDICTED BY IDOCK:   -5.40 KCAL/MOL
REMARK 924 INTRA-LIGAND FREE ENERGY PREDICTED BY IDOCK:   -0.35 KCAL/MOL
REMARK 927      BINDING AFFINITY PREDICTED BY RF-SCORE:    0.00 PKD
ROOT
HETATM    1  N   UNL     1     -10.485   3.366  64.460  1.00  0.00    -0.437 N  
HETATM    2  S   UNL     1      -8.845   3.683  64.611  1.00  0.00    -0.124 S  
HETATM    3  H1  UNL     1     -10.848   4.140  63.904  1.00  0.00     0.000 HD 
HETATM    4  H2  UNL     1     -11.005   2.575  64.839  1.00  0.00     0.000 HD 
HETATM    5  O   UNL     1      -8.332   2.585  65.399  1.00  0.00    -0.090 OA 
HETATM    6  O   UNL     1      -8.336   3.979  63.296  1.00  0.00    -0.088 OA 
ENDROOT
BRANCH   2   7
HETATM    7  C   UNL     1      -8.801   5.147  65.595  1.00  0.00    -0.146 A  
HETATM    8  C   UNL     1      -8.377   6.336  64.990  1.00  0.00    -0.099 A  
HETATM    9  C   UNL     1      -8.353   7.516  65.740  1.00  0.00    -0.142 A  
HETATM   10  C   UNL     1      -8.743   7.562  67.071  1.00  0.00    -0.127 A  
HETATM   11  N   UNL     1      -8.712   8.704  67.883  1.00  0.00    -0.137 NA 
HETATM   12  C   UNL     1      -9.171   6.361  67.655  1.00  0.00    -0.116 A  
HETATM   13  C   UNL     1      -8.463   9.883  67.417  1.00  0.00    -0.118 C  
HETATM   14  C   UNL     1      -9.205   5.157  66.931  1.00  0.00    -0.118 A  
HETATM   15  N   UNL     1      -8.217  10.155  66.067  1.00  0.00    -0.127 N  
HETATM   16  O   UNL     1      -6.399   8.958  64.858  1.00  0.00    -0.064 OA 
HETATM   17 CL   UNL     1      -9.745   3.753  67.779  1.00  0.00    -0.187 Cl 
HETATM   18  S   UNL     1      -7.838   8.988  64.967  1.00  0.00    -0.120 S  
HETATM   19  H   UNL     1      -8.276  11.122  65.749  1.00  0.00     0.000 HD 
HETATM   20  O   UNL     1      -8.685   9.209  63.817  1.00  0.00    -0.197 OA 
BRANCH  13  21
HETATM   21  C   UNL     1      -8.408  11.087  68.337  1.00  0.00    -0.139 C  
BRANCH  21  22
HETATM   22  S   UNL     1     -10.071  11.775  68.632  1.00  0.00    -0.149 SA 
BRANCH  22  23
HETATM   23  C   UNL     1      -9.947  13.396  67.795  1.00  0.00    -0.233 C  
BRANCH  23  24
HETATM   24  C   UNL     1     -10.730  13.386  66.506  1.00  0.00    -0.287 A  
HETATM   25  C   UNL     1     -10.127  12.940  65.318  1.00  0.00    -0.254 A  
HETATM   26  C   UNL     1     -10.813  13.007  64.106  1.00  0.00    -0.433 A  
HETATM   27  C   UNL     1     -12.111  13.514  64.066  1.00  0.00    -0.494 A  
HETATM   28  C   UNL     1     -12.729  13.937  65.241  1.00  0.00    -0.485 A  
HETATM   29  C   UNL     1     -12.043  13.874  66.456  1.00  0.00    -0.484 A  
ENDBRANCH  23  24
ENDBRANCH  22  23
ENDBRANCH  21  22
ENDBRANCH  13  21
ENDBRANCH   2   7
TORSDOF 5
ENDMDL
MODEL      183
REMARK 921   NORMALIZED FREE ENERGY PREDICTED BY IDOCK:   -3.94 KCAL/MOL
REMARK 922        TOTAL FREE ENERGY PREDICTED BY IDOCK:   -5.74 KCAL/MOL
REMARK 923 INTER-LIGAND FREE ENERGY PREDICTED BY IDOCK:   -5.57 KCAL/MOL
REMARK 924 INTRA-LIGAND FREE ENERGY PREDICTED BY IDOCK:   -0.17 KCAL/MOL
REMARK 927      BINDING AFFINITY PREDICTED BY RF-SCORE:    0.00 PKD
ROOT
HETATM    1  N   UNL     1     -10.468  17.144  69.264  1.00  0.00    -0.323 N  
HETATM    2  S   UNL     1      -9.537  17.004  67.875  1.00  0.00    -0.255 S  
HETATM    3  H1  UNL     1      -9.875  16.781  70.010  1.00  0.00     0.000 HD 
HETATM    4  H2  UNL     1     -11.415  17.511  69.345  1.00  0.00     0.000 HD 
HETATM    5  O   UNL     1     -10.377  17.519  66.819  1.00  0.00    -0.319 OA 
HETATM    6  O   UNL     1      -8.242  17.567  68.161  1.00  0.00    -0.234 OA 
ENDROOT
BRANCH   2   7
HETATM    7  C   UNL     1      -9.378  15.259  67.665  1.00  0.00    -0.199 A  
HETATM    8  C   UNL     1     -10.152  14.640  66.677  1.00  0.00    -0.277 A  
HETATM    9  C   UNL     1     -10.029  13.262  66.473  1.00  0.00    -0.280 A  
HETATM   10  C   UNL     1      -9.158  12.474  67.211  1.00  0.00    -0.189 A  
HETATM   11  N   UNL     1      -9.013  11.086  67.076  1.00  0.00    -0.146 NA 
HETATM   12  C   UNL     1      -8.387  13.115  68.191  1.00  0.00    -0.161 A  
HETATM   13  C   UNL     1      -9.573  10.416  66.124  1.00  0.00    -0.196 C  
HETATM   14  C   UNL     1      -8.487  14.497  68.423  1.00  0.00    -0.163 A  
HETATM   15  N   UNL     1     -10.360  10.992  65.121  1.00  0.00    -0.281 N  
HETATM   16  O   UNL     1     -12.338  12.379  65.723  1.00  0.00    -0.644 OA 
HETATM   17 CL   UNL     1      -7.484  15.153  69.667  1.00  0.00    -0.208 Cl 
HETATM   18  S   UNL     1     -10.989  12.512  65.230  1.00  0.00    -0.304 S  
HETATM   19  H   UNL     1     -10.555  10.445  64.283  1.00  0.00     0.000 HD 
HETATM   20  O   UNL     1     -10.696  13.174  63.979  1.00  0.00    -0.399 OA 
BRANCH  13  21
HETATM   21  C   UNL     1      -9.414   8.911  66.033  1.00  0.00    -0.252 C  
BRANCH  21  22
HETATM   22  S   UNL     1      -7.840   8.361  66.769  1.00  0.00    -0.095 SA 
BRANCH  22  23
HETATM   23  C   UNL     1      -8.324   6.762  67.512  1.00  0.00    -0.122 C  
BRANCH  23  24
HETATM   24  C   UNL     1      -8.041   5.630  66.558  1.00  0.00    -0.105 A  
HETATM   25  C   UNL     1      -6.877   5.644  65.771  1.00  0.00    -0.057 A  
HETATM   26  C   UNL     1      -6.649   4.646  64.824  1.00  0.00    -0.043 A  
HETATM   27  C   UNL     1      -7.576   3.619  64.656  1.00  0.00    -0.076 A  
HETATM   28  C   UNL     1      -8.723   3.581  65.447  1.00  0.00    -0.120 A  
HETATM   29  C   UNL     1      -8.955   4.580  66.394  1.00  0.00    -0.115 A  
ENDBRANCH  23  24
ENDBRANCH  22  23
ENDBRANCH  21  22
ENDBRANCH  13  21
ENDBRANCH   2   7
TORSDOF 5
ENDMDL
MODEL      184
REMARK 921   NORMALIZED FREE ENERGY PREDICTED BY IDOCK:   -3.90 KCAL/MOL
REMARK 922        TOTAL FREE ENERGY PREDICTED BY IDOCK:   -5.69 KCAL/MOL
REMARK 923 INTER-LIGAND FREE ENERGY PREDICTED BY IDOCK:   -4.86 KCAL/MOL
REMARK 924 INTRA-LIGAND FREE ENERGY PREDICTED BY IDOCK:   -0.83 KCAL/MOL
REMARK 927      BINDING AFFINITY PREDICTED BY RF-SCORE:    0.00 PKD
ROOT
HETATM    1  N   UNL     1     -12.116  14.485  68.301  1.00  0.00    -0.571 N  
HETATM    2  S   UNL     1     -11.561  13.821  66.864  1.00  0.00    -0.392 S  
HETATM    3  H1  UNL     1     -11.287  14.891  68.735  1.00  0.00     0.000 HD 
HETATM    4  H2  UNL     1     -13.070  14.483  68.661  1.00  0.00     0.000 HD 
HETATM    5  O   UNL     1     -12.736  13.246  66.249  1.00  0.00    -0.292 OA 
HETATM    6  O   UNL     1     -10.767  14.824  66.199  1.00  0.00    -0.298 OA 
ENDROOT
BRANCH   2   7
HETATM    7  C   UNL     1     -10.510  12.509  67.399  1.00  0.00    -0.219 A  
HETATM    8  C   UNL     1      -9.201  12.469  66.906  1.00  0.00    -0.211 A  
HETATM    9  C   UNL     1      -8.338  11.453  67.331  1.00  0.00    -0.144 A  
HETATM   10  C   UNL     1      -8.727  10.475  68.235  1.00  0.00    -0.135 A  
HETATM   11  N   UNL     1      -7.922   9.415  68.674  1.00  0.00    -0.092 NA 
HETATM   12  C   UNL     1     -10.041  10.537  68.722  1.00  0.00    -0.202 A  
HETATM   13  C   UNL     1      -6.663   9.334  68.396  1.00  0.00    -0.059 C  
HETATM   14  C   UNL     1     -10.933  11.544  68.314  1.00  0.00    -0.224 A  
HETATM   15  N   UNL     1      -5.965  10.291  67.651  1.00  0.00    -0.052 N  
HETATM   16  O   UNL     1      -6.744  10.917  65.371  1.00  0.00    -0.001 OA 
HETATM   17 CL   UNL     1     -12.523  11.494  68.987  1.00  0.00     0.019 Cl 
HETATM   18  S   UNL     1      -6.709  11.429  66.720  1.00  0.00    -0.113 S  
HETATM   19  H   UNL     1      -4.945  10.283  67.686  1.00  0.00     0.000 HD 
HETATM   20  O   UNL     1      -6.093  12.696  67.040  1.00  0.00    -0.281 OA 
BRANCH  13  21
HETATM   21  C   UNL     1      -5.836   8.154  68.865  1.00  0.00    -0.035 C  
BRANCH  21  22
HETATM   22  S   UNL     1      -6.810   6.613  68.858  1.00  0.00    -0.064 SA 
BRANCH  22  23
HETATM   23  C   UNL     1      -7.169   6.401  70.638  1.00  0.00    -0.074 C  
BRANCH  23  24
HETATM   24  C   UNL     1      -8.466   7.078  71.000  1.00  0.00    -0.133 A  
HETATM   25  C   UNL     1      -9.627   6.826  70.250  1.00  0.00    -0.170 A  
HETATM   26  C   UNL     1     -10.810   7.511  70.522  1.00  0.00    -0.252 A  
HETATM   27  C   UNL     1     -10.850   8.453  71.549  1.00  0.00    -0.323 A  
HETATM   28  C   UNL     1      -9.712   8.695  72.316  1.00  0.00    -0.357 A  
HETATM   29  C   UNL     1      -8.525   8.012  72.044  1.00  0.00    -0.188 A  
ENDBRANCH  23  24
ENDBRANCH  22  23
ENDBRANCH  21  22
ENDBRANCH  13  21
ENDBRANCH   2   7
TORSDOF 5
ENDMDL
MODEL      185
REMARK 921   NORMALIZED FREE ENERGY PREDICTED BY IDOCK:   -3.90 KCAL/MOL
REMARK 922        TOTAL FREE ENERGY PREDICTED BY IDOCK:   -5.69 KCAL/MOL
REMARK 923 INTER-LIGAND FREE ENERGY PREDICTED BY IDOCK:   -5.47 KCAL/MOL
REMARK 924 INTRA-LIGAND FREE ENERGY PREDICTED BY IDOCK:   -0.23 KCAL/MOL
REMARK 927      BINDING AFFINITY PREDICTED BY RF-SCORE:    0.00 PKD
ROOT
HETATM    1  N   UNL     1      -6.600   8.423  66.802  1.00  0.00    -0.056 N  
HETATM    2  S   UNL     1      -7.660   8.816  68.042  1.00  0.00    -0.098 S  
HETATM    3  H1  UNL     1      -5.764   8.975  66.993  1.00  0.00     0.000 HD 
HETATM    4  H2  UNL     1      -6.757   7.776  66.030  1.00  0.00     0.000 HD 
HETATM    5  O   UNL     1      -8.845   8.034  67.771  1.00  0.00    -0.126 OA 
HETATM    6  O   UNL     1      -6.938   8.701  69.284  1.00  0.00    -0.056 OA 
ENDROOT
BRANCH   2   7
HETATM    7  C   UNL     1      -8.029  10.515  67.741  1.00  0.00    -0.106 A  
HETATM    8  C   UNL     1      -9.357  10.936  67.874  1.00  0.00    -0.159 A  
HETATM    9  C   UNL     1      -9.675  12.282  67.663  1.00  0.00    -0.194 A  
HETATM   10  C   UNL     1      -8.718  13.230  67.331  1.00  0.00    -0.206 A  
HETATM   11  N   UNL     1      -8.977  14.584  67.076  1.00  0.00    -0.229 NA 
HETATM   12  C   UNL     1      -7.393  12.789  67.209  1.00  0.00    -0.095 A  
HETATM   13  C   UNL     1     -10.132  15.124  67.286  1.00  0.00    -0.235 C  
HETATM   14  C   UNL     1      -7.040  11.444  67.412  1.00  0.00    -0.114 A  
HETATM   15  N   UNL     1     -11.235  14.434  67.801  1.00  0.00    -0.287 N  
HETATM   16  O   UNL     1     -12.061  12.372  66.677  1.00  0.00    -0.592 OA 
HETATM   17 CL   UNL     1      -5.372  11.039  67.220  1.00  0.00    -0.043 Cl 
HETATM   18  S   UNL     1     -11.329  12.789  67.849  1.00  0.00    -0.315 S  
HETATM   19  H   UNL     1     -12.019  14.976  68.165  1.00  0.00     0.000 HD 
HETATM   20  O   UNL     1     -11.758  12.436  69.183  1.00  0.00    -0.288 OA 
BRANCH  13  21
HETATM   21  C   UNL     1     -10.378  16.585  66.967  1.00  0.00    -0.301 C  
BRANCH  21  22
HETATM   22  S   UNL     1     -10.379  17.605  68.478  1.00  0.00    -0.350 SA 
BRANCH  22  23
HETATM   23  C   UNL     1      -8.588  17.779  68.802  1.00  0.00    -0.203 C  
BRANCH  23  24
HETATM   24  C   UNL     1      -7.944  18.649  67.752  1.00  0.00    -0.267 A  
HETATM   25  C   UNL     1      -8.374  19.975  67.574  1.00  0.00    -0.381 A  
HETATM   26  C   UNL     1      -7.845  20.760  66.550  1.00  0.00     0.017 A  
HETATM   27  C   UNL     1      -6.878  20.233  65.696  1.00  0.00    -0.302 A  
HETATM   28  C   UNL     1      -6.426  18.927  65.877  1.00  0.00    -0.265 A  
HETATM   29  C   UNL     1      -6.955  18.138  66.900  1.00  0.00    -0.216 A  
ENDBRANCH  23  24
ENDBRANCH  22  23
ENDBRANCH  21  22
ENDBRANCH  13  21
ENDBRANCH   2   7
TORSDOF 5
ENDMDL
MODEL      186
REMARK 921   NORMALIZED FREE ENERGY PREDICTED BY IDOCK:   -3.88 KCAL/MOL
REMARK 922        TOTAL FREE ENERGY PREDICTED BY IDOCK:   -5.67 KCAL/MOL
REMARK 923 INTER-LIGAND FREE ENERGY PREDICTED BY IDOCK:   -6.04 KCAL/MOL
REMARK 924 INTRA-LIGAND FREE ENERGY PREDICTED BY IDOCK:    0.37 KCAL/MOL
REMARK 927      BINDING AFFINITY PREDICTED BY RF-SCORE:    0.00 PKD
ROOT
HETATM    1  N   UNL     1      -9.229  19.933  69.032  1.00  0.00    -0.107 N  
HETATM    2  S   UNL     1      -7.961  19.291  68.141  1.00  0.00    -0.319 S  
HETATM    3  H1  UNL     1      -9.117  19.534  69.964  1.00  0.00     0.000 HD 
HETATM    4  H2  UNL     1      -9.950  20.580  68.714  1.00  0.00     0.000 HD 
HETATM    5  O   UNL     1      -8.120  19.857  66.820  1.00  0.00    -0.290 OA 
HETATM    6  O   UNL     1      -6.754  19.472  68.907  1.00  0.00    -0.283 OA 
ENDROOT
BRANCH   2   7
HETATM    7  C   UNL     1      -8.348  17.571  68.063  1.00  0.00    -0.241 A  
HETATM    8  C   UNL     1      -7.423  16.662  68.590  1.00  0.00    -0.211 A  
HETATM    9  C   UNL     1      -7.713  15.294  68.562  1.00  0.00    -0.128 A  
HETATM   10  C   UNL     1      -8.895  14.794  68.035  1.00  0.00    -0.169 A  
HETATM   11  N   UNL     1      -9.230  13.435  67.949  1.00  0.00    -0.207 NA 
HETATM   12  C   UNL     1      -9.811  15.721  67.518  1.00  0.00    -0.229 A  
HETATM   13  C   UNL     1      -8.525  12.507  68.508  1.00  0.00    -0.061 C  
HETATM   14  C   UNL     1      -9.549  17.102  67.529  1.00  0.00    -0.254 A  
HETATM   15  N   UNL     1      -7.376  12.750  69.268  1.00  0.00    -0.316 N  
HETATM   16  O   UNL     1      -5.476  14.031  68.293  1.00  0.00    -0.096 OA 
HETATM   17 CL   UNL     1     -10.762  18.130  66.852  1.00  0.00    -0.308 Cl 
HETATM   18  S   UNL     1      -6.558  14.181  69.236  1.00  0.00    -0.124 S  
HETATM   19  H   UNL     1      -7.027  12.004  69.870  1.00  0.00     0.000 HD 
HETATM   20  O   UNL     1      -6.325  14.557  70.612  1.00  0.00    -0.187 OA 
BRANCH  13  21
HETATM   21  C   UNL     1      -8.907  11.047  68.364  1.00  0.00    -0.151 C  
BRANCH  21  22
HETATM   22  S   UNL     1     -10.281  10.831  67.186  1.00  0.00    -0.224 SA 
BRANCH  22  23
HETATM   23  C   UNL     1     -11.496  12.042  67.817  1.00  0.00    -0.325 C  
BRANCH  23  24
HETATM   24  C   UNL     1     -12.012  11.617  69.168  1.00  0.00    -0.378 A  
HETATM   25  C   UNL     1     -12.222  12.573  70.175  1.00  0.00    -0.307 A  
HETATM   26  C   UNL     1     -12.617  12.181  71.454  1.00  0.00    -0.314 A  
HETATM   27  C   UNL     1     -12.812  10.831  71.740  1.00  0.00    -0.528 A  
HETATM   28  C   UNL     1     -12.630   9.874  70.743  1.00  0.00    -0.324 A  
HETATM   29  C   UNL     1     -12.232  10.264  69.463  1.00  0.00     0.039 A  
ENDBRANCH  23  24
ENDBRANCH  22  23
ENDBRANCH  21  22
ENDBRANCH  13  21
ENDBRANCH   2   7
TORSDOF 5
ENDMDL
MODEL      187
REMARK 921   NORMALIZED FREE ENERGY PREDICTED BY IDOCK:   -3.79 KCAL/MOL
REMARK 922        TOTAL FREE ENERGY PREDICTED BY IDOCK:   -5.54 KCAL/MOL
REMARK 923 INTER-LIGAND FREE ENERGY PREDICTED BY IDOCK:   -5.30 KCAL/MOL
REMARK 924 INTRA-LIGAND FREE ENERGY PREDICTED BY IDOCK:   -0.24 KCAL/MOL
REMARK 927      BINDING AFFINITY PREDICTED BY RF-SCORE:    0.00 PKD
ROOT
HETATM    1  N   UNL     1      -8.209  19.939  68.019  1.00  0.00    -0.289 N  
HETATM    2  S   UNL     1      -9.545  19.346  67.196  1.00  0.00    -0.345 S  
HETATM    3  H1  UNL     1      -7.416  19.724  67.415  1.00  0.00     0.000 HD 
HETATM    4  H2  UNL     1      -8.193  20.411  68.923  1.00  0.00     0.000 HD 
HETATM    5  O   UNL     1     -10.668  19.653  68.053  1.00  0.00    -0.381 OA 
HETATM    6  O   UNL     1      -9.469  19.828  65.840  1.00  0.00    -0.350 OA 
ENDROOT
BRANCH   2   7
HETATM    7  C   UNL     1      -9.291  17.600  67.208  1.00  0.00    -0.249 A  
HETATM    8  C   UNL     1     -10.283  16.793  67.774  1.00  0.00    -0.303 A  
HETATM    9  C   UNL     1     -10.118  15.404  67.777  1.00  0.00    -0.227 A  
HETATM   10  C   UNL     1      -9.003  14.785  67.230  1.00  0.00    -0.198 A  
HETATM   11  N   UNL     1      -8.765  13.403  67.231  1.00  0.00    -0.209 NA 
HETATM   12  C   UNL     1      -8.024  15.611  66.662  1.00  0.00    -0.185 A  
HETATM   13  C   UNL     1      -9.654  12.543  67.606  1.00  0.00    -0.190 C  
HETATM   14  C   UNL     1      -8.158  17.010  66.644  1.00  0.00    -0.262 A  
HETATM   15  N   UNL     1     -10.941  12.885  68.031  1.00  0.00    -0.237 N  
HETATM   16  O   UNL     1     -11.257  14.490  69.908  1.00  0.00    -0.248 OA 
HETATM   17 CL   UNL     1      -6.871  17.907  65.920  1.00  0.00    -0.329 Cl 
HETATM   18  S   UNL     1     -11.370  14.415  68.471  1.00  0.00    -0.300 S  
HETATM   19  H   UNL     1     -11.650  12.152  68.071  1.00  0.00     0.000 HD 
HETATM   20  O   UNL     1     -12.607  14.713  67.786  1.00  0.00     0.141 OA 
BRANCH  13  21
HETATM   21  C   UNL     1      -9.343  11.059  67.620  1.00  0.00    -0.157 C  
BRANCH  21  22
HETATM   22  S   UNL     1     -10.638  10.116  68.489  1.00  0.00    -0.229 SA 
BRANCH  22  23
HETATM   23  C   UNL     1      -9.636   8.962  69.494  1.00  0.00    -0.171 C  
BRANCH  23  24
HETATM   24  C   UNL     1      -8.789   8.087  68.605  1.00  0.00    -0.134 A  
HETATM   25  C   UNL     1      -9.384   7.067  67.845  1.00  0.00    -0.123 A  
HETATM   26  C   UNL     1      -8.600   6.198  67.087  1.00  0.00    -0.103 A  
HETATM   27  C   UNL     1      -7.214   6.340  67.074  1.00  0.00    -0.075 A  
HETATM   28  C   UNL     1      -6.613   7.364  67.805  1.00  0.00    -0.057 A  
HETATM   29  C   UNL     1      -7.395   8.234  68.567  1.00  0.00    -0.093 A  
ENDBRANCH  23  24
ENDBRANCH  22  23
ENDBRANCH  21  22
ENDBRANCH  13  21
ENDBRANCH   2   7
TORSDOF 5
ENDMDL
MODEL      188
REMARK 921   NORMALIZED FREE ENERGY PREDICTED BY IDOCK:   -3.78 KCAL/MOL
REMARK 922        TOTAL FREE ENERGY PREDICTED BY IDOCK:   -5.53 KCAL/MOL
REMARK 923 INTER-LIGAND FREE ENERGY PREDICTED BY IDOCK:   -5.39 KCAL/MOL
REMARK 924 INTRA-LIGAND FREE ENERGY PREDICTED BY IDOCK:   -0.14 KCAL/MOL
REMARK 927      BINDING AFFINITY PREDICTED BY RF-SCORE:    0.00 PKD
ROOT
HETATM    1  N   UNL     1     -10.397  19.544  66.423  1.00  0.00    -0.455 N  
HETATM    2  S   UNL     1      -9.409  19.548  67.779  1.00  0.00    -0.336 S  
HETATM    3  H1  UNL     1     -11.158  18.907  66.660  1.00  0.00     0.000 HD 
HETATM    4  H2  UNL     1     -10.267  20.062  65.555  1.00  0.00     0.000 HD 
HETATM    5  O   UNL     1      -8.331  20.451  67.443  1.00  0.00    -0.333 OA 
HETATM    6  O   UNL     1     -10.250  19.762  68.930  1.00  0.00    -0.443 OA 
ENDROOT
BRANCH   2   7
HETATM    7  C   UNL     1      -8.769  17.904  67.824  1.00  0.00    -0.250 A  
HETATM    8  C   UNL     1      -9.527  16.885  67.238  1.00  0.00    -0.242 A  
HETATM    9  C   UNL     1      -9.035  15.576  67.239  1.00  0.00    -0.201 A  
HETATM   10  C   UNL     1      -7.809  15.242  67.796  1.00  0.00    -0.147 A  
HETATM   11  N   UNL     1      -7.275  13.946  67.858  1.00  0.00    -0.139 NA 
HETATM   12  C   UNL     1      -7.062  16.279  68.372  1.00  0.00    -0.136 A  
HETATM   13  C   UNL     1      -7.812  12.942  67.247  1.00  0.00    -0.131 C  
HETATM   14  C   UNL     1      -7.529  17.604  68.389  1.00  0.00    -0.253 A  
HETATM   15  N   UNL     1      -8.959  13.034  66.452  1.00  0.00    -0.442 N  
HETATM   16  O   UNL     1     -11.062  13.982  67.389  1.00  0.00    -0.290 OA 
HETATM   17 CL   UNL     1      -6.509  18.780  69.140  1.00  0.00    -0.287 Cl 
HETATM   18  S   UNL     1      -9.985  14.324  66.492  1.00  0.00    -0.291 S  
HETATM   19  H   UNL     1      -9.171  12.265  65.816  1.00  0.00     0.000 HD 
HETATM   20  O   UNL     1     -10.227  14.706  65.119  1.00  0.00    -0.383 OA 
BRANCH  13  21
HETATM   21  C   UNL     1      -7.219  11.552  67.365  1.00  0.00    -0.119 C  
BRANCH  21  22
HETATM   22  S   UNL     1      -7.542  10.827  69.006  1.00  0.00    -0.132 SA 
BRANCH  22  23
HETATM   23  C   UNL     1      -6.095   9.729  69.210  1.00  0.00    -0.036 C  
BRANCH  23  24
HETATM   24  C   UNL     1      -6.525   8.377  69.721  1.00  0.00    -0.036 A  
HETATM   25  C   UNL     1      -7.470   8.283  70.756  1.00  0.00    -0.065 A  
HETATM   26  C   UNL     1      -7.811   7.042  71.294  1.00  0.00    -0.099 A  
HETATM   27  C   UNL     1      -7.217   5.881  70.801  1.00  0.00    -0.080 A  
HETATM   28  C   UNL     1      -6.295   5.960  69.758  1.00  0.00    -0.037 A  
HETATM   29  C   UNL     1      -5.950   7.201  69.220  1.00  0.00    -0.029 A  
ENDBRANCH  23  24
ENDBRANCH  22  23
ENDBRANCH  21  22
ENDBRANCH  13  21
ENDBRANCH   2   7
TORSDOF 5
ENDMDL
MODEL      189
REMARK 921   NORMALIZED FREE ENERGY PREDICTED BY IDOCK:   -3.77 KCAL/MOL
REMARK 922        TOTAL FREE ENERGY PREDICTED BY IDOCK:   -5.53 KCAL/MOL
REMARK 923 INTER-LIGAND FREE ENERGY PREDICTED BY IDOCK:   -5.30 KCAL/MOL
REMARK 924 INTRA-LIGAND FREE ENERGY PREDICTED BY IDOCK:   -0.23 KCAL/MOL
REMARK 927      BINDING AFFINITY PREDICTED BY RF-SCORE:    0.00 PKD
ROOT
HETATM    1  N   UNL     1      -9.462  19.555  68.764  1.00  0.00    -0.391 N  
HETATM    2  S   UNL     1      -8.607  18.874  67.491  1.00  0.00    -0.277 S  
HETATM    3  H1  UNL     1      -8.969  19.246  69.601  1.00  0.00     0.000 HD 
HETATM    4  H2  UNL     1     -10.291  20.146  68.712  1.00  0.00     0.000 HD 
HETATM    5  O   UNL     1      -9.307  19.313  66.305  1.00  0.00    -0.343 OA 
HETATM    6  O   UNL     1      -7.211  19.163  67.702  1.00  0.00    -0.220 OA 
ENDROOT
BRANCH   2   7
HETATM    7  C   UNL     1      -8.880  17.143  67.695  1.00  0.00    -0.218 A  
HETATM    8  C   UNL     1      -9.838  16.526  66.883  1.00  0.00    -0.262 A  
HETATM    9  C   UNL     1     -10.060  15.151  67.007  1.00  0.00    -0.244 A  
HETATM   10  C   UNL     1      -9.357  14.361  67.906  1.00  0.00    -0.203 A  
HETATM   11  N   UNL     1      -9.554  12.987  68.100  1.00  0.00    -0.224 NA 
HETATM   12  C   UNL     1      -8.396  14.997  68.704  1.00  0.00    -0.166 A  
HETATM   13  C   UNL     1     -10.315  12.277  67.333  1.00  0.00    -0.206 C  
HETATM   14  C   UNL     1      -8.151  16.378  68.606  1.00  0.00    -0.218 A  
HETATM   15  N   UNL     1     -11.003  12.787  66.227  1.00  0.00    -0.274 N  
HETATM   16  O   UNL     1     -12.554  14.716  66.496  1.00  0.00    -0.099 OA 
HETATM   17 CL   UNL     1      -6.945  17.031  69.657  1.00  0.00    -0.047 Cl 
HETATM   18  S   UNL     1     -11.245  14.398  65.979  1.00  0.00    -0.338 S  
HETATM   19  H   UNL     1     -11.373  12.129  65.541  1.00  0.00     0.000 HD 
HETATM   20  O   UNL     1     -10.881  14.667  64.607  1.00  0.00    -0.385 OA 
BRANCH  13  21
HETATM   21  C   UNL     1     -10.524  10.799  67.597  1.00  0.00    -0.214 C  
BRANCH  21  22
HETATM   22  S   UNL     1      -9.354  10.173  68.848  1.00  0.00    -0.189 SA 
BRANCH  22  23
HETATM   23  C   UNL     1      -7.889   9.799  67.820  1.00  0.00    -0.094 C  
BRANCH  23  24
HETATM   24  C   UNL     1      -8.036   8.450  67.162  1.00  0.00    -0.104 A  
HETATM   25  C   UNL     1      -7.648   8.273  65.824  1.00  0.00    -0.082 A  
HETATM   26  C   UNL     1      -7.860   7.054  65.180  1.00  0.00    -0.124 A  
HETATM   27  C   UNL     1      -8.456   5.997  65.866  1.00  0.00    -0.143 A  
HETATM   28  C   UNL     1      -8.825   6.154  67.201  1.00  0.00    -0.108 A  
HETATM   29  C   UNL     1      -8.616   7.373  67.847  1.00  0.00    -0.125 A  
ENDBRANCH  23  24
ENDBRANCH  22  23
ENDBRANCH  21  22
ENDBRANCH  13  21
ENDBRANCH   2   7
TORSDOF 5
ENDMDL
MODEL      190
REMARK 921   NORMALIZED FREE ENERGY PREDICTED BY IDOCK:   -3.77 KCAL/MOL
REMARK 922        TOTAL FREE ENERGY PREDICTED BY IDOCK:   -5.52 KCAL/MOL
REMARK 923 INTER-LIGAND FREE ENERGY PREDICTED BY IDOCK:   -5.11 KCAL/MOL
REMARK 924 INTRA-LIGAND FREE ENERGY PREDICTED BY IDOCK:   -0.41 KCAL/MOL
REMARK 927      BINDING AFFINITY PREDICTED BY RF-SCORE:    0.00 PKD
ROOT
HETATM    1  N   UNL     1      -7.923   3.900  72.010  1.00  0.00    -0.074 N  
HETATM    2  S   UNL     1      -9.493   4.334  72.411  1.00  0.00    -0.134 S  
HETATM    3  H1  UNL     1      -7.354   4.698  72.292  1.00  0.00     0.000 HD 
HETATM    4  H2  UNL     1      -7.607   3.030  71.581  1.00  0.00     0.000 HD 
HETATM    5  O   UNL     1     -10.298   3.202  72.012  1.00  0.00    -0.095 OA 
HETATM    6  O   UNL     1      -9.478   4.817  73.769  1.00  0.00    -0.123 OA 
ENDROOT
BRANCH   2   7
HETATM    7  C   UNL     1      -9.836   5.678  71.320  1.00  0.00    -0.175 A  
HETATM    8  C   UNL     1      -8.857   6.037  70.387  1.00  0.00    -0.148 A  
HETATM    9  C   UNL     1      -9.111   7.084  69.495  1.00  0.00    -0.146 A  
HETATM   10  C   UNL     1     -10.308   7.786  69.491  1.00  0.00    -0.219 A  
HETATM   11  N   UNL     1     -10.610   8.863  68.646  1.00  0.00    -0.186 NA 
HETATM   12  C   UNL     1     -11.278   7.406  70.429  1.00  0.00    -0.284 A  
HETATM   13  C   UNL     1      -9.848   9.211  67.662  1.00  0.00    -0.172 C  
HETATM   14  C   UNL     1     -11.054   6.359  71.340  1.00  0.00    -0.277 A  
HETATM   15  N   UNL     1      -8.663   8.553  67.320  1.00  0.00    -0.129 N  
HETATM   16  O   UNL     1      -6.861   8.257  69.012  1.00  0.00    -0.054 OA 
HETATM   17 CL   UNL     1     -12.332   6.004  72.446  1.00  0.00    -0.171 Cl 
HETATM   18  S   UNL     1      -7.888   7.506  68.331  1.00  0.00    -0.124 S  
HETATM   19  H   UNL     1      -8.258   8.728  66.400  1.00  0.00     0.000 HD 
HETATM   20  O   UNL     1      -7.583   6.326  67.555  1.00  0.00    -0.093 OA 
BRANCH  13  21
HETATM   21  C   UNL     1     -10.198  10.402  66.791  1.00  0.00    -0.226 C  
BRANCH  21  22
HETATM   22  S   UNL     1      -9.511  11.948  67.471  1.00  0.00    -0.180 SA 
BRANCH  22  23
HETATM   23  C   UNL     1     -11.027  12.936  67.732  1.00  0.00    -0.243 C  
BRANCH  23  24
HETATM   24  C   UNL     1     -10.764  14.393  67.445  1.00  0.00    -0.280 A  
HETATM   25  C   UNL     1     -11.176  15.377  68.358  1.00  0.00    -0.318 A  
HETATM   26  C   UNL     1     -11.015  16.731  68.063  1.00  0.00    -0.296 A  
HETATM   27  C   UNL     1     -10.437  17.117  66.855  1.00  0.00    -0.274 A  
HETATM   28  C   UNL     1     -10.003  16.149  65.951  1.00  0.00    -0.384 A  
HETATM   29  C   UNL     1     -10.165  14.794  66.243  1.00  0.00    -0.309 A  
ENDBRANCH  23  24
ENDBRANCH  22  23
ENDBRANCH  21  22
ENDBRANCH  13  21
ENDBRANCH   2   7
TORSDOF 5
ENDMDL
MODEL      191
REMARK 921   NORMALIZED FREE ENERGY PREDICTED BY IDOCK:   -3.76 KCAL/MOL
REMARK 922        TOTAL FREE ENERGY PREDICTED BY IDOCK:   -5.50 KCAL/MOL
REMARK 923 INTER-LIGAND FREE ENERGY PREDICTED BY IDOCK:   -5.42 KCAL/MOL
REMARK 924 INTRA-LIGAND FREE ENERGY PREDICTED BY IDOCK:   -0.08 KCAL/MOL
REMARK 927      BINDING AFFINITY PREDICTED BY RF-SCORE:    0.00 PKD
ROOT
HETATM    1  N   UNL     1     -11.369  14.863  64.649  1.00  0.00    -0.566 N  
HETATM    2  S   UNL     1     -12.058  13.357  64.387  1.00  0.00    -0.416 S  
HETATM    3  H1  UNL     1     -10.489  14.838  64.134  1.00  0.00     0.000 HD 
HETATM    4  H2  UNL     1     -11.746  15.634  65.200  1.00  0.00     0.000 HD 
HETATM    5  O   UNL     1     -13.305  13.394  65.116  1.00  0.00    -0.611 OA 
HETATM    6  O   UNL     1     -12.012  13.098  62.970  1.00  0.00    -0.411 OA 
ENDROOT
BRANCH   2   7
HETATM    7  C   UNL     1     -10.957  12.254  65.215  1.00  0.00    -0.307 A  
HETATM    8  C   UNL     1     -10.115  11.453  64.436  1.00  0.00    -0.341 A  
HETATM    9  C   UNL     1      -9.217  10.586  65.066  1.00  0.00    -0.206 A  
HETATM   10  C   UNL     1      -9.118  10.490  66.446  1.00  0.00    -0.162 A  
HETATM   11  N   UNL     1      -8.262   9.619  67.136  1.00  0.00    -0.120 NA 
HETATM   12  C   UNL     1      -9.966  11.306  67.208  1.00  0.00    -0.208 A  
HETATM   13  C   UNL     1      -7.351   8.922  66.542  1.00  0.00    -0.085 C  
HETATM   14  C   UNL     1     -10.881  12.186  66.607  1.00  0.00    -0.268 A  
HETATM   15  N   UNL     1      -7.105   8.969  65.166  1.00  0.00    -0.086 N  
HETATM   16  O   UNL     1      -8.941   8.514  63.547  1.00  0.00     0.224 OA 
HETATM   17 CL   UNL     1     -11.870  13.126  67.667  1.00  0.00    -0.409 Cl 
HETATM   18  S   UNL     1      -8.167   9.609  64.080  1.00  0.00    -0.172 S  
HETATM   19  H   UNL     1      -6.225   8.587  64.818  1.00  0.00     0.000 HD 
HETATM   20  O   UNL     1      -7.406  10.493  63.226  1.00  0.00    -0.096 OA 
BRANCH  13  21
HETATM   21  C   UNL     1      -6.467   7.970  67.323  1.00  0.00    -0.057 C  
BRANCH  21  22
HETATM   22  S   UNL     1      -7.426   6.574  67.998  1.00  0.00    -0.096 SA 
BRANCH  22  23
HETATM   23  C   UNL     1      -9.052   6.830  67.203  1.00  0.00    -0.126 C  
BRANCH  23  24
HETATM   24  C   UNL     1      -9.274   5.812  66.113  1.00  0.00    -0.169 A  
HETATM   25  C   UNL     1      -8.234   5.493  65.225  1.00  0.00    -0.136 A  
HETATM   26  C   UNL     1      -8.454   4.617  64.161  1.00  0.00    -0.129 A  
HETATM   27  C   UNL     1      -9.712   4.047  63.977  1.00  0.00    -0.158 A  
HETATM   28  C   UNL     1     -10.745   4.337  64.865  1.00  0.00    -0.137 A  
HETATM   29  C   UNL     1     -10.529   5.215  65.929  1.00  0.00    -0.172 A  
ENDBRANCH  23  24
ENDBRANCH  22  23
ENDBRANCH  21  22
ENDBRANCH  13  21
ENDBRANCH   2   7
TORSDOF 5
ENDMDL
MODEL      192
REMARK 921   NORMALIZED FREE ENERGY PREDICTED BY IDOCK:   -3.75 KCAL/MOL
REMARK 922        TOTAL FREE ENERGY PREDICTED BY IDOCK:   -5.49 KCAL/MOL
REMARK 923 INTER-LIGAND FREE ENERGY PREDICTED BY IDOCK:   -5.17 KCAL/MOL
REMARK 924 INTRA-LIGAND FREE ENERGY PREDICTED BY IDOCK:   -0.32 KCAL/MOL
REMARK 927      BINDING AFFINITY PREDICTED BY RF-SCORE:    0.00 PKD
ROOT
HETATM    1  N   UNL     1     -11.124  13.489  67.697  1.00  0.00    -0.262 N  
HETATM    2  S   UNL     1     -11.061  12.712  66.212  1.00  0.00    -0.307 S  
HETATM    3  H1  UNL     1     -10.152  13.702  67.919  1.00  0.00     0.000 HD 
HETATM    4  H2  UNL     1     -11.951  13.702  68.255  1.00  0.00     0.000 HD 
HETATM    5  O   UNL     1     -12.439  12.411  65.898  1.00  0.00    -0.583 OA 
HETATM    6  O   UNL     1     -10.237  13.510  65.339  1.00  0.00    -0.303 OA 
ENDROOT
BRANCH   2   7
HETATM    7  C   UNL     1     -10.226  11.201  66.577  1.00  0.00    -0.231 A  
HETATM    8  C   UNL     1      -9.899  10.933  67.910  1.00  0.00    -0.189 A  
HETATM    9  C   UNL     1      -9.258   9.732  68.232  1.00  0.00    -0.129 A  
HETATM   10  C   UNL     1      -8.934   8.782  67.275  1.00  0.00    -0.132 A  
HETATM   11  N   UNL     1      -8.264   7.576  67.528  1.00  0.00    -0.113 NA 
HETATM   12  C   UNL     1      -9.276   9.067  65.945  1.00  0.00    -0.290 A  
HETATM   13  C   UNL     1      -8.019   7.153  68.724  1.00  0.00    -0.123 C  
HETATM   14  C   UNL     1      -9.919  10.264  65.589  1.00  0.00    -0.280 A  
HETATM   15  N   UNL     1      -8.406   7.828  69.886  1.00  0.00    -0.129 N  
HETATM   16  O   UNL     1      -7.713  10.192  70.251  1.00  0.00    -0.184 OA 
HETATM   17 CL   UNL     1     -10.274  10.488  63.913  1.00  0.00    -0.305 Cl 
HETATM   18  S   UNL     1      -8.873   9.409  69.898  1.00  0.00    -0.217 S  
HETATM   19  H   UNL     1      -8.397   7.318  70.769  1.00  0.00     0.000 HD 
HETATM   20  O   UNL     1     -10.099   9.475  70.660  1.00  0.00    -0.263 OA 
BRANCH  13  21
HETATM   21  C   UNL     1      -7.265   5.858  68.952  1.00  0.00    -0.082 C  
BRANCH  21  22
HETATM   22  S   UNL     1      -8.131   4.441  68.201  1.00  0.00    -0.090 SA 
BRANCH  22  23
HETATM   23  C   UNL     1      -7.566   3.064  69.263  1.00  0.00    -0.047 C  
BRANCH  23  24
HETATM   24  C   UNL     1      -8.401   2.988  70.517  1.00  0.00    -0.086 A  
HETATM   25  C   UNL     1      -9.317   1.938  70.691  1.00  0.00    -0.187 A  
HETATM   26  C   UNL     1     -10.154   1.906  71.806  1.00  0.00    -0.181 A  
HETATM   27  C   UNL     1     -10.083   2.918  72.761  1.00  0.00    -0.228 A  
HETATM   28  C   UNL     1      -9.162   3.953  72.611  1.00  0.00    -0.140 A  
HETATM   29  C   UNL     1      -8.324   3.989  71.496  1.00  0.00    -0.089 A  
ENDBRANCH  23  24
ENDBRANCH  22  23
ENDBRANCH  21  22
ENDBRANCH  13  21
ENDBRANCH   2   7
TORSDOF 5
ENDMDL
MODEL      193
REMARK 921   NORMALIZED FREE ENERGY PREDICTED BY IDOCK:   -3.74 KCAL/MOL
REMARK 922        TOTAL FREE ENERGY PREDICTED BY IDOCK:   -5.48 KCAL/MOL
REMARK 923 INTER-LIGAND FREE ENERGY PREDICTED BY IDOCK:   -4.84 KCAL/MOL
REMARK 924 INTRA-LIGAND FREE ENERGY PREDICTED BY IDOCK:   -0.64 KCAL/MOL
REMARK 927      BINDING AFFINITY PREDICTED BY RF-SCORE:    0.00 PKD
ROOT
HETATM    1  N   UNL     1     -10.432   2.749  64.427  1.00  0.00    -0.395 N  
HETATM    2  S   UNL     1      -9.087   3.560  63.838  1.00  0.00    -0.112 S  
HETATM    3  H1  UNL     1     -11.099   3.486  64.655  1.00  0.00     0.000 HD 
HETATM    4  H2  UNL     1     -10.557   1.743  64.533  1.00  0.00     0.000 HD 
HETATM    5  O   UNL     1      -8.143   2.514  63.515  1.00  0.00    -0.078 OA 
HETATM    6  O   UNL     1      -9.546   4.503  62.850  1.00  0.00    -0.118 OA 
ENDROOT
BRANCH   2   7
HETATM    7  C   UNL     1      -8.489   4.438  65.247  1.00  0.00    -0.121 A  
HETATM    8  C   UNL     1      -9.212   4.341  66.441  1.00  0.00    -0.150 A  
HETATM    9  C   UNL     1      -8.750   5.008  67.580  1.00  0.00    -0.103 A  
HETATM   10  C   UNL     1      -7.587   5.765  67.578  1.00  0.00    -0.093 A  
HETATM   11  N   UNL     1      -7.089   6.483  68.676  1.00  0.00    -0.080 NA 
HETATM   12  C   UNL     1      -6.874   5.844  66.374  1.00  0.00    -0.059 A  
HETATM   13  C   UNL     1      -7.590   6.376  69.862  1.00  0.00    -0.100 C  
HETATM   14  C   UNL     1      -7.313   5.187  65.212  1.00  0.00    -0.068 A  
HETATM   15  N   UNL     1      -8.657   5.533  70.188  1.00  0.00    -0.119 N  
HETATM   16  O   UNL     1     -10.816   5.713  68.961  1.00  0.00    -0.265 OA 
HETATM   17 CL   UNL     1      -6.341   5.378  63.796  1.00  0.00    -0.022 Cl 
HETATM   18  S   UNL     1      -9.654   4.863  69.059  1.00  0.00    -0.171 S  
HETATM   19  H   UNL     1      -8.827   5.323  71.172  1.00  0.00     0.000 HD 
HETATM   20  O   UNL     1      -9.761   3.458  69.381  1.00  0.00    -0.133 OA 
BRANCH  13  21
HETATM   21  C   UNL     1      -7.039   7.194  71.014  1.00  0.00    -0.069 C  
BRANCH  21  22
HETATM   22  S   UNL     1      -7.699   6.619  72.614  1.00  0.00    -0.101 SA 
BRANCH  22  23
HETATM   23  C   UNL     1      -8.552   8.120  73.216  1.00  0.00    -0.242 C  
BRANCH  23  24
HETATM   24  C   UNL     1      -9.831   8.344  72.450  1.00  0.00    -0.378 A  
HETATM   25  C   UNL     1      -9.846   9.204  71.339  1.00  0.00    -0.354 A  
HETATM   26  C   UNL     1     -11.041   9.486  70.677  1.00  0.00    -0.364 A  
HETATM   27  C   UNL     1     -12.232   8.907  71.111  1.00  0.00    -0.303 A  
HETATM   28  C   UNL     1     -12.226   8.034  72.197  1.00  0.00    -0.377 A  
HETATM   29  C   UNL     1     -11.033   7.753  72.864  1.00  0.00    -0.467 A  
ENDBRANCH  23  24
ENDBRANCH  22  23
ENDBRANCH  21  22
ENDBRANCH  13  21
ENDBRANCH   2   7
TORSDOF 5
ENDMDL
MODEL      194
REMARK 921   NORMALIZED FREE ENERGY PREDICTED BY IDOCK:   -3.74 KCAL/MOL
REMARK 922        TOTAL FREE ENERGY PREDICTED BY IDOCK:   -5.48 KCAL/MOL
REMARK 923 INTER-LIGAND FREE ENERGY PREDICTED BY IDOCK:   -5.23 KCAL/MOL
REMARK 924 INTRA-LIGAND FREE ENERGY PREDICTED BY IDOCK:   -0.25 KCAL/MOL
REMARK 927      BINDING AFFINITY PREDICTED BY RF-SCORE:    0.00 PKD
ROOT
HETATM    1  N   UNL     1      -6.671   5.729  63.483  1.00  0.00    -0.036 N  
HETATM    2  S   UNL     1      -7.636   4.406  63.845  1.00  0.00    -0.072 S  
HETATM    3  H1  UNL     1      -6.063   5.835  64.296  1.00  0.00     0.000 HD 
HETATM    4  H2  UNL     1      -6.686   6.300  62.639  1.00  0.00     0.000 HD 
HETATM    5  O   UNL     1      -8.496   4.255  62.694  1.00  0.00    -0.082 OA 
HETATM    6  O   UNL     1      -6.770   3.344  64.293  1.00  0.00    -0.037 OA 
ENDROOT
BRANCH   2   7
HETATM    7  C   UNL     1      -8.611   4.971  65.203  1.00  0.00    -0.148 A  
HETATM    8  C   UNL     1      -7.996   5.776  66.168  1.00  0.00    -0.102 A  
HETATM    9  C   UNL     1      -8.751   6.257  67.243  1.00  0.00    -0.105 A  
HETATM   10  C   UNL     1     -10.101   5.972  67.392  1.00  0.00    -0.163 A  
HETATM   11  N   UNL     1     -10.902   6.396  68.461  1.00  0.00    -0.289 NA 
HETATM   12  C   UNL     1     -10.699   5.169  66.411  1.00  0.00    -0.275 A  
HETATM   13  C   UNL     1     -10.492   7.243  69.347  1.00  0.00    -0.216 C  
HETATM   14  C   UNL     1      -9.969   4.669  65.319  1.00  0.00    -0.111 A  
HETATM   15  N   UNL     1      -9.227   7.839  69.330  1.00  0.00    -0.149 N  
HETATM   16  O   UNL     1      -7.176   6.426  69.283  1.00  0.00    -0.084 OA 
HETATM   17 CL   UNL     1     -10.832   3.685  64.190  1.00  0.00    -0.236 Cl 
HETATM   18  S   UNL     1      -7.972   7.270  68.424  1.00  0.00    -0.125 S  
HETATM   19  H   UNL     1      -9.072   8.665  69.908  1.00  0.00     0.000 HD 
HETATM   20  O   UNL     1      -7.407   8.407  67.735  1.00  0.00    -0.089 OA 
BRANCH  13  21
HETATM   21  C   UNL     1     -11.381   7.651  70.504  1.00  0.00    -0.250 C  
BRANCH  21  22
HETATM   22  S   UNL     1     -10.909   9.283  71.164  1.00  0.00    -0.365 SA 
BRANCH  22  23
HETATM   23  C   UNL     1     -12.290  10.327  70.576  1.00  0.00    -0.284 C  
BRANCH  23  24
HETATM   24  C   UNL     1     -11.820  11.263  69.491  1.00  0.00    -0.427 A  
HETATM   25  C   UNL     1     -11.191  10.753  68.344  1.00  0.00    -0.345 A  
HETATM   26  C   UNL     1     -10.675  11.615  67.376  1.00  0.00    -0.277 A  
HETATM   27  C   UNL     1     -10.787  12.994  67.539  1.00  0.00    -0.264 A  
HETATM   28  C   UNL     1     -11.429  13.512  68.662  1.00  0.00    -0.343 A  
HETATM   29  C   UNL     1     -11.944  12.652  69.634  1.00  0.00    -0.352 A  
ENDBRANCH  23  24
ENDBRANCH  22  23
ENDBRANCH  21  22
ENDBRANCH  13  21
ENDBRANCH   2   7
TORSDOF 5
ENDMDL
MODEL      195
REMARK 921   NORMALIZED FREE ENERGY PREDICTED BY IDOCK:   -3.73 KCAL/MOL
REMARK 922        TOTAL FREE ENERGY PREDICTED BY IDOCK:   -5.47 KCAL/MOL
REMARK 923 INTER-LIGAND FREE ENERGY PREDICTED BY IDOCK:   -5.23 KCAL/MOL
REMARK 924 INTRA-LIGAND FREE ENERGY PREDICTED BY IDOCK:   -0.23 KCAL/MOL
REMARK 927      BINDING AFFINITY PREDICTED BY RF-SCORE:    0.00 PKD
ROOT
HETATM    1  N   UNL     1     -14.343  15.305  73.071  1.00  0.00     0.126 N  
HETATM    2  S   UNL     1     -13.289  14.159  72.446  1.00  0.00    -0.534 S  
HETATM    3  H1  UNL     1     -14.912  15.593  72.275  1.00  0.00     0.000 HD 
HETATM    4  H2  UNL     1     -14.402  15.639  74.032  1.00  0.00     0.000 HD 
HETATM    5  O   UNL     1     -12.483  13.751  73.574  1.00  0.00     0.162 OA 
HETATM    6  O   UNL     1     -14.072  13.215  71.689  1.00  0.00     0.087 OA 
ENDROOT
BRANCH   2   7
HETATM    7  C   UNL     1     -12.277  15.093  71.343  1.00  0.00    -0.339 A  
HETATM    8  C   UNL     1     -12.029  14.567  70.070  1.00  0.00    -0.388 A  
HETATM    9  C   UNL     1     -11.249  15.296  69.167  1.00  0.00    -0.278 A  
HETATM   10  C   UNL     1     -10.710  16.536  69.479  1.00  0.00    -0.321 A  
HETATM   11  N   UNL     1      -9.896  17.300  68.631  1.00  0.00    -0.298 NA 
HETATM   12  C   UNL     1     -10.977  17.048  70.757  1.00  0.00     0.722 A  
HETATM   13  C   UNL     1      -9.695  16.989  67.393  1.00  0.00    -0.252 C  
HETATM   14  C   UNL     1     -11.755  16.340  71.689  1.00  0.00    -0.420 A  
HETATM   15  N   UNL     1     -10.273  15.884  66.761  1.00  0.00    -0.274 N  
HETATM   16  O   UNL     1      -9.965  13.599  67.703  1.00  0.00    -0.231 OA 
HETATM   17 CL   UNL     1     -11.995  17.086  73.228  1.00  0.00    -0.135 Cl 
HETATM   18  S   UNL     1     -10.964  14.633  67.583  1.00  0.00    -0.303 S  
HETATM   19  H   UNL     1     -10.265  15.849  65.741  1.00  0.00     0.000 HD 
HETATM   20  O   UNL     1     -12.247  14.387  66.964  1.00  0.00    -0.400 OA 
BRANCH  13  21
HETATM   21  C   UNL     1      -8.782  17.827  66.519  1.00  0.00    -0.257 C  
BRANCH  21  22
HETATM   22  S   UNL     1      -7.171  17.011  66.266  1.00  0.00    -0.156 SA 
BRANCH  22  23
HETATM   23  C   UNL     1      -6.428  17.147  67.931  1.00  0.00    -0.148 C  
BRANCH  23  24
HETATM   24  C   UNL     1      -6.087  18.582  68.242  1.00  0.00    -0.202 A  
HETATM   25  C   UNL     1      -5.592  19.424  67.232  1.00  0.00    -0.171 A  
HETATM   26  C   UNL     1      -5.192  20.727  67.528  1.00  0.00    -0.241 A  
HETATM   27  C   UNL     1      -5.287  21.206  68.833  1.00  0.00    -0.301 A  
HETATM   28  C   UNL     1      -5.797  20.388  69.839  1.00  0.00    -0.389 A  
HETATM   29  C   UNL     1      -6.196  19.083  69.547  1.00  0.00    -0.293 A  
ENDBRANCH  23  24
ENDBRANCH  22  23
ENDBRANCH  21  22
ENDBRANCH  13  21
ENDBRANCH   2   7
TORSDOF 5
ENDMDL
MODEL      196
REMARK 921   NORMALIZED FREE ENERGY PREDICTED BY IDOCK:   -3.72 KCAL/MOL
REMARK 922        TOTAL FREE ENERGY PREDICTED BY IDOCK:   -5.46 KCAL/MOL
REMARK 923 INTER-LIGAND FREE ENERGY PREDICTED BY IDOCK:   -5.35 KCAL/MOL
REMARK 924 INTRA-LIGAND FREE ENERGY PREDICTED BY IDOCK:   -0.11 KCAL/MOL
REMARK 927      BINDING AFFINITY PREDICTED BY RF-SCORE:    0.00 PKD
ROOT
HETATM    1  N   UNL     1     -10.810  17.182  66.946  1.00  0.00    -0.095 N  
HETATM    2  S   UNL     1     -10.036  16.241  65.792  1.00  0.00    -0.321 S  
HETATM    3  H1  UNL     1     -10.183  17.172  67.750  1.00  0.00     0.000 HD 
HETATM    4  H2  UNL     1     -11.707  17.659  66.862  1.00  0.00     0.000 HD 
HETATM    5  O   UNL     1     -10.925  16.257  64.653  1.00  0.00    -0.674 OA 
HETATM    6  O   UNL     1      -8.673  16.699  65.701  1.00  0.00    -0.428 OA 
ENDROOT
BRANCH   2   7
HETATM    7  C   UNL     1     -10.060  14.625  66.500  1.00  0.00    -0.279 A  
HETATM    8  C   UNL     1      -8.885  14.144  67.086  1.00  0.00    -0.241 A  
HETATM    9  C   UNL     1      -8.881  12.875  67.674  1.00  0.00    -0.187 A  
HETATM   10  C   UNL     1     -10.008  12.067  67.709  1.00  0.00    -0.195 A  
HETATM   11  N   UNL     1     -10.060  10.776  68.254  1.00  0.00    -0.165 NA 
HETATM   12  C   UNL     1     -11.177  12.571  67.123  1.00  0.00    -0.352 A  
HETATM   13  C   UNL     1      -9.085  10.266  68.932  1.00  0.00    -0.168 C  
HETATM   14  C   UNL     1     -11.214  13.840  66.522  1.00  0.00    -0.312 A  
HETATM   15  N   UNL     1      -7.892  10.940  69.212  1.00  0.00    -0.294 N  
HETATM   16  O   UNL     1      -6.518  11.879  67.360  1.00  0.00    -0.097 OA 
HETATM   17 CL   UNL     1     -12.720  14.331  65.831  1.00  0.00    -0.415 Cl 
HETATM   18  S   UNL     1      -7.413  12.299  68.411  1.00  0.00    -0.127 S  
HETATM   19  H   UNL     1      -7.288  10.573  69.948  1.00  0.00     0.000 HD 
HETATM   20  O   UNL     1      -7.013  13.256  69.417  1.00  0.00    -0.043 OA 
BRANCH  13  21
HETATM   21  C   UNL     1      -9.171   8.855  69.478  1.00  0.00    -0.150 C  
BRANCH  21  22
HETATM   22  S   UNL     1      -8.043   7.728  68.594  1.00  0.00    -0.128 SA 
BRANCH  22  23
HETATM   23  C   UNL     1      -9.210   6.801  67.535  1.00  0.00    -0.122 C  
BRANCH  23  24
HETATM   24  C   UNL     1      -8.481   5.746  66.743  1.00  0.00    -0.112 A  
HETATM   25  C   UNL     1      -7.654   4.818  67.398  1.00  0.00    -0.086 A  
HETATM   26  C   UNL     1      -6.908   3.894  66.667  1.00  0.00    -0.058 A  
HETATM   27  C   UNL     1      -6.983   3.881  65.276  1.00  0.00    -0.061 A  
HETATM   28  C   UNL     1      -7.817   4.781  64.615  1.00  0.00    -0.088 A  
HETATM   29  C   UNL     1      -8.563   5.709  65.344  1.00  0.00    -0.150 A  
ENDBRANCH  23  24
ENDBRANCH  22  23
ENDBRANCH  21  22
ENDBRANCH  13  21
ENDBRANCH   2   7
TORSDOF 5
ENDMDL
MODEL      197
REMARK 921   NORMALIZED FREE ENERGY PREDICTED BY IDOCK:   -3.72 KCAL/MOL
REMARK 922        TOTAL FREE ENERGY PREDICTED BY IDOCK:   -5.45 KCAL/MOL
REMARK 923 INTER-LIGAND FREE ENERGY PREDICTED BY IDOCK:   -4.83 KCAL/MOL
REMARK 924 INTRA-LIGAND FREE ENERGY PREDICTED BY IDOCK:   -0.62 KCAL/MOL
REMARK 927      BINDING AFFINITY PREDICTED BY RF-SCORE:    0.00 PKD
ROOT
HETATM    1  N   UNL     1     -14.083   9.735  72.821  1.00  0.00    -0.418 N  
HETATM    2  S   UNL     1     -13.115   9.977  71.473  1.00  0.00    -0.444 S  
HETATM    3  H1  UNL     1     -13.450   9.831  73.614  1.00  0.00     0.000 HD 
HETATM    4  H2  UNL     1     -15.083   9.535  72.843  1.00  0.00     0.000 HD 
HETATM    5  O   UNL     1     -14.013   9.841  70.348  1.00  0.00     0.258 OA 
HETATM    6  O   UNL     1     -12.352  11.180  71.696  1.00  0.00    -0.220 OA 
ENDROOT
BRANCH   2   7
HETATM    7  C   UNL     1     -12.028   8.588  71.494  1.00  0.00    -0.303 A  
HETATM    8  C   UNL     1     -10.650   8.827  71.515  1.00  0.00    -0.379 A  
HETATM    9  C   UNL     1      -9.766   7.745  71.555  1.00  0.00    -0.162 A  
HETATM   10  C   UNL     1     -10.201   6.428  71.582  1.00  0.00    -0.196 A  
HETATM   11  N   UNL     1      -9.367   5.301  71.591  1.00  0.00    -0.145 NA 
HETATM   12  C   UNL     1     -11.586   6.209  71.568  1.00  0.00    -0.304 A  
HETATM   13  C   UNL     1      -8.086   5.384  71.737  1.00  0.00    -0.118 C  
HETATM   14  C   UNL     1     -12.502   7.275  71.526  1.00  0.00    -0.373 A  
HETATM   15  N   UNL     1      -7.397   6.587  71.920  1.00  0.00    -0.090 N  
HETATM   16  O   UNL     1      -7.636   8.433  70.266  1.00  0.00    -0.064 OA 
HETATM   17 CL   UNL     1     -14.178   6.860  71.504  1.00  0.00    -0.383 Cl 
HETATM   18  S   UNL     1      -8.055   8.063  71.596  1.00  0.00    -0.124 S  
HETATM   19  H   UNL     1      -6.439   6.549  72.270  1.00  0.00     0.000 HD 
HETATM   20  O   UNL     1      -7.784   8.900  72.742  1.00  0.00    -0.366 OA 
BRANCH  13  21
HETATM   21  C   UNL     1      -7.217   4.142  71.709  1.00  0.00    -0.054 C  
BRANCH  21  22
HETATM   22  S   UNL     1      -7.783   2.962  70.439  1.00  0.00    -0.043 SA 
BRANCH  22  23
HETATM   23  C   UNL     1      -6.937   3.600  68.948  1.00  0.00    -0.046 C  
BRANCH  23  24
HETATM   24  C   UNL     1      -7.904   4.365  68.080  1.00  0.00    -0.080 A  
HETATM   25  C   UNL     1      -9.288   4.212  68.262  1.00  0.00    -0.214 A  
HETATM   26  C   UNL     1     -10.190   4.848  67.409  1.00  0.00    -0.173 A  
HETATM   27  C   UNL     1      -9.720   5.647  66.368  1.00  0.00    -0.180 A  
HETATM   28  C   UNL     1      -8.349   5.825  66.191  1.00  0.00    -0.122 A  
HETATM   29  C   UNL     1      -7.444   5.188  67.042  1.00  0.00    -0.087 A  
ENDBRANCH  23  24
ENDBRANCH  22  23
ENDBRANCH  21  22
ENDBRANCH  13  21
ENDBRANCH   2   7
TORSDOF 5
ENDMDL
MODEL      198
REMARK 921   NORMALIZED FREE ENERGY PREDICTED BY IDOCK:   -3.70 KCAL/MOL
REMARK 922        TOTAL FREE ENERGY PREDICTED BY IDOCK:   -5.43 KCAL/MOL
REMARK 923 INTER-LIGAND FREE ENERGY PREDICTED BY IDOCK:   -5.39 KCAL/MOL
REMARK 924 INTRA-LIGAND FREE ENERGY PREDICTED BY IDOCK:   -0.03 KCAL/MOL
REMARK 927      BINDING AFFINITY PREDICTED BY RF-SCORE:    0.00 PKD
ROOT
HETATM    1  N   UNL     1      -8.576   5.272  63.781  1.00  0.00    -0.280 N  
HETATM    2  S   UNL     1      -7.587   6.033  64.902  1.00  0.00    -0.099 S  
HETATM    3  H1  UNL     1      -8.516   5.856  62.946  1.00  0.00     0.000 HD 
HETATM    4  H2  UNL     1      -9.116   4.417  63.905  1.00  0.00     0.000 HD 
HETATM    5  O   UNL     1      -7.672   5.206  66.084  1.00  0.00    -0.090 OA 
HETATM    6  O   UNL     1      -6.329   6.311  64.256  1.00  0.00    -0.029 OA 
ENDROOT
BRANCH   2   7
HETATM    7  C   UNL     1      -8.425   7.553  65.221  1.00  0.00    -0.063 A  
HETATM    8  C   UNL     1      -8.829   7.821  66.533  1.00  0.00    -0.175 A  
HETATM    9  C   UNL     1      -9.475   9.029  66.819  1.00  0.00    -0.182 A  
HETATM   10  C   UNL     1      -9.729   9.986  65.847  1.00  0.00    -0.247 A  
HETATM   11  N   UNL     1     -10.399  11.198  66.063  1.00  0.00    -0.248 NA 
HETATM   12  C   UNL     1      -9.310   9.700  64.540  1.00  0.00    -0.247 A  
HETATM   13  C   UNL     1     -10.711  11.621  67.243  1.00  0.00    -0.238 C  
HETATM   14  C   UNL     1      -8.659   8.496  64.219  1.00  0.00     0.023 A  
HETATM   15  N   UNL     1     -10.404  10.938  68.424  1.00  0.00    -0.170 N  
HETATM   16  O   UNL     1     -11.145   8.581  68.738  1.00  0.00     0.083 OA 
HETATM   17 CL   UNL     1      -8.206   8.273  62.567  1.00  0.00    -0.178 Cl 
HETATM   18  S   UNL     1      -9.957   9.352  68.459  1.00  0.00    -0.179 S  
HETATM   19  H   UNL     1     -10.461  11.446  69.307  1.00  0.00     0.000 HD 
HETATM   20  O   UNL     1      -8.781   9.269  69.295  1.00  0.00    -0.132 OA 
BRANCH  13  21
HETATM   21  C   UNL     1     -11.463  12.924  67.429  1.00  0.00    -0.336 C  
BRANCH  21  22
HETATM   22  S   UNL     1     -12.216  13.488  65.868  1.00  0.00    -0.463 SA 
BRANCH  22  23
HETATM   23  C   UNL     1     -10.741  13.996  64.915  1.00  0.00    -0.418 C  
BRANCH  23  24
HETATM   24  C   UNL     1     -10.179  15.285  65.459  1.00  0.00    -0.417 A  
HETATM   25  C   UNL     1      -9.049  15.265  66.294  1.00  0.00    -0.337 A  
HETATM   26  C   UNL     1      -8.574  16.442  66.872  1.00  0.00    -0.245 A  
HETATM   27  C   UNL     1      -9.216  17.652  66.618  1.00  0.00    -0.284 A  
HETATM   28  C   UNL     1     -10.324  17.688  65.773  1.00  0.00    -0.194 A  
HETATM   29  C   UNL     1     -10.804  16.512  65.195  1.00  0.00    -0.247 A  
ENDBRANCH  23  24
ENDBRANCH  22  23
ENDBRANCH  21  22
ENDBRANCH  13  21
ENDBRANCH   2   7
TORSDOF 5
ENDMDL
MODEL      199
REMARK 921   NORMALIZED FREE ENERGY PREDICTED BY IDOCK:   -3.69 KCAL/MOL
REMARK 922        TOTAL FREE ENERGY PREDICTED BY IDOCK:   -5.42 KCAL/MOL
REMARK 923 INTER-LIGAND FREE ENERGY PREDICTED BY IDOCK:   -4.66 KCAL/MOL
REMARK 924 INTRA-LIGAND FREE ENERGY PREDICTED BY IDOCK:   -0.77 KCAL/MOL
REMARK 927      BINDING AFFINITY PREDICTED BY RF-SCORE:    0.00 PKD
ROOT
HETATM    1  N   UNL     1     -10.961  13.811  69.349  1.00  0.00    -0.418 N  
HETATM    2  S   UNL     1     -10.984  12.932  67.920  1.00  0.00    -0.253 S  
HETATM    3  H1  UNL     1      -9.977  14.029  69.502  1.00  0.00     0.000 HD 
HETATM    4  H2  UNL     1     -11.755  14.071  69.934  1.00  0.00     0.000 HD 
HETATM    5  O   UNL     1     -12.380  12.624  67.703  1.00  0.00    -0.279 OA 
HETATM    6  O   UNL     1     -10.205  13.659  66.950  1.00  0.00    -0.254 OA 
ENDROOT
BRANCH   2   7
HETATM    7  C   UNL     1     -10.141  11.441  68.344  1.00  0.00    -0.201 A  
HETATM    8  C   UNL     1      -8.982  11.113  67.632  1.00  0.00    -0.140 A  
HETATM    9  C   UNL     1      -8.281   9.949  67.962  1.00  0.00    -0.113 A  
HETATM   10  C   UNL     1      -8.686   9.099  68.981  1.00  0.00    -0.135 A  
HETATM   11  N   UNL     1      -8.046   7.903  69.338  1.00  0.00    -0.123 NA 
HETATM   12  C   UNL     1      -9.845   9.449  69.686  1.00  0.00    -0.205 A  
HETATM   13  C   UNL     1      -6.903   7.551  68.847  1.00  0.00    -0.068 C  
HETATM   14  C   UNL     1     -10.574  10.611  69.379  1.00  0.00    -0.239 A  
HETATM   15  N   UNL     1      -6.176   8.319  67.932  1.00  0.00    -0.051 N  
HETATM   16  O   UNL     1      -7.221   9.038  65.789  1.00  0.00    -0.086 OA 
HETATM   17 CL   UNL     1     -11.988  10.915  70.324  1.00  0.00    -0.413 Cl 
HETATM   18  S   UNL     1      -6.833   9.565  67.076  1.00  0.00    -0.085 S  
HETATM   19  H   UNL     1      -5.191   8.097  67.787  1.00  0.00     0.000 HD 
HETATM   20  O   UNL     1      -5.924  10.681  67.201  1.00  0.00    -0.052 OA 
BRANCH  13  21
HETATM   21  C   UNL     1      -6.261   6.235  69.238  1.00  0.00    -0.033 C  
BRANCH  21  22
HETATM   22  S   UNL     1      -6.122   5.111  67.809  1.00  0.00    -0.024 SA 
BRANCH  22  23
HETATM   23  C   UNL     1      -7.519   3.970  68.107  1.00  0.00    -0.067 C  
BRANCH  23  24
HETATM   24  C   UNL     1      -8.826   4.723  68.108  1.00  0.00    -0.116 A  
HETATM   25  C   UNL     1      -9.303   5.308  66.924  1.00  0.00    -0.127 A  
HETATM   26  C   UNL     1     -10.465   6.079  66.933  1.00  0.00    -0.344 A  
HETATM   27  C   UNL     1     -11.166   6.270  68.123  1.00  0.00    -0.239 A  
HETATM   28  C   UNL     1     -10.716   5.675  69.299  1.00  0.00    -0.350 A  
HETATM   29  C   UNL     1      -9.551   4.904  69.294  1.00  0.00    -0.241 A  
ENDBRANCH  23  24
ENDBRANCH  22  23
ENDBRANCH  21  22
ENDBRANCH  13  21
ENDBRANCH   2   7
TORSDOF 5
ENDMDL
MODEL      200
REMARK 921   NORMALIZED FREE ENERGY PREDICTED BY IDOCK:   -3.65 KCAL/MOL
REMARK 922        TOTAL FREE ENERGY PREDICTED BY IDOCK:   -5.36 KCAL/MOL
REMARK 923 INTER-LIGAND FREE ENERGY PREDICTED BY IDOCK:   -4.53 KCAL/MOL
REMARK 924 INTRA-LIGAND FREE ENERGY PREDICTED BY IDOCK:   -0.83 KCAL/MOL
REMARK 927      BINDING AFFINITY PREDICTED BY RF-SCORE:    0.00 PKD
ROOT
HETATM    1  N   UNL     1     -10.034   9.993  63.383  1.00  0.00    -0.458 N  
HETATM    2  S   UNL     1      -8.921  10.794  64.349  1.00  0.00    -0.123 S  
HETATM    3  H1  UNL     1     -10.869   9.911  63.964  1.00  0.00     0.000 HD 
HETATM    4  H2  UNL     1      -9.906   9.662  62.427  1.00  0.00     0.000 HD 
HETATM    5  O   UNL     1      -7.740  10.910  63.525  1.00  0.00     0.147 OA 
HETATM    6  O   UNL     1      -9.579  11.951  64.903  1.00  0.00    -0.185 OA 
ENDROOT
BRANCH   2   7
HETATM    7  C   UNL     1      -8.593   9.638  65.640  1.00  0.00    -0.136 A  
HETATM    8  C   UNL     1      -9.173   8.368  65.552  1.00  0.00    -0.057 A  
HETATM    9  C   UNL     1      -8.912   7.423  66.550  1.00  0.00    -0.159 A  
HETATM   10  C   UNL     1      -8.087   7.692  67.632  1.00  0.00    -0.121 A  
HETATM   11  N   UNL     1      -7.812   6.801  68.679  1.00  0.00    -0.116 NA 
HETATM   12  C   UNL     1      -7.510   8.968  67.698  1.00  0.00    -0.085 A  
HETATM   13  C   UNL     1      -8.180   5.563  68.655  1.00  0.00    -0.102 C  
HETATM   14  C   UNL     1      -7.753   9.941  66.713  1.00  0.00    -0.099 A  
HETATM   15  N   UNL     1      -8.869   4.973  67.590  1.00  0.00    -0.103 N  
HETATM   16  O   UNL     1     -11.018   5.948  66.794  1.00  0.00    -0.299 OA 
HETATM   17 CL   UNL     1      -6.985  11.473  66.925  1.00  0.00    -0.139 Cl 
HETATM   18  S   UNL     1      -9.629   5.844  66.415  1.00  0.00    -0.120 S  
HETATM   19  H   UNL     1      -8.903   3.955  67.539  1.00  0.00     0.000 HD 
HETATM   20  O   UNL     1      -9.225   5.276  65.149  1.00  0.00    -0.116 OA 
BRANCH  13  21
HETATM   21  C   UNL     1      -7.889   4.641  69.823  1.00  0.00    -0.061 C  
BRANCH  21  22
HETATM   22  S   UNL     1      -8.763   5.178  71.330  1.00  0.00    -0.130 SA 
BRANCH  22  23
HETATM   23  C   UNL     1     -10.473   5.368  70.711  1.00  0.00    -0.247 C  
BRANCH  23  24
HETATM   24  C   UNL     1     -11.022   6.722  71.084  1.00  0.00    -0.298 A  
HETATM   25  C   UNL     1     -12.380   7.013  70.876  1.00  0.00    -0.361 A  
HETATM   26  C   UNL     1     -12.880   8.289  71.137  1.00  0.00    -0.092 A  
HETATM   27  C   UNL     1     -12.031   9.286  71.613  1.00  0.00    -0.448 A  
HETATM   28  C   UNL     1     -10.686   9.003  71.846  1.00  0.00    -0.401 A  
HETATM   29  C   UNL     1     -10.183   7.727  71.583  1.00  0.00    -0.225 A  
ENDBRANCH  23  24
ENDBRANCH  22  23
ENDBRANCH  21  22
ENDBRANCH  13  21
ENDBRANCH   2   7
TORSDOF 5
ENDMDL
MODEL      201
REMARK 921   NORMALIZED FREE ENERGY PREDICTED BY IDOCK:   -3.64 KCAL/MOL
REMARK 922        TOTAL FREE ENERGY PREDICTED BY IDOCK:   -5.36 KCAL/MOL
REMARK 923 INTER-LIGAND FREE ENERGY PREDICTED BY IDOCK:   -6.17 KCAL/MOL
REMARK 924 INTRA-LIGAND FREE ENERGY PREDICTED BY IDOCK:    0.81 KCAL/MOL
REMARK 927      BINDING AFFINITY PREDICTED BY RF-SCORE:    0.00 PKD
ROOT
HETATM    1  N   UNL     1     -13.858  16.037  73.402  1.00  0.00    -0.776 N  
HETATM    2  S   UNL     1     -12.194  15.840  73.472  1.00  0.00    -0.551 S  
HETATM    3  H1  UNL     1     -14.232  15.089  73.427  1.00  0.00     0.000 HD 
HETATM    4  H2  UNL     1     -14.381  16.911  73.347  1.00  0.00     0.000 HD 
HETATM    5  O   UNL     1     -11.665  17.185  73.437  1.00  0.00    -0.125 OA 
HETATM    6  O   UNL     1     -11.908  14.938  74.559  1.00  0.00    -0.269 OA 
ENDROOT
BRANCH   2   7
HETATM    7  C   UNL     1     -11.811  15.048  71.943  1.00  0.00    -0.384 A  
HETATM    8  C   UNL     1     -10.640  15.426  71.278  1.00  0.00     0.258 A  
HETATM    9  C   UNL     1     -10.300  14.799  70.075  1.00  0.00     0.110 A  
HETATM   10  C   UNL     1     -11.080  13.800  69.509  1.00  0.00    -0.103 A  
HETATM   11  N   UNL     1     -10.812  13.157  68.293  1.00  0.00    -0.244 NA 
HETATM   12  C   UNL     1     -12.246  13.432  70.194  1.00  0.00    -0.385 A  
HETATM   13  C   UNL     1      -9.705  13.323  67.647  1.00  0.00    -0.219 C  
HETATM   14  C   UNL     1     -12.617  14.043  71.404  1.00  0.00    -0.372 A  
HETATM   15  N   UNL     1      -8.656  14.136  68.089  1.00  0.00    -0.167 N  
HETATM   16  O   UNL     1      -9.066  16.535  68.614  1.00  0.00    -0.221 OA 
HETATM   17 CL   UNL     1     -14.083  13.496  72.136  1.00  0.00    -0.558 Cl 
HETATM   18  S   UNL     1      -8.831  15.271  69.271  1.00  0.00    -0.220 S  
HETATM   19  H   UNL     1      -7.738  14.021  67.659  1.00  0.00     0.000 HD 
HETATM   20  O   UNL     1      -7.736  15.083  70.194  1.00  0.00     0.039 OA 
BRANCH  13  21
HETATM   21  C   UNL     1      -9.468  12.631  66.319  1.00  0.00    -0.207 C  
BRANCH  21  22
HETATM   22  S   UNL     1      -9.613  10.820  66.476  1.00  0.00    -0.189 SA 
BRANCH  22  23
HETATM   23  C   UNL     1     -10.719  10.668  67.924  1.00  0.00    -0.248 C  
BRANCH  23  24
HETATM   24  C   UNL     1     -10.008   9.977  69.061  1.00  0.00    -0.203 A  
HETATM   25  C   UNL     1      -8.830   9.252  68.819  1.00  0.00    -0.132 A  
HETATM   26  C   UNL     1      -8.213   8.538  69.846  1.00  0.00    -0.121 A  
HETATM   27  C   UNL     1      -8.762   8.545  71.127  1.00  0.00    -0.215 A  
HETATM   28  C   UNL     1      -9.917   9.280  71.385  1.00  0.00    -0.323 A  
HETATM   29  C   UNL     1     -10.539   9.993  70.358  1.00  0.00    -0.343 A  
ENDBRANCH  23  24
ENDBRANCH  22  23
ENDBRANCH  21  22
ENDBRANCH  13  21
ENDBRANCH   2   7
TORSDOF 5
ENDMDL
MODEL      202
REMARK 921   NORMALIZED FREE ENERGY PREDICTED BY IDOCK:   -3.61 KCAL/MOL
REMARK 922        TOTAL FREE ENERGY PREDICTED BY IDOCK:   -5.32 KCAL/MOL
REMARK 923 INTER-LIGAND FREE ENERGY PREDICTED BY IDOCK:   -5.10 KCAL/MOL
REMARK 924 INTRA-LIGAND FREE ENERGY PREDICTED BY IDOCK:   -0.22 KCAL/MOL
REMARK 927      BINDING AFFINITY PREDICTED BY RF-SCORE:    0.00 PKD
ROOT
HETATM    1  N   UNL     1      -9.189  14.924  65.309  1.00  0.00    -0.069 N  
HETATM    2  S   UNL     1     -10.637  14.669  66.117  1.00  0.00    -0.324 S  
HETATM    3  H1  UNL     1      -9.130  14.158  64.638  1.00  0.00     0.000 HD 
HETATM    4  H2  UNL     1      -8.517  15.677  65.456  1.00  0.00     0.000 HD 
HETATM    5  O   UNL     1     -10.720  15.754  67.068  1.00  0.00    -0.315 OA 
HETATM    6  O   UNL     1     -11.656  14.447  65.123  1.00  0.00    -0.335 OA 
ENDROOT
BRANCH   2   7
HETATM    7  C   UNL     1     -10.352  13.169  67.002  1.00  0.00    -0.249 A  
HETATM    8  C   UNL     1      -9.552  12.190  66.402  1.00  0.00    -0.243 A  
HETATM    9  C   UNL     1      -9.291  11.001  67.090  1.00  0.00    -0.164 A  
HETATM   10  C   UNL     1      -9.792  10.749  68.359  1.00  0.00    -0.169 A  
HETATM   11  N   UNL     1      -9.594   9.567  69.086  1.00  0.00    -0.164 NA 
HETATM   12  C   UNL     1     -10.585  11.745  68.945  1.00  0.00    -0.211 A  
HETATM   13  C   UNL     1      -8.777   8.642  68.702  1.00  0.00    -0.138 C  
HETATM   14  C   UNL     1     -10.868  12.951  68.280  1.00  0.00    -0.242 A  
HETATM   15  N   UNL     1      -7.995   8.721  67.545  1.00  0.00    -0.102 N  
HETATM   16  O   UNL     1      -9.066   9.120  65.333  1.00  0.00    -0.207 OA 
HETATM   17 CL   UNL     1     -11.867  14.086  69.117  1.00  0.00    -0.367 Cl 
HETATM   18  S   UNL     1      -8.281   9.802  66.335  1.00  0.00    -0.121 S  
HETATM   19  H   UNL     1      -7.210   8.077  67.446  1.00  0.00     0.000 HD 
HETATM   20  O   UNL     1      -7.013  10.420  66.020  1.00  0.00    -0.115 OA 
BRANCH  13  21
HETATM   21  C   UNL     1      -8.616   7.365  69.503  1.00  0.00    -0.134 C  
BRANCH  21  22
HETATM   22  S   UNL     1     -10.182   6.436  69.599  1.00  0.00    -0.202 SA 
BRANCH  22  23
HETATM   23  C   UNL     1     -10.527   6.121  67.832  1.00  0.00    -0.229 C  
BRANCH  23  24
HETATM   24  C   UNL     1      -9.787   4.894  67.360  1.00  0.00    -0.213 A  
HETATM   25  C   UNL     1      -9.854   4.505  66.013  1.00  0.00    -0.240 A  
HETATM   26  C   UNL     1      -9.244   3.326  65.584  1.00  0.00    -0.150 A  
HETATM   27  C   UNL     1      -8.556   2.526  66.494  1.00  0.00    -0.114 A  
HETATM   28  C   UNL     1      -8.463   2.913  67.830  1.00  0.00    -0.103 A  
HETATM   29  C   UNL     1      -9.074   4.091  68.262  1.00  0.00    -0.183 A  
ENDBRANCH  23  24
ENDBRANCH  22  23
ENDBRANCH  21  22
ENDBRANCH  13  21
ENDBRANCH   2   7
TORSDOF 5
ENDMDL
MODEL      203
REMARK 921   NORMALIZED FREE ENERGY PREDICTED BY IDOCK:   -3.57 KCAL/MOL
REMARK 922        TOTAL FREE ENERGY PREDICTED BY IDOCK:   -5.26 KCAL/MOL
REMARK 923 INTER-LIGAND FREE ENERGY PREDICTED BY IDOCK:   -5.38 KCAL/MOL
REMARK 924 INTRA-LIGAND FREE ENERGY PREDICTED BY IDOCK:    0.12 KCAL/MOL
REMARK 927      BINDING AFFINITY PREDICTED BY RF-SCORE:    0.00 PKD
ROOT
HETATM    1  N   UNL     1      -9.947   4.980  70.092  1.00  0.00    -0.238 N  
HETATM    2  S   UNL     1      -9.496   5.445  68.545  1.00  0.00    -0.129 S  
HETATM    3  H1  UNL     1     -10.907   5.307  70.191  1.00  0.00     0.000 HD 
HETATM    4  H2  UNL     1      -9.385   4.480  70.781  1.00  0.00     0.000 HD 
HETATM    5  O   UNL     1      -8.135   4.979  68.405  1.00  0.00    -0.086 OA 
HETATM    6  O   UNL     1     -10.540   5.026  67.643  1.00  0.00    -0.074 OA 
ENDROOT
BRANCH   2   7
HETATM    7  C   UNL     1      -9.479   7.207  68.636  1.00  0.00    -0.140 A  
HETATM    8  C   UNL     1      -8.520   7.897  67.888  1.00  0.00    -0.126 A  
HETATM    9  C   UNL     1      -8.498   9.295  67.924  1.00  0.00    -0.117 A  
HETATM   10  C   UNL     1      -9.402  10.036  68.672  1.00  0.00    -0.156 A  
HETATM   11  N   UNL     1      -9.411  11.434  68.775  1.00  0.00    -0.161 NA 
HETATM   12  C   UNL     1     -10.359   9.325  69.409  1.00  0.00    -0.223 A  
HETATM   13  C   UNL     1      -8.664  12.191  68.041  1.00  0.00    -0.180 C  
HETATM   14  C   UNL     1     -10.408   7.920  69.396  1.00  0.00    -0.220 A  
HETATM   15  N   UNL     1      -7.787  11.712  67.063  1.00  0.00    -0.159 N  
HETATM   16  O   UNL     1      -6.039  10.041  67.658  1.00  0.00    -0.056 OA 
HETATM   17 CL   UNL     1     -11.634   7.174  70.357  1.00  0.00    -0.319 Cl 
HETATM   18  S   UNL     1      -7.307  10.137  66.975  1.00  0.00    -0.093 S  
HETATM   19  H   UNL     1      -7.426  12.369  66.371  1.00  0.00     0.000 HD 
HETATM   20  O   UNL     1      -7.464   9.731  65.597  1.00  0.00    -0.101 OA 
BRANCH  13  21
HETATM   21  C   UNL     1      -8.684  13.698  68.207  1.00  0.00    -0.171 C  
BRANCH  21  22
HETATM   22  S   UNL     1     -10.012  14.459  67.217  1.00  0.00    -0.250 SA 
BRANCH  22  23
HETATM   23  C   UNL     1     -11.220  13.090  67.115  1.00  0.00    -0.286 C  
BRANCH  23  24
HETATM   24  C   UNL     1     -11.425  12.674  65.680  1.00  0.00    -0.387 A  
HETATM   25  C   UNL     1     -10.765  11.543  65.173  1.00  0.00    -0.348 A  
HETATM   26  C   UNL     1     -10.880  11.199  63.827  1.00  0.00    -0.337 A  
HETATM   27  C   UNL     1     -11.660  11.977  62.972  1.00  0.00    -0.067 A  
HETATM   28  C   UNL     1     -12.339  13.088  63.468  1.00  0.00    -0.500 A  
HETATM   29  C   UNL     1     -12.224  13.436  64.815  1.00  0.00    -0.454 A  
ENDBRANCH  23  24
ENDBRANCH  22  23
ENDBRANCH  21  22
ENDBRANCH  13  21
ENDBRANCH   2   7
TORSDOF 5
ENDMDL
MODEL      204
REMARK 921   NORMALIZED FREE ENERGY PREDICTED BY IDOCK:   -3.56 KCAL/MOL
REMARK 922        TOTAL FREE ENERGY PREDICTED BY IDOCK:   -5.25 KCAL/MOL
REMARK 923 INTER-LIGAND FREE ENERGY PREDICTED BY IDOCK:   -4.40 KCAL/MOL
REMARK 924 INTRA-LIGAND FREE ENERGY PREDICTED BY IDOCK:   -0.84 KCAL/MOL
REMARK 927      BINDING AFFINITY PREDICTED BY RF-SCORE:    0.00 PKD
ROOT
HETATM    1  N   UNL     1      -7.847   7.655  63.888  1.00  0.00    -0.135 N  
HETATM    2  S   UNL     1      -7.632   8.800  65.094  1.00  0.00    -0.100 S  
HETATM    3  H1  UNL     1      -8.852   7.481  63.873  1.00  0.00     0.000 HD 
HETATM    4  H2  UNL     1      -7.133   7.227  63.299  1.00  0.00     0.000 HD 
HETATM    5  O   UNL     1      -6.208   9.047  65.114  1.00  0.00    -0.059 OA 
HETATM    6  O   UNL     1      -8.585   9.858  64.865  1.00  0.00    -0.147 OA 
ENDROOT
BRANCH   2   7
HETATM    7  C   UNL     1      -8.071   7.932  66.566  1.00  0.00    -0.107 A  
HETATM    8  C   UNL     1      -8.170   6.538  66.505  1.00  0.00    -0.113 A  
HETATM    9  C   UNL     1      -8.495   5.821  67.661  1.00  0.00    -0.103 A  
HETATM   10  C   UNL     1      -8.718   6.440  68.883  1.00  0.00    -0.126 A  
HETATM   11  N   UNL     1      -9.077   5.783  70.068  1.00  0.00    -0.141 NA 
HETATM   12  C   UNL     1      -8.607   7.837  68.924  1.00  0.00    -0.132 A  
HETATM   13  C   UNL     1      -9.079   4.495  70.177  1.00  0.00    -0.101 C  
HETATM   14  C   UNL     1      -8.285   8.587  67.780  1.00  0.00    -0.122 A  
HETATM   15  N   UNL     1      -8.711   3.623  69.148  1.00  0.00    -0.084 N  
HETATM   16  O   UNL     1      -9.849   3.745  66.936  1.00  0.00    -0.182 OA 
HETATM   17 CL   UNL     1      -8.190  10.301  67.973  1.00  0.00    -0.112 Cl 
HETATM   18  S   UNL     1      -8.598   4.087  67.570  1.00  0.00    -0.104 S  
HETATM   19  H   UNL     1      -8.504   2.653  69.384  1.00  0.00     0.000 HD 
HETATM   20  O   UNL     1      -7.333   3.589  67.080  1.00  0.00    -0.066 OA 
BRANCH  13  21
HETATM   21  C   UNL     1      -9.504   3.825  71.469  1.00  0.00    -0.151 C  
BRANCH  21  22
HETATM   22  S   UNL     1      -9.628   5.026  72.834  1.00  0.00    -0.144 SA 
BRANCH  22  23
HETATM   23  C   UNL     1     -11.426   5.357  72.866  1.00  0.00    -0.275 C  
BRANCH  23  24
HETATM   24  C   UNL     1     -11.727   6.701  72.250  1.00  0.00    -0.305 A  
HETATM   25  C   UNL     1     -10.793   7.745  72.346  1.00  0.00    -0.359 A  
HETATM   26  C   UNL     1     -11.096   9.015  71.856  1.00  0.00    -0.433 A  
HETATM   27  C   UNL     1     -12.333   9.255  71.260  1.00  0.00    -0.403 A  
HETATM   28  C   UNL     1     -13.259   8.221  71.137  1.00  0.00    -0.039 A  
HETATM   29  C   UNL     1     -12.959   6.949  71.629  1.00  0.00    -0.359 A  
ENDBRANCH  23  24
ENDBRANCH  22  23
ENDBRANCH  21  22
ENDBRANCH  13  21
ENDBRANCH   2   7
TORSDOF 5
ENDMDL
MODEL      205
REMARK 921   NORMALIZED FREE ENERGY PREDICTED BY IDOCK:   -3.55 KCAL/MOL
REMARK 922        TOTAL FREE ENERGY PREDICTED BY IDOCK:   -5.24 KCAL/MOL
REMARK 923 INTER-LIGAND FREE ENERGY PREDICTED BY IDOCK:   -5.22 KCAL/MOL
REMARK 924 INTRA-LIGAND FREE ENERGY PREDICTED BY IDOCK:   -0.02 KCAL/MOL
REMARK 927      BINDING AFFINITY PREDICTED BY RF-SCORE:    0.00 PKD
ROOT
HETATM    1  N   UNL     1      -8.203   3.086  73.081  1.00  0.00    -0.074 N  
HETATM    2  S   UNL     1      -9.759   3.258  72.479  1.00  0.00    -0.150 S  
HETATM    3  H1  UNL     1      -8.157   3.736  73.866  1.00  0.00     0.000 HD 
HETATM    4  H2  UNL     1      -7.467   2.469  72.739  1.00  0.00     0.000 HD 
HETATM    5  O   UNL     1      -9.825   2.337  71.367  1.00  0.00    -0.153 OA 
HETATM    6  O   UNL     1     -10.669   3.172  73.594  1.00  0.00    -0.169 OA 
ENDROOT
BRANCH   2   7
HETATM    7  C   UNL     1      -9.773   4.904  71.844  1.00  0.00    -0.163 A  
HETATM    8  C   UNL     1      -8.623   5.372  71.198  1.00  0.00    -0.128 A  
HETATM    9  C   UNL     1      -8.614   6.665  70.666  1.00  0.00    -0.142 A  
HETATM   10  C   UNL     1      -9.710   7.512  70.745  1.00  0.00    -0.174 A  
HETATM   11  N   UNL     1      -9.752   8.827  70.261  1.00  0.00    -0.170 NA 
HETATM   12  C   UNL     1     -10.854   7.022  71.390  1.00  0.00    -0.253 A  
HETATM   13  C   UNL     1      -8.808   9.333  69.538  1.00  0.00    -0.151 C  
HETATM   14  C   UNL     1     -10.896   5.728  71.938  1.00  0.00    -0.252 A  
HETATM   15  N   UNL     1      -7.663   8.633  69.145  1.00  0.00    -0.095 N  
HETATM   16  O   UNL     1      -6.200   7.566  70.854  1.00  0.00    -0.035 OA 
HETATM   17 CL   UNL     1     -12.367   5.257  72.712  1.00  0.00     0.039 Cl 
HETATM   18  S   UNL     1      -7.180   7.224  69.852  1.00  0.00    -0.083 S  
HETATM   19  H   UNL     1      -7.098   9.013  68.385  1.00  0.00     0.000 HD 
HETATM   20  O   UNL     1      -6.886   6.300  68.780  1.00  0.00    -0.064 OA 
BRANCH  13  21
HETATM   21  C   UNL     1      -8.880  10.771  69.060  1.00  0.00    -0.127 C  
BRANCH  21  22
HETATM   22  S   UNL     1     -10.454  11.111  68.206  1.00  0.00    -0.202 SA 
BRANCH  22  23
HETATM   23  C   UNL     1      -9.980  10.861  66.457  1.00  0.00    -0.211 C  
BRANCH  23  24
HETATM   24  C   UNL     1     -10.907  11.625  65.545  1.00  0.00    -0.334 A  
HETATM   25  C   UNL     1     -11.718  12.649  66.061  1.00  0.00    -0.470 A  
HETATM   26  C   UNL     1     -12.640  13.302  65.243  1.00  0.00    -0.528 A  
HETATM   27  C   UNL     1     -12.759  12.945  63.901  1.00  0.00    -0.223 A  
HETATM   28  C   UNL     1     -11.943  11.946  63.372  1.00  0.00    -0.528 A  
HETATM   29  C   UNL     1     -11.021  11.289  64.189  1.00  0.00    -0.376 A  
ENDBRANCH  23  24
ENDBRANCH  22  23
ENDBRANCH  21  22
ENDBRANCH  13  21
ENDBRANCH   2   7
TORSDOF 5
ENDMDL
MODEL      206
REMARK 921   NORMALIZED FREE ENERGY PREDICTED BY IDOCK:   -3.55 KCAL/MOL
REMARK 922        TOTAL FREE ENERGY PREDICTED BY IDOCK:   -5.23 KCAL/MOL
REMARK 923 INTER-LIGAND FREE ENERGY PREDICTED BY IDOCK:   -5.90 KCAL/MOL
REMARK 924 INTRA-LIGAND FREE ENERGY PREDICTED BY IDOCK:    0.67 KCAL/MOL
REMARK 927      BINDING AFFINITY PREDICTED BY RF-SCORE:    0.00 PKD
ROOT
HETATM    1  N   UNL     1      -7.679  19.244  67.745  1.00  0.00    -0.267 N  
HETATM    2  S   UNL     1      -9.222  18.894  67.186  1.00  0.00    -0.296 S  
HETATM    3  H1  UNL     1      -7.063  19.010  66.967  1.00  0.00     0.000 HD 
HETATM    4  H2  UNL     1      -7.416  19.610  68.660  1.00  0.00     0.000 HD 
HETATM    5  O   UNL     1     -10.095  19.227  68.289  1.00  0.00    -0.379 OA 
HETATM    6  O   UNL     1      -9.364  19.508  65.890  1.00  0.00    -0.409 OA 
ENDROOT
BRANCH   2   7
HETATM    7  C   UNL     1      -9.200  17.140  66.998  1.00  0.00    -0.241 A  
HETATM    8  C   UNL     1     -10.297  16.528  66.382  1.00  0.00    -0.316 A  
HETATM    9  C   UNL     1     -10.297  15.141  66.199  1.00  0.00    -0.301 A  
HETATM   10  C   UNL     1      -9.240  14.337  66.601  1.00  0.00    -0.255 A  
HETATM   11  N   UNL     1      -9.193  12.942  66.475  1.00  0.00    -0.218 NA 
HETATM   12  C   UNL     1      -8.147  14.971  67.210  1.00  0.00    -0.237 A  
HETATM   13  C   UNL     1     -10.080  12.272  65.816  1.00  0.00    -0.252 C  
HETATM   14  C   UNL     1      -8.117  16.362  67.410  1.00  0.00    -0.153 A  
HETATM   15  N   UNL     1     -11.160  12.854  65.146  1.00  0.00    -0.287 N  
HETATM   16  O   UNL     1     -12.745  14.334  66.370  1.00  0.00    -0.314 OA 
HETATM   17 CL   UNL     1      -6.712  17.007  68.180  1.00  0.00    -0.148 Cl 
HETATM   18  S   UNL     1     -11.663  14.401  65.417  1.00  0.00    -0.365 S  
HETATM   19  H   UNL     1     -11.662  12.295  64.456  1.00  0.00     0.000 HD 
HETATM   20  O   UNL     1     -11.826  15.019  64.121  1.00  0.00    -0.348 OA 
BRANCH  13  21
HETATM   21  C   UNL     1     -10.008  10.760  65.731  1.00  0.00    -0.251 C  
BRANCH  21  22
HETATM   22  S   UNL     1      -8.290  10.166  65.866  1.00  0.00    -0.141 SA 
BRANCH  22  23
HETATM   23  C   UNL     1      -8.096   9.254  64.293  1.00  0.00    -0.144 C  
BRANCH  23  24
HETATM   24  C   UNL     1      -7.877   7.786  64.557  1.00  0.00    -0.138 A  
HETATM   25  C   UNL     1      -8.364   7.201  65.737  1.00  0.00    -0.144 A  
HETATM   26  C   UNL     1      -8.093   5.865  66.031  1.00  0.00    -0.115 A  
HETATM   27  C   UNL     1      -7.336   5.097  65.148  1.00  0.00    -0.068 A  
HETATM   28  C   UNL     1      -6.867   5.658  63.963  1.00  0.00    -0.049 A  
HETATM   29  C   UNL     1      -7.135   6.996  63.667  1.00  0.00    -0.061 A  
ENDBRANCH  23  24
ENDBRANCH  22  23
ENDBRANCH  21  22
ENDBRANCH  13  21
ENDBRANCH   2   7
TORSDOF 5
ENDMDL
MODEL      207
REMARK 921   NORMALIZED FREE ENERGY PREDICTED BY IDOCK:   -3.53 KCAL/MOL
REMARK 922        TOTAL FREE ENERGY PREDICTED BY IDOCK:   -5.21 KCAL/MOL
REMARK 923 INTER-LIGAND FREE ENERGY PREDICTED BY IDOCK:   -4.63 KCAL/MOL
REMARK 924 INTRA-LIGAND FREE ENERGY PREDICTED BY IDOCK:   -0.58 KCAL/MOL
REMARK 927      BINDING AFFINITY PREDICTED BY RF-SCORE:    0.00 PKD
ROOT
HETATM    1  N   UNL     1     -11.744  14.603  71.001  1.00  0.00    -0.423 N  
HETATM    2  S   UNL     1     -11.251  15.468  69.651  1.00  0.00    -0.332 S  
HETATM    3  H1  UNL     1     -10.907  14.526  71.578  1.00  0.00     0.000 HD 
HETATM    4  H2  UNL     1     -12.675  14.237  71.202  1.00  0.00     0.000 HD 
HETATM    5  O   UNL     1     -12.438  15.578  68.834  1.00  0.00    -0.042 OA 
HETATM    6  O   UNL     1     -10.536  16.630  70.116  1.00  0.00    -0.196 OA 
ENDROOT
BRANCH   2   7
HETATM    7  C   UNL     1     -10.121  14.371  68.854  1.00  0.00    -0.200 A  
HETATM    8  C   UNL     1      -8.774  14.743  68.790  1.00  0.00    -0.178 A  
HETATM    9  C   UNL     1      -7.853  13.883  68.184  1.00  0.00    -0.147 A  
HETATM   10  C   UNL     1      -8.221  12.659  67.643  1.00  0.00    -0.174 A  
HETATM   11  N   UNL     1      -7.352  11.769  66.996  1.00  0.00    -0.144 NA 
HETATM   12  C   UNL     1      -9.574  12.303  67.724  1.00  0.00    -0.200 A  
HETATM   13  C   UNL     1      -6.071  11.933  66.980  1.00  0.00    -0.149 C  
HETATM   14  C   UNL     1     -10.525  13.145  68.324  1.00  0.00    -0.250 A  
HETATM   15  N   UNL     1      -5.411  12.991  67.613  1.00  0.00    -0.108 N  
HETATM   16  O   UNL     1      -6.027  15.346  67.090  1.00  0.00    -0.306 OA 
HETATM   17 CL   UNL     1     -12.159  12.583  68.346  1.00  0.00    -0.243 Cl 
HETATM   18  S   UNL     1      -6.179  14.355  68.128  1.00  0.00    -0.153 S  
HETATM   19  H   UNL     1      -4.404  12.915  67.763  1.00  0.00     0.000 HD 
HETATM   20  O   UNL     1      -5.737  14.596  69.483  1.00  0.00    -0.091 OA 
BRANCH  13  21
HETATM   21  C   UNL     1      -5.171  10.962  66.241  1.00  0.00    -0.105 C  
BRANCH  21  22
HETATM   22  S   UNL     1      -5.377   9.260  66.860  1.00  0.00    -0.039 SA 
BRANCH  22  23
HETATM   23  C   UNL     1      -6.431   8.524  65.559  1.00  0.00    -0.059 C  
BRANCH  23  24
HETATM   24  C   UNL     1      -7.746   8.069  66.139  1.00  0.00    -0.087 A  
HETATM   25  C   UNL     1      -7.817   6.874  66.874  1.00  0.00    -0.107 A  
HETATM   26  C   UNL     1      -9.042   6.400  67.341  1.00  0.00    -0.111 A  
HETATM   27  C   UNL     1     -10.210   7.116  67.085  1.00  0.00    -0.327 A  
HETATM   28  C   UNL     1     -10.150   8.315  66.377  1.00  0.00    -0.222 A  
HETATM   29  C   UNL     1      -8.925   8.791  65.907  1.00  0.00    -0.240 A  
ENDBRANCH  23  24
ENDBRANCH  22  23
ENDBRANCH  21  22
ENDBRANCH  13  21
ENDBRANCH   2   7
TORSDOF 5
ENDMDL
MODEL      208
REMARK 921   NORMALIZED FREE ENERGY PREDICTED BY IDOCK:   -3.51 KCAL/MOL
REMARK 922        TOTAL FREE ENERGY PREDICTED BY IDOCK:   -5.19 KCAL/MOL
REMARK 923 INTER-LIGAND FREE ENERGY PREDICTED BY IDOCK:   -5.04 KCAL/MOL
REMARK 924 INTRA-LIGAND FREE ENERGY PREDICTED BY IDOCK:   -0.15 KCAL/MOL
REMARK 927      BINDING AFFINITY PREDICTED BY RF-SCORE:    0.00 PKD
ROOT
HETATM    1  N   UNL     1      -8.084   4.865  63.746  1.00  0.00    -0.105 N  
HETATM    2  S   UNL     1      -6.986   5.390  64.901  1.00  0.00    -0.054 S  
HETATM    3  H1  UNL     1      -8.342   5.709  63.233  1.00  0.00     0.000 HD 
HETATM    4  H2  UNL     1      -8.418   3.915  63.590  1.00  0.00     0.000 HD 
HETATM    5  O   UNL     1      -6.621   4.195  65.627  1.00  0.00    -0.042 OA 
HETATM    6  O   UNL     1      -6.004   6.204  64.230  1.00  0.00    -0.024 OA 
ENDROOT
BRANCH   2   7
HETATM    7  C   UNL     1      -7.963   6.411  65.958  1.00  0.00    -0.115 A  
HETATM    8  C   UNL     1      -8.123   6.018  67.291  1.00  0.00    -0.106 A  
HETATM    9  C   UNL     1      -8.873   6.820  68.157  1.00  0.00    -0.120 A  
HETATM   10  C   UNL     1      -9.466   8.006  67.749  1.00  0.00    -0.145 A  
HETATM   11  N   UNL     1     -10.255   8.836  68.559  1.00  0.00    -0.191 NA 
HETATM   12  C   UNL     1      -9.287   8.385  66.411  1.00  0.00    -0.274 A  
HETATM   13  C   UNL     1     -10.377   8.654  69.832  1.00  0.00    -0.209 C  
HETATM   14  C   UNL     1      -8.541   7.601  65.514  1.00  0.00    -0.092 A  
HETATM   15  N   UNL     1      -9.732   7.636  70.541  1.00  0.00    -0.182 N  
HETATM   16  O   UNL     1     -10.022   5.257  69.864  1.00  0.00    -0.195 OA 
HETATM   17 CL   UNL     1      -8.409   8.185  63.894  1.00  0.00    -0.062 Cl 
HETATM   18  S   UNL     1      -9.049   6.322  69.816  1.00  0.00    -0.143 S  
HETATM   19  H   UNL     1      -9.681   7.709  71.558  1.00  0.00     0.000 HD 
HETATM   20  O   UNL     1      -7.728   6.175  70.380  1.00  0.00    -0.093 OA 
BRANCH  13  21
HETATM   21  C   UNL     1     -11.265   9.557  70.665  1.00  0.00    -0.302 C  
BRANCH  21  22
HETATM   22  S   UNL     1     -12.144  10.769  69.626  1.00  0.00    -0.240 SA 
BRANCH  22  23
HETATM   23  C   UNL     1     -10.765  11.820  69.046  1.00  0.00    -0.169 C  
BRANCH  23  24
HETATM   24  C   UNL     1     -11.202  12.669  67.878  1.00  0.00    -0.310 A  
HETATM   25  C   UNL     1     -11.462  14.037  68.059  1.00  0.00    -0.342 A  
HETATM   26  C   UNL     1     -11.949  14.811  67.006  1.00  0.00    -0.225 A  
HETATM   27  C   UNL     1     -12.177  14.229  65.760  1.00  0.00    -0.415 A  
HETATM   28  C   UNL     1     -11.901  12.878  65.562  1.00  0.00    -0.455 A  
HETATM   29  C   UNL     1     -11.416  12.100  66.615  1.00  0.00    -0.426 A  
ENDBRANCH  23  24
ENDBRANCH  22  23
ENDBRANCH  21  22
ENDBRANCH  13  21
ENDBRANCH   2   7
TORSDOF 5
ENDMDL
MODEL      209
REMARK 921   NORMALIZED FREE ENERGY PREDICTED BY IDOCK:   -3.51 KCAL/MOL
REMARK 922        TOTAL FREE ENERGY PREDICTED BY IDOCK:   -5.18 KCAL/MOL
REMARK 923 INTER-LIGAND FREE ENERGY PREDICTED BY IDOCK:   -4.63 KCAL/MOL
REMARK 924 INTRA-LIGAND FREE ENERGY PREDICTED BY IDOCK:   -0.55 KCAL/MOL
REMARK 927      BINDING AFFINITY PREDICTED BY RF-SCORE:    0.00 PKD
ROOT
HETATM    1  N   UNL     1     -10.966  13.786  69.320  1.00  0.00    -0.393 N  
HETATM    2  S   UNL     1     -10.803  12.807  67.968  1.00  0.00    -0.244 S  
HETATM    3  H1  UNL     1     -10.009  13.976  69.617  1.00  0.00     0.000 HD 
HETATM    4  H2  UNL     1     -11.829  14.119  69.749  1.00  0.00     0.000 HD 
HETATM    5  O   UNL     1     -12.159  12.538  67.546  1.00  0.00    -0.453 OA 
HETATM    6  O   UNL     1      -9.843  13.430  67.092  1.00  0.00    -0.228 OA 
ENDROOT
BRANCH   2   7
HETATM    7  C   UNL     1     -10.114  11.319  68.621  1.00  0.00    -0.208 A  
HETATM    8  C   UNL     1      -8.855  10.918  68.163  1.00  0.00    -0.137 A  
HETATM    9  C   UNL     1      -8.275   9.755  68.680  1.00  0.00    -0.106 A  
HETATM   10  C   UNL     1      -8.899   8.977  69.645  1.00  0.00    -0.145 A  
HETATM   11  N   UNL     1      -8.385   7.786  70.178  1.00  0.00    -0.127 NA 
HETATM   12  C   UNL     1     -10.157   9.400  70.095  1.00  0.00    -0.273 A  
HETATM   13  C   UNL     1      -7.185   7.375  69.935  1.00  0.00    -0.081 C  
HETATM   14  C   UNL     1     -10.768  10.563  69.595  1.00  0.00    -0.259 A  
HETATM   15  N   UNL     1      -6.268   8.067  69.138  1.00  0.00    -0.038 N  
HETATM   16  O   UNL     1      -6.858   8.691  66.801  1.00  0.00    -0.068 OA 
HETATM   17 CL   UNL     1     -12.323  10.961  70.234  1.00  0.00    -0.400 Cl 
HETATM   18  S   UNL     1      -6.701   9.280  68.109  1.00  0.00    -0.060 S  
HETATM   19  H   UNL     1      -5.283   7.809  69.196  1.00  0.00     0.000 HD 
HETATM   20  O   UNL     1      -5.790  10.375  68.349  1.00  0.00    -0.041 OA 
BRANCH  13  21
HETATM   21  C   UNL     1      -6.680   6.065  70.508  1.00  0.00    -0.053 C  
BRANCH  21  22
HETATM   22  S   UNL     1      -7.533   4.638  69.761  1.00  0.00    -0.055 SA 
BRANCH  22  23
HETATM   23  C   UNL     1      -7.882   3.610  71.232  1.00  0.00    -0.059 C  
BRANCH  23  24
HETATM   24  C   UNL     1      -8.797   4.342  72.182  1.00  0.00    -0.130 A  
HETATM   25  C   UNL     1     -10.032   4.835  71.731  1.00  0.00    -0.255 A  
HETATM   26  C   UNL     1     -10.847   5.587  72.577  1.00  0.00    -0.302 A  
HETATM   27  C   UNL     1     -10.441   5.850  73.884  1.00  0.00    -0.288 A  
HETATM   28  C   UNL     1      -9.228   5.345  74.351  1.00  0.00    -0.123 A  
HETATM   29  C   UNL     1      -8.410   4.595  73.505  1.00  0.00    -0.102 A  
ENDBRANCH  23  24
ENDBRANCH  22  23
ENDBRANCH  21  22
ENDBRANCH  13  21
ENDBRANCH   2   7
TORSDOF 5
ENDMDL
MODEL      210
REMARK 921   NORMALIZED FREE ENERGY PREDICTED BY IDOCK:   -3.48 KCAL/MOL
REMARK 922        TOTAL FREE ENERGY PREDICTED BY IDOCK:   -5.14 KCAL/MOL
REMARK 923 INTER-LIGAND FREE ENERGY PREDICTED BY IDOCK:   -4.87 KCAL/MOL
REMARK 924 INTRA-LIGAND FREE ENERGY PREDICTED BY IDOCK:   -0.28 KCAL/MOL
REMARK 927      BINDING AFFINITY PREDICTED BY RF-SCORE:    0.00 PKD
ROOT
HETATM    1  N   UNL     1      -8.242   1.786  67.168  1.00  0.00    -0.072 N  
HETATM    2  S   UNL     1      -7.086   2.717  67.948  1.00  0.00    -0.049 S  
HETATM    3  H1  UNL     1      -8.519   2.343  66.359  1.00  0.00     0.000 HD 
HETATM    4  H2  UNL     1      -8.591   0.868  67.441  1.00  0.00     0.000 HD 
HETATM    5  O   UNL     1      -6.694   1.928  69.094  1.00  0.00    -0.029 OA 
HETATM    6  O   UNL     1      -6.131   3.146  66.957  1.00  0.00    -0.023 OA 
ENDROOT
BRANCH   2   7
HETATM    7  C   UNL     1      -8.001   4.114  68.517  1.00  0.00    -0.073 A  
HETATM    8  C   UNL     1      -7.668   5.374  68.007  1.00  0.00    -0.091 A  
HETATM    9  C   UNL     1      -8.391   6.496  68.423  1.00  0.00    -0.117 A  
HETATM   10  C   UNL     1      -9.443   6.412  69.324  1.00  0.00    -0.135 A  
HETATM   11  N   UNL     1     -10.184   7.502  69.804  1.00  0.00    -0.206 NA 
HETATM   12  C   UNL     1      -9.765   5.141  69.818  1.00  0.00    -0.263 A  
HETATM   13  C   UNL     1     -10.062   8.694  69.321  1.00  0.00    -0.202 C  
HETATM   14  C   UNL     1      -9.056   3.993  69.422  1.00  0.00    -0.127 A  
HETATM   15  N   UNL     1      -9.203   9.027  68.269  1.00  0.00    -0.136 N  
HETATM   16  O   UNL     1      -6.772   8.509  68.424  1.00  0.00    -0.062 OA 
HETATM   17 CL   UNL     1      -9.555   2.492  70.116  1.00  0.00    -0.145 Cl 
HETATM   18  S   UNL     1      -7.972   8.052  67.766  1.00  0.00    -0.129 S  
HETATM   19  H   UNL     1      -9.344   9.917  67.791  1.00  0.00     0.000 HD 
HETATM   20  O   UNL     1      -8.069   7.970  66.326  1.00  0.00    -0.104 OA 
BRANCH  13  21
HETATM   21  C   UNL     1     -10.862   9.849  69.891  1.00  0.00    -0.278 C  
BRANCH  21  22
HETATM   22  S   UNL     1     -10.448  11.419  69.060  1.00  0.00    -0.122 SA 
BRANCH  22  23
HETATM   23  C   UNL     1     -11.902  11.650  67.975  1.00  0.00    -0.225 C  
BRANCH  23  24
HETATM   24  C   UNL     1     -11.575  12.601  66.851  1.00  0.00    -0.438 A  
HETATM   25  C   UNL     1     -11.800  12.221  65.518  1.00  0.00    -0.420 A  
HETATM   26  C   UNL     1     -11.422  13.057  64.468  1.00  0.00    -0.389 A  
HETATM   27  C   UNL     1     -10.820  14.285  64.738  1.00  0.00    -0.420 A  
HETATM   28  C   UNL     1     -10.613  14.684  66.057  1.00  0.00    -0.314 A  
HETATM   29  C   UNL     1     -10.988  13.848  67.109  1.00  0.00    -0.298 A  
ENDBRANCH  23  24
ENDBRANCH  22  23
ENDBRANCH  21  22
ENDBRANCH  13  21
ENDBRANCH   2   7
TORSDOF 5
ENDMDL
MODEL      211
REMARK 921   NORMALIZED FREE ENERGY PREDICTED BY IDOCK:   -3.48 KCAL/MOL
REMARK 922        TOTAL FREE ENERGY PREDICTED BY IDOCK:   -5.14 KCAL/MOL
REMARK 923 INTER-LIGAND FREE ENERGY PREDICTED BY IDOCK:   -4.36 KCAL/MOL
REMARK 924 INTRA-LIGAND FREE ENERGY PREDICTED BY IDOCK:   -0.78 KCAL/MOL
REMARK 927      BINDING AFFINITY PREDICTED BY RF-SCORE:    0.00 PKD
ROOT
HETATM    1  N   UNL     1      -5.931   7.167  65.159  1.00  0.00    -0.036 N  
HETATM    2  S   UNL     1      -7.199   6.304  64.479  1.00  0.00    -0.069 S  
HETATM    3  H1  UNL     1      -5.282   6.454  65.491  1.00  0.00     0.000 HD 
HETATM    4  H2  UNL     1      -5.831   8.180  65.225  1.00  0.00     0.000 HD 
HETATM    5  O   UNL     1      -8.118   7.315  64.009  1.00  0.00    -0.112 OA 
HETATM    6  O   UNL     1      -6.630   5.320  63.593  1.00  0.00    -0.029 OA 
ENDROOT
BRANCH   2   7
HETATM    7  C   UNL     1      -7.926   5.487  65.864  1.00  0.00    -0.106 A  
HETATM    8  C   UNL     1      -7.432   5.784  67.139  1.00  0.00    -0.081 A  
HETATM    9  C   UNL     1      -8.004   5.168  68.257  1.00  0.00    -0.087 A  
HETATM   10  C   UNL     1      -9.057   4.270  68.155  1.00  0.00    -0.131 A  
HETATM   11  N   UNL     1      -9.652   3.596  69.232  1.00  0.00    -0.167 NA 
HETATM   12  C   UNL     1      -9.541   3.991  66.870  1.00  0.00    -0.232 A  
HETATM   13  C   UNL     1      -9.376   3.873  70.464  1.00  0.00    -0.154 C  
HETATM   14  C   UNL     1      -8.988   4.592  65.726  1.00  0.00    -0.131 A  
HETATM   15  N   UNL     1      -8.481   4.872  70.859  1.00  0.00    -0.109 N  
HETATM   16  O   UNL     1      -6.138   4.862  70.017  1.00  0.00    -0.020 OA 
HETATM   17 CL   UNL     1      -9.677   4.151  64.204  1.00  0.00    -0.158 Cl 
HETATM   18  S   UNL     1      -7.388   5.561  69.836  1.00  0.00    -0.070 S  
HETATM   19  H   UNL     1      -8.506   5.190  71.828  1.00  0.00     0.000 HD 
HETATM   20  O   UNL     1      -7.495   6.991  70.014  1.00  0.00    -0.085 OA 
BRANCH  13  21
HETATM   21  C   UNL     1     -10.019   3.098  71.598  1.00  0.00    -0.094 C  
BRANCH  21  22
HETATM   22  S   UNL     1      -9.739   3.913  73.204  1.00  0.00    -0.127 SA 
BRANCH  22  23
HETATM   23  C   UNL     1     -11.272   4.893  73.388  1.00  0.00    -0.338 C  
BRANCH  23  24
HETATM   24  C   UNL     1     -11.147   6.209  72.661  1.00  0.00    -0.308 A  
HETATM   25  C   UNL     1     -10.224   7.172  73.100  1.00  0.00    -0.317 A  
HETATM   26  C   UNL     1     -10.162   8.424  72.489  1.00  0.00    -0.369 A  
HETATM   27  C   UNL     1     -11.016   8.727  71.431  1.00  0.00    -0.360 A  
HETATM   28  C   UNL     1     -11.921   7.771  70.971  1.00  0.00    -0.281 A  
HETATM   29  C   UNL     1     -11.987   6.518  71.582  1.00  0.00    -0.387 A  
ENDBRANCH  23  24
ENDBRANCH  22  23
ENDBRANCH  21  22
ENDBRANCH  13  21
ENDBRANCH   2   7
TORSDOF 5
ENDMDL
MODEL      212
REMARK 921   NORMALIZED FREE ENERGY PREDICTED BY IDOCK:   -3.47 KCAL/MOL
REMARK 922        TOTAL FREE ENERGY PREDICTED BY IDOCK:   -5.13 KCAL/MOL
REMARK 923 INTER-LIGAND FREE ENERGY PREDICTED BY IDOCK:   -4.67 KCAL/MOL
REMARK 924 INTRA-LIGAND FREE ENERGY PREDICTED BY IDOCK:   -0.47 KCAL/MOL
REMARK 927      BINDING AFFINITY PREDICTED BY RF-SCORE:    0.00 PKD
ROOT
HETATM    1  N   UNL     1      -8.070  16.970  66.539  1.00  0.00    -0.258 N  
HETATM    2  S   UNL     1      -9.669  16.464  66.531  1.00  0.00    -0.288 S  
HETATM    3  H1  UNL     1      -7.613  16.390  65.835  1.00  0.00     0.000 HD 
HETATM    4  H2  UNL     1      -7.649  17.696  67.117  1.00  0.00     0.000 HD 
HETATM    5  O   UNL     1     -10.317  17.286  67.528  1.00  0.00    -0.323 OA 
HETATM    6  O   UNL     1     -10.112  16.440  65.160  1.00  0.00    -0.529 OA 
ENDROOT
BRANCH   2   7
HETATM    7  C   UNL     1      -9.578  14.811  67.142  1.00  0.00    -0.227 A  
HETATM    8  C   UNL     1      -8.361  14.370  67.674  1.00  0.00    -0.186 A  
HETATM    9  C   UNL     1      -8.266  13.072  68.185  1.00  0.00    -0.157 A  
HETATM   10  C   UNL     1      -9.341  12.194  68.194  1.00  0.00    -0.204 A  
HETATM   11  N   UNL     1      -9.301  10.873  68.662  1.00  0.00    -0.181 NA 
HETATM   12  C   UNL     1     -10.552  12.657  67.663  1.00  0.00    -0.232 A  
HETATM   13  C   UNL     1      -8.281  10.386  69.289  1.00  0.00    -0.158 C  
HETATM   14  C   UNL     1     -10.681  13.955  67.139  1.00  0.00    -0.282 A  
HETATM   15  N   UNL     1      -7.125  11.116  69.585  1.00  0.00    -0.296 N  
HETATM   16  O   UNL     1      -5.855  12.245  67.765  1.00  0.00    -0.073 OA 
HETATM   17 CL   UNL     1     -12.229  14.391  66.509  1.00  0.00    -0.419 Cl 
HETATM   18  S   UNL     1      -6.749  12.547  68.857  1.00  0.00    -0.097 S  
HETATM   19  H   UNL     1      -6.483  10.744  70.285  1.00  0.00     0.000 HD 
HETATM   20  O   UNL     1      -6.385  13.466  69.911  1.00  0.00    -0.124 OA 
BRANCH  13  21
HETATM   21  C   UNL     1      -8.268   8.942  69.751  1.00  0.00    -0.119 C  
BRANCH  21  22
HETATM   22  S   UNL     1      -6.940   7.995  68.936  1.00  0.00    -0.063 SA 
BRANCH  22  23
HETATM   23  C   UNL     1      -5.726   7.828  70.294  1.00  0.00    -0.023 C  
BRANCH  23  24
HETATM   24  C   UNL     1      -6.294   6.987  71.409  1.00  0.00    -0.041 A  
HETATM   25  C   UNL     1      -6.983   5.799  71.116  1.00  0.00    -0.067 A  
HETATM   26  C   UNL     1      -7.586   5.060  72.133  1.00  0.00    -0.094 A  
HETATM   27  C   UNL     1      -7.502   5.494  73.455  1.00  0.00    -0.095 A  
HETATM   28  C   UNL     1      -6.801   6.659  73.761  1.00  0.00    -0.076 A  
HETATM   29  C   UNL     1      -6.199   7.403  72.745  1.00  0.00    -0.055 A  
ENDBRANCH  23  24
ENDBRANCH  22  23
ENDBRANCH  21  22
ENDBRANCH  13  21
ENDBRANCH   2   7
TORSDOF 5
ENDMDL
MODEL      213
REMARK 921   NORMALIZED FREE ENERGY PREDICTED BY IDOCK:   -3.46 KCAL/MOL
REMARK 922        TOTAL FREE ENERGY PREDICTED BY IDOCK:   -5.12 KCAL/MOL
REMARK 923 INTER-LIGAND FREE ENERGY PREDICTED BY IDOCK:   -5.22 KCAL/MOL
REMARK 924 INTRA-LIGAND FREE ENERGY PREDICTED BY IDOCK:    0.09 KCAL/MOL
REMARK 927      BINDING AFFINITY PREDICTED BY RF-SCORE:    0.00 PKD
ROOT
HETATM    1  N   UNL     1      -9.825  14.670  69.244  1.00  0.00    -0.402 N  
HETATM    2  S   UNL     1     -11.025  14.383  68.107  1.00  0.00    -0.262 S  
HETATM    3  H1  UNL     1      -8.969  14.764  68.698  1.00  0.00     0.000 HD 
HETATM    4  H2  UNL     1      -9.929  14.736  70.256  1.00  0.00     0.000 HD 
HETATM    5  O   UNL     1     -12.238  14.251  68.881  1.00  0.00    -0.306 OA 
HETATM    6  O   UNL     1     -10.887  15.375  67.070  1.00  0.00    -0.315 OA 
ENDROOT
BRANCH   2   7
HETATM    7  C   UNL     1     -10.601  12.799  67.455  1.00  0.00    -0.229 A  
HETATM    8  C   UNL     1     -10.433  11.740  68.353  1.00  0.00    -0.231 A  
HETATM    9  C   UNL     1     -10.119  10.468  67.863  1.00  0.00    -0.176 A  
HETATM   10  C   UNL     1      -9.971  10.208  66.508  1.00  0.00    -0.224 A  
HETATM   11  N   UNL     1      -9.626   8.965  65.958  1.00  0.00    -0.257 NA 
HETATM   12  C   UNL     1     -10.149  11.281  65.625  1.00  0.00    -0.295 A  
HETATM   13  C   UNL     1      -9.567   7.883  66.662  1.00  0.00    -0.226 C  
HETATM   14  C   UNL     1     -10.464  12.572  66.085  1.00  0.00    -0.249 A  
HETATM   15  N   UNL     1      -9.854   7.824  68.029  1.00  0.00    -0.158 N  
HETATM   16  O   UNL     1      -8.642   9.297  69.629  1.00  0.00    -0.129 OA 
HETATM   17 CL   UNL     1     -10.647  13.802  64.887  1.00  0.00    -0.401 Cl 
HETATM   18  S   UNL     1      -9.930   9.159  68.994  1.00  0.00    -0.190 S  
HETATM   19  H   UNL     1     -10.025   6.911  68.450  1.00  0.00     0.000 HD 
HETATM   20  O   UNL     1     -11.151   9.050  69.759  1.00  0.00    -0.206 OA 
BRANCH  13  21
HETATM   21  C   UNL     1      -9.160   6.566  66.031  1.00  0.00    -0.086 C  
BRANCH  21  22
HETATM   22  S   UNL     1      -7.579   6.717  65.136  1.00  0.00    -0.097 SA 
BRANCH  22  23
HETATM   23  C   UNL     1      -7.955   5.831  63.581  1.00  0.00    -0.120 C  
BRANCH  23  24
HETATM   24  C   UNL     1      -8.377   4.413  63.871  1.00  0.00    -0.108 A  
HETATM   25  C   UNL     1      -7.506   3.541  64.544  1.00  0.00    -0.072 A  
HETATM   26  C   UNL     1      -7.851   2.204  64.739  1.00  0.00    -0.073 A  
HETATM   27  C   UNL     1      -9.073   1.724  64.271  1.00  0.00    -0.113 A  
HETATM   28  C   UNL     1      -9.957   2.585  63.623  1.00  0.00    -0.142 A  
HETATM   29  C   UNL     1      -9.612   3.923  63.423  1.00  0.00    -0.149 A  
ENDBRANCH  23  24
ENDBRANCH  22  23
ENDBRANCH  21  22
ENDBRANCH  13  21
ENDBRANCH   2   7
TORSDOF 5
ENDMDL
MODEL      214
REMARK 921   NORMALIZED FREE ENERGY PREDICTED BY IDOCK:   -3.46 KCAL/MOL
REMARK 922        TOTAL FREE ENERGY PREDICTED BY IDOCK:   -5.12 KCAL/MOL
REMARK 923 INTER-LIGAND FREE ENERGY PREDICTED BY IDOCK:   -5.31 KCAL/MOL
REMARK 924 INTRA-LIGAND FREE ENERGY PREDICTED BY IDOCK:    0.19 KCAL/MOL
REMARK 927      BINDING AFFINITY PREDICTED BY RF-SCORE:    0.00 PKD
ROOT
HETATM    1  N   UNL     1      -5.541   4.429  70.292  1.00  0.00    -0.012 N  
HETATM    2  S   UNL     1      -6.965   4.569  71.167  1.00  0.00    -0.037 S  
HETATM    3  H1  UNL     1      -4.948   5.182  70.640  1.00  0.00     0.000 HD 
HETATM    4  H2  UNL     1      -5.317   3.742  69.572  1.00  0.00     0.000 HD 
HETATM    5  O   UNL     1      -7.804   3.501  70.674  1.00  0.00    -0.046 OA 
HETATM    6  O   UNL     1      -6.610   4.678  72.560  1.00  0.00    -0.042 OA 
ENDROOT
BRANCH   2   7
HETATM    7  C   UNL     1      -7.633   6.107  70.616  1.00  0.00    -0.093 A  
HETATM    8  C   UNL     1      -8.582   6.084  69.588  1.00  0.00    -0.126 A  
HETATM    9  C   UNL     1      -9.145   7.285  69.147  1.00  0.00    -0.137 A  
HETATM   10  C   UNL     1      -8.805   8.513  69.696  1.00  0.00    -0.137 A  
HETATM   11  N   UNL     1      -9.309   9.753  69.277  1.00  0.00    -0.179 NA 
HETATM   12  C   UNL     1      -7.858   8.514  70.730  1.00  0.00    -0.097 A  
HETATM   13  C   UNL     1     -10.277   9.860  68.429  1.00  0.00    -0.178 C  
HETATM   14  C   UNL     1      -7.271   7.324  71.195  1.00  0.00    -0.072 A  
HETATM   15  N   UNL     1     -10.937   8.769  67.854  1.00  0.00    -0.491 N  
HETATM   16  O   UNL     1      -9.647   7.029  66.626  1.00  0.00    -0.168 OA 
HETATM   17 CL   UNL     1      -6.113   7.473  72.468  1.00  0.00    -0.040 Cl 
HETATM   18  S   UNL     1     -10.335   7.235  67.878  1.00  0.00    -0.211 S  
HETATM   19  H   UNL     1     -11.835   8.931  67.397  1.00  0.00     0.000 HD 
HETATM   20  O   UNL     1     -11.411   6.372  68.309  1.00  0.00    -0.268 OA 
BRANCH  13  21
HETATM   21  C   UNL     1     -10.771  11.222  67.980  1.00  0.00    -0.203 C  
BRANCH  21  22
HETATM   22  S   UNL     1      -9.402  12.418  67.853  1.00  0.00    -0.201 SA 
BRANCH  22  23
HETATM   23  C   UNL     1     -10.178  13.758  66.880  1.00  0.00    -0.261 C  
BRANCH  23  24
HETATM   24  C   UNL     1     -10.826  13.201  65.638  1.00  0.00    -0.294 A  
HETATM   25  C   UNL     1     -10.274  12.080  64.997  1.00  0.00    -0.308 A  
HETATM   26  C   UNL     1     -10.814  11.610  63.800  1.00  0.00    -0.493 A  
HETATM   27  C   UNL     1     -11.915  12.249  63.233  1.00  0.00    -0.499 A  
HETATM   28  C   UNL     1     -12.486  13.349  63.872  1.00  0.00    -0.313 A  
HETATM   29  C   UNL     1     -11.946  13.823  65.068  1.00  0.00    -0.401 A  
ENDBRANCH  23  24
ENDBRANCH  22  23
ENDBRANCH  21  22
ENDBRANCH  13  21
ENDBRANCH   2   7
TORSDOF 5
ENDMDL
MODEL      215
REMARK 921   NORMALIZED FREE ENERGY PREDICTED BY IDOCK:   -3.45 KCAL/MOL
REMARK 922        TOTAL FREE ENERGY PREDICTED BY IDOCK:   -5.10 KCAL/MOL
REMARK 923 INTER-LIGAND FREE ENERGY PREDICTED BY IDOCK:   -4.65 KCAL/MOL
REMARK 924 INTRA-LIGAND FREE ENERGY PREDICTED BY IDOCK:   -0.45 KCAL/MOL
REMARK 927      BINDING AFFINITY PREDICTED BY RF-SCORE:    0.00 PKD
ROOT
HETATM    1  N   UNL     1     -11.042  12.906  68.043  1.00  0.00    -0.241 N  
HETATM    2  S   UNL     1     -11.098  12.858  66.367  1.00  0.00    -0.295 S  
HETATM    3  H1  UNL     1     -10.073  13.137  68.263  1.00  0.00     0.000 HD 
HETATM    4  H2  UNL     1     -11.807  12.741  68.697  1.00  0.00     0.000 HD 
HETATM    5  O   UNL     1     -12.471  12.531  66.056  1.00  0.00    -0.565 OA 
HETATM    6  O   UNL     1     -10.472  14.060  65.877  1.00  0.00    -0.292 OA 
ENDROOT
BRANCH   2   7
HETATM    7  C   UNL     1     -10.086  11.470  65.964  1.00  0.00    -0.232 A  
HETATM    8  C   UNL     1      -9.346  10.872  66.990  1.00  0.00    -0.180 A  
HETATM    9  C   UNL     1      -8.553   9.757  66.704  1.00  0.00    -0.128 A  
HETATM   10  C   UNL     1      -8.472   9.206  65.433  1.00  0.00    -0.149 A  
HETATM   11  N   UNL     1      -7.672   8.111  65.076  1.00  0.00    -0.106 NA 
HETATM   12  C   UNL     1      -9.226   9.816  64.421  1.00  0.00    -0.301 A  
HETATM   13  C   UNL     1      -7.042   7.395  65.948  1.00  0.00    -0.065 C  
HETATM   14  C   UNL     1     -10.032  10.939  64.674  1.00  0.00    -0.310 A  
HETATM   15  N   UNL     1      -7.100   7.615  67.328  1.00  0.00    -0.083 N  
HETATM   16  O   UNL     1      -6.499   9.841  68.269  1.00  0.00    -0.055 OA 
HETATM   17 CL   UNL     1     -10.901  11.593  63.332  1.00  0.00    -0.462 Cl 
HETATM   18  S   UNL     1      -7.652   9.017  67.997  1.00  0.00    -0.093 S  
HETATM   19  H   UNL     1      -6.783   6.872  67.952  1.00  0.00     0.000 HD 
HETATM   20  O   UNL     1      -8.585   8.644  69.035  1.00  0.00    -0.127 OA 
BRANCH  13  21
HETATM   21  C   UNL     1      -6.164   6.238  65.516  1.00  0.00    -0.037 C  
BRANCH  21  22
HETATM   22  S   UNL     1      -6.387   5.856  63.748  1.00  0.00    -0.029 SA 
BRANCH  22  23
HETATM   23  C   UNL     1      -7.175   4.208  63.828  1.00  0.00    -0.050 C  
BRANCH  23  24
HETATM   24  C   UNL     1      -8.064   4.106  65.042  1.00  0.00    -0.097 A  
HETATM   25  C   UNL     1      -7.628   3.405  66.178  1.00  0.00    -0.077 A  
HETATM   26  C   UNL     1      -8.475   3.231  67.272  1.00  0.00    -0.106 A  
HETATM   27  C   UNL     1      -9.764   3.760  67.246  1.00  0.00    -0.144 A  
HETATM   28  C   UNL     1     -10.200   4.478  66.134  1.00  0.00    -0.283 A  
HETATM   29  C   UNL     1      -9.355   4.651  65.037  1.00  0.00    -0.142 A  
ENDBRANCH  23  24
ENDBRANCH  22  23
ENDBRANCH  21  22
ENDBRANCH  13  21
ENDBRANCH   2   7
TORSDOF 5
ENDMDL
MODEL      216
REMARK 921   NORMALIZED FREE ENERGY PREDICTED BY IDOCK:   -3.39 KCAL/MOL
REMARK 922        TOTAL FREE ENERGY PREDICTED BY IDOCK:   -5.03 KCAL/MOL
REMARK 923 INTER-LIGAND FREE ENERGY PREDICTED BY IDOCK:   -4.95 KCAL/MOL
REMARK 924 INTRA-LIGAND FREE ENERGY PREDICTED BY IDOCK:   -0.08 KCAL/MOL
REMARK 927      BINDING AFFINITY PREDICTED BY RF-SCORE:    0.00 PKD
ROOT
HETATM    1  N   UNL     1     -10.517  12.509  69.319  1.00  0.00    -0.422 N  
HETATM    2  S   UNL     1     -10.900  11.451  68.075  1.00  0.00    -0.235 S  
HETATM    3  H1  UNL     1      -9.516  12.674  69.220  1.00  0.00     0.000 HD 
HETATM    4  H2  UNL     1     -11.146  12.901  70.019  1.00  0.00     0.000 HD 
HETATM    5  O   UNL     1     -12.319  11.218  68.216  1.00  0.00    -0.542 OA 
HETATM    6  O   UNL     1     -10.332  11.983  66.862  1.00  0.00    -0.210 OA 
ENDROOT
BRANCH   2   7
HETATM    7  C   UNL     1     -10.043   9.973  68.518  1.00  0.00    -0.169 A  
HETATM    8  C   UNL     1      -9.698   9.787  69.861  1.00  0.00    -0.273 A  
HETATM    9  C   UNL     1      -9.039   8.615  70.244  1.00  0.00    -0.162 A  
HETATM   10  C   UNL     1      -8.714   7.614  69.340  1.00  0.00    -0.136 A  
HETATM   11  N   UNL     1      -8.026   6.433  69.656  1.00  0.00    -0.114 NA 
HETATM   12  C   UNL     1      -9.074   7.817  68.001  1.00  0.00    -0.128 A  
HETATM   13  C   UNL     1      -7.764   6.083  70.871  1.00  0.00    -0.098 C  
HETATM   14  C   UNL     1      -9.736   8.984  67.582  1.00  0.00    -0.156 A  
HETATM   15  N   UNL     1      -8.146   6.821  71.996  1.00  0.00    -0.101 N  
HETATM   16  O   UNL     1      -7.478   9.210  72.215  1.00  0.00    -0.320 OA 
HETATM   17 CL   UNL     1     -10.111   9.106  65.901  1.00  0.00    -0.258 Cl 
HETATM   18  S   UNL     1      -8.632   8.394  71.922  1.00  0.00    -0.192 S  
HETATM   19  H   UNL     1      -8.122   6.363  72.908  1.00  0.00     0.000 HD 
HETATM   20  O   UNL     1      -9.851   8.490  72.693  1.00  0.00    -0.281 OA 
BRANCH  13  21
HETATM   21  C   UNL     1      -6.991   4.812  71.166  1.00  0.00    -0.047 C  
BRANCH  21  22
HETATM   22  S   UNL     1      -7.370   3.506  69.953  1.00  0.00    -0.041 SA 
BRANCH  22  23
HETATM   23  C   UNL     1      -8.434   2.392  70.938  1.00  0.00    -0.054 C  
BRANCH  23  24
HETATM   24  C   UNL     1      -9.040   3.134  72.103  1.00  0.00    -0.147 A  
HETATM   25  C   UNL     1     -10.238   3.848  71.937  1.00  0.00    -0.143 A  
HETATM   26  C   UNL     1     -10.760   4.608  72.983  1.00  0.00    -0.302 A  
HETATM   27  C   UNL     1     -10.097   4.658  74.208  1.00  0.00    -0.249 A  
HETATM   28  C   UNL     1      -8.920   3.934  74.392  1.00  0.00    -0.100 A  
HETATM   29  C   UNL     1      -8.393   3.175  73.346  1.00  0.00    -0.074 A  
ENDBRANCH  23  24
ENDBRANCH  22  23
ENDBRANCH  21  22
ENDBRANCH  13  21
ENDBRANCH   2   7
TORSDOF 5
ENDMDL
MODEL      217
REMARK 921   NORMALIZED FREE ENERGY PREDICTED BY IDOCK:   -3.39 KCAL/MOL
REMARK 922        TOTAL FREE ENERGY PREDICTED BY IDOCK:   -5.03 KCAL/MOL
REMARK 923 INTER-LIGAND FREE ENERGY PREDICTED BY IDOCK:   -4.68 KCAL/MOL
REMARK 924 INTRA-LIGAND FREE ENERGY PREDICTED BY IDOCK:   -0.35 KCAL/MOL
REMARK 927      BINDING AFFINITY PREDICTED BY RF-SCORE:    0.00 PKD
ROOT
HETATM    1  N   UNL     1      -9.261  19.922  69.026  1.00  0.00    -0.107 N  
HETATM    2  S   UNL     1      -8.068  19.215  68.082  1.00  0.00    -0.329 S  
HETATM    3  H1  UNL     1      -9.136  19.510  69.950  1.00  0.00     0.000 HD 
HETATM    4  H2  UNL     1      -9.955  20.611  68.739  1.00  0.00     0.000 HD 
HETATM    5  O   UNL     1      -8.245  19.799  66.772  1.00  0.00    -0.285 OA 
HETATM    6  O   UNL     1      -6.824  19.321  68.801  1.00  0.00    -0.285 OA 
ENDROOT
BRANCH   2   7
HETATM    7  C   UNL     1      -8.555  17.520  68.010  1.00  0.00    -0.250 A  
HETATM    8  C   UNL     1      -7.667  16.557  68.500  1.00  0.00    -0.204 A  
HETATM    9  C   UNL     1      -8.035  15.208  68.477  1.00  0.00    -0.142 A  
HETATM   10  C   UNL     1      -9.261  14.780  67.988  1.00  0.00    -0.194 A  
HETATM   11  N   UNL     1      -9.676  13.443  67.908  1.00  0.00    -0.219 NA 
HETATM   12  C   UNL     1     -10.139  15.761  67.508  1.00  0.00    -0.245 A  
HETATM   13  C   UNL     1      -9.008  12.473  68.439  1.00  0.00    -0.130 C  
HETATM   14  C   UNL     1      -9.799  17.125  67.516  1.00  0.00    -0.266 A  
HETATM   15  N   UNL     1      -7.821  12.644  69.159  1.00  0.00    -0.306 N  
HETATM   16  O   UNL     1      -5.885  13.820  68.125  1.00  0.00    -0.100 OA 
HETATM   17 CL   UNL     1     -10.973  18.224  66.885  1.00  0.00    -0.116 Cl 
HETATM   18  S   UNL     1      -6.924  14.026  69.106  1.00  0.00    -0.077 S  
HETATM   19  H   UNL     1      -7.495  11.876  69.746  1.00  0.00     0.000 HD 
HETATM   20  O   UNL     1      -6.623  14.380  70.474  1.00  0.00    -0.129 OA 
BRANCH  13  21
HETATM   21  C   UNL     1      -9.477  11.038  68.302  1.00  0.00    -0.172 C  
BRANCH  21  22
HETATM   22  S   UNL     1     -10.807  10.887  67.064  1.00  0.00    -0.243 SA 
BRANCH  22  23
HETATM   23  C   UNL     1     -10.524   9.195  66.430  1.00  0.00    -0.071 C  
BRANCH  23  24
HETATM   24  C   UNL     1      -9.113   9.053  65.917  1.00  0.00    -0.264 A  
HETATM   25  C   UNL     1      -8.263   8.074  66.456  1.00  0.00    -0.115 A  
HETATM   26  C   UNL     1      -6.931   7.990  66.050  1.00  0.00    -0.058 A  
HETATM   27  C   UNL     1      -6.435   8.879  65.098  1.00  0.00    -0.064 A  
HETATM   28  C   UNL     1      -7.276   9.839  64.538  1.00  0.00    -0.128 A  
HETATM   29  C   UNL     1      -8.608   9.927  64.945  1.00  0.00    -0.183 A  
ENDBRANCH  23  24
ENDBRANCH  22  23
ENDBRANCH  21  22
ENDBRANCH  13  21
ENDBRANCH   2   7
TORSDOF 5
ENDMDL
MODEL      218
REMARK 921   NORMALIZED FREE ENERGY PREDICTED BY IDOCK:   -3.38 KCAL/MOL
REMARK 922        TOTAL FREE ENERGY PREDICTED BY IDOCK:   -5.02 KCAL/MOL
REMARK 923 INTER-LIGAND FREE ENERGY PREDICTED BY IDOCK:   -4.20 KCAL/MOL
REMARK 924 INTRA-LIGAND FREE ENERGY PREDICTED BY IDOCK:   -0.81 KCAL/MOL
REMARK 927      BINDING AFFINITY PREDICTED BY RF-SCORE:    0.00 PKD
ROOT
HETATM    1  N   UNL     1     -13.579   9.482  72.816  1.00  0.00    -0.658 N  
HETATM    2  S   UNL     1     -12.792   9.858  71.383  1.00  0.00    -0.437 S  
HETATM    3  H1  UNL     1     -12.837   9.438  73.514  1.00  0.00     0.000 HD 
HETATM    4  H2  UNL     1     -14.578   9.332  72.958  1.00  0.00     0.000 HD 
HETATM    5  O   UNL     1     -13.844   9.921  70.394  1.00  0.00     0.181 OA 
HETATM    6  O   UNL     1     -11.925  10.979  71.644  1.00  0.00     0.002 OA 
ENDROOT
BRANCH   2   7
HETATM    7  C   UNL     1     -11.811   8.425  71.067  1.00  0.00    -0.252 A  
HETATM    8  C   UNL     1     -11.794   7.412  72.032  1.00  0.00    -0.335 A  
HETATM    9  C   UNL     1     -11.044   6.255  71.798  1.00  0.00    -0.273 A  
HETATM   10  C   UNL     1     -10.312   6.064  70.635  1.00  0.00    -0.222 A  
HETATM   11  N   UNL     1      -9.516   4.944  70.356  1.00  0.00    -0.153 NA 
HETATM   12  C   UNL     1     -10.348   7.089  69.679  1.00  0.00    -0.222 A  
HETATM   13  C   UNL     1      -9.513   3.889  71.101  1.00  0.00    -0.163 C  
HETATM   14  C   UNL     1     -11.091   8.264  69.883  1.00  0.00    -0.100 A  
HETATM   15  N   UNL     1     -10.305   3.737  72.244  1.00  0.00    -0.133 N  
HETATM   16  O   UNL     1     -10.185   5.411  74.083  1.00  0.00    -0.214 OA 
HETATM   17 CL   UNL     1     -11.038   9.447  68.625  1.00  0.00    -0.062 Cl 
HETATM   18  S   UNL     1     -11.047   4.999  73.002  1.00  0.00    -0.308 S  
HETATM   19  H   UNL     1     -10.429   2.800  72.628  1.00  0.00     0.000 HD 
HETATM   20  O   UNL     1     -12.418   4.600  73.228  1.00  0.00     0.177 OA 
BRANCH  13  21
HETATM   21  C   UNL     1      -8.613   2.712  70.779  1.00  0.00    -0.060 C  
BRANCH  21  22
HETATM   22  S   UNL     1      -6.989   3.263  70.163  1.00  0.00    -0.034 SA 
BRANCH  22  23
HETATM   23  C   UNL     1      -7.066   2.737  68.414  1.00  0.00    -0.048 C  
BRANCH  23  24
HETATM   24  C   UNL     1      -7.857   3.728  67.598  1.00  0.00    -0.081 A  
HETATM   25  C   UNL     1      -9.232   3.532  67.391  1.00  0.00    -0.226 A  
HETATM   26  C   UNL     1      -9.955   4.395  66.568  1.00  0.00    -0.245 A  
HETATM   27  C   UNL     1      -9.314   5.465  65.946  1.00  0.00    -0.155 A  
HETATM   28  C   UNL     1      -7.955   5.683  66.161  1.00  0.00    -0.106 A  
HETATM   29  C   UNL     1      -7.228   4.820  66.983  1.00  0.00    -0.077 A  
ENDBRANCH  23  24
ENDBRANCH  22  23
ENDBRANCH  21  22
ENDBRANCH  13  21
ENDBRANCH   2   7
TORSDOF 5
ENDMDL
MODEL      219
REMARK 921   NORMALIZED FREE ENERGY PREDICTED BY IDOCK:   -3.31 KCAL/MOL
REMARK 922        TOTAL FREE ENERGY PREDICTED BY IDOCK:   -4.93 KCAL/MOL
REMARK 923 INTER-LIGAND FREE ENERGY PREDICTED BY IDOCK:   -4.86 KCAL/MOL
REMARK 924 INTRA-LIGAND FREE ENERGY PREDICTED BY IDOCK:   -0.07 KCAL/MOL
REMARK 927      BINDING AFFINITY PREDICTED BY RF-SCORE:    0.00 PKD
ROOT
HETATM    1  N   UNL     1      -9.205   5.172  63.203  1.00  0.00    -0.346 N  
HETATM    2  S   UNL     1      -7.898   6.174  63.522  1.00  0.00    -0.101 S  
HETATM    3  H1  UNL     1      -9.926   5.796  62.841  1.00  0.00     0.000 HD 
HETATM    4  H2  UNL     1      -9.266   4.163  63.341  1.00  0.00     0.000 HD 
HETATM    5  O   UNL     1      -6.877   5.289  64.036  1.00  0.00    -0.045 OA 
HETATM    6  O   UNL     1      -7.681   6.990  62.355  1.00  0.00    -0.099 OA 
ENDROOT
BRANCH   2   7
HETATM    7  C   UNL     1      -8.475   7.190  64.844  1.00  0.00     0.075 A  
HETATM    8  C   UNL     1      -8.896   6.565  66.022  1.00  0.00    -0.154 A  
HETATM    9  C   UNL     1      -9.338   7.347  67.094  1.00  0.00    -0.142 A  
HETATM   10  C   UNL     1      -9.369   8.734  67.041  1.00  0.00    -0.157 A  
HETATM   11  N   UNL     1      -9.830   9.571  68.068  1.00  0.00    -0.151 NA 
HETATM   12  C   UNL     1      -8.936   9.340  65.854  1.00  0.00    -0.225 A  
HETATM   13  C   UNL     1     -10.126   9.130  69.246  1.00  0.00    -0.194 C  
HETATM   14  C   UNL     1      -8.489   8.583  64.758  1.00  0.00    -0.127 A  
HETATM   15  N   UNL     1     -10.006   7.792  69.632  1.00  0.00    -0.186 N  
HETATM   16  O   UNL     1     -11.161   6.005  68.338  1.00  0.00    -0.314 OA 
HETATM   17 CL   UNL     1      -7.992   9.462  63.356  1.00  0.00    -0.135 Cl 
HETATM   18  S   UNL     1      -9.843   6.553  68.557  1.00  0.00    -0.142 S  
HETATM   19  H   UNL     1     -10.021   7.571  70.628  1.00  0.00     0.000 HD 
HETATM   20  O   UNL     1      -8.746   5.737  69.025  1.00  0.00    -0.112 OA 
BRANCH  13  21
HETATM   21  C   UNL     1     -10.650  10.066  70.317  1.00  0.00    -0.295 C  
BRANCH  21  22
HETATM   22  S   UNL     1     -12.332   9.601  70.844  1.00  0.00    -0.227 SA 
BRANCH  22  23
HETATM   23  C   UNL     1     -12.040   9.067  72.567  1.00  0.00    -0.113 C  
BRANCH  23  24
HETATM   24  C   UNL     1     -11.330   7.737  72.595  1.00  0.00    -0.449 A  
HETATM   25  C   UNL     1      -9.990   7.661  73.008  1.00  0.00    -0.343 A  
HETATM   26  C   UNL     1      -9.299   6.451  72.955  1.00  0.00    -0.141 A  
HETATM   27  C   UNL     1      -9.939   5.302  72.494  1.00  0.00    -0.208 A  
HETATM   28  C   UNL     1     -11.275   5.359  72.103  1.00  0.00    -0.197 A  
HETATM   29  C   UNL     1     -11.969   6.570  72.153  1.00  0.00    -0.334 A  
ENDBRANCH  23  24
ENDBRANCH  22  23
ENDBRANCH  21  22
ENDBRANCH  13  21
ENDBRANCH   2   7
TORSDOF 5
ENDMDL
MODEL      220
REMARK 921   NORMALIZED FREE ENERGY PREDICTED BY IDOCK:   -3.31 KCAL/MOL
REMARK 922        TOTAL FREE ENERGY PREDICTED BY IDOCK:   -4.92 KCAL/MOL
REMARK 923 INTER-LIGAND FREE ENERGY PREDICTED BY IDOCK:   -4.26 KCAL/MOL
REMARK 924 INTRA-LIGAND FREE ENERGY PREDICTED BY IDOCK:   -0.66 KCAL/MOL
REMARK 927      BINDING AFFINITY PREDICTED BY RF-SCORE:    0.00 PKD
ROOT
HETATM    1  N   UNL     1     -12.487  11.918  70.184  1.00  0.00    -0.136 N  
HETATM    2  S   UNL     1     -11.347  11.591  68.998  1.00  0.00    -0.305 S  
HETATM    3  H1  UNL     1     -12.941  12.778  69.876  1.00  0.00     0.000 HD 
HETATM    4  H2  UNL     1     -12.684  11.378  71.026  1.00  0.00     0.000 HD 
HETATM    5  O   UNL     1     -10.705  10.372  69.435  1.00  0.00    -0.211 OA 
HETATM    6  O   UNL     1     -12.007  11.688  67.721  1.00  0.00    -0.608 OA 
ENDROOT
BRANCH   2   7
HETATM    7  C   UNL     1     -10.196  12.919  69.160  1.00  0.00     0.258 A  
HETATM    8  C   UNL     1      -8.832  12.625  69.074  1.00  0.00     0.503 A  
HETATM    9  C   UNL     1      -7.898  13.661  69.176  1.00  0.00     0.239 A  
HETATM   10  C   UNL     1      -8.272  14.985  69.354  1.00  0.00    -0.147 A  
HETATM   11  N   UNL     1      -7.385  16.063  69.495  1.00  0.00    -0.201 NA 
HETATM   12  C   UNL     1      -9.644  15.260  69.430  1.00  0.00    -0.245 A  
HETATM   13  C   UNL     1      -6.112  15.946  69.311  1.00  0.00    -0.133 C  
HETATM   14  C   UNL     1     -10.608  14.242  69.333  1.00  0.00    -0.081 A  
HETATM   15  N   UNL     1      -5.483  14.754  68.937  1.00  0.00    -0.086 N  
HETATM   16  O   UNL     1      -5.784  12.695  70.304  1.00  0.00    -0.137 OA 
HETATM   17 CL   UNL     1     -12.263  14.722  69.453  1.00  0.00    -0.291 Cl 
HETATM   18  S   UNL     1      -6.205  13.277  69.052  1.00  0.00    -0.099 S  
HETATM   19  H   UNL     1      -4.530  14.801  68.575  1.00  0.00     0.000 HD 
HETATM   20  O   UNL     1      -5.990  12.609  67.789  1.00  0.00    -0.096 OA 
BRANCH  13  21
HETATM   21  C   UNL     1      -5.186  17.130  69.504  1.00  0.00    -0.162 C  
BRANCH  21  22
HETATM   22  S   UNL     1      -5.225  18.248  68.064  1.00  0.00    -0.158 SA 
BRANCH  22  23
HETATM   23  C   UNL     1      -6.524  19.436  68.561  1.00  0.00    -0.254 C  
BRANCH  23  24
HETATM   24  C   UNL     1      -7.883  18.937  68.141  1.00  0.00    -0.327 A  
HETATM   25  C   UNL     1      -8.055  18.331  66.885  1.00  0.00    -0.259 A  
HETATM   26  C   UNL     1      -9.323  17.945  66.452  1.00  0.00    -0.268 A  
HETATM   27  C   UNL     1     -10.433  18.154  67.269  1.00  0.00    -0.407 A  
HETATM   28  C   UNL     1     -10.272  18.732  68.527  1.00  0.00    -0.397 A  
HETATM   29  C   UNL     1      -9.005  19.122  68.962  1.00  0.00    -0.253 A  
ENDBRANCH  23  24
ENDBRANCH  22  23
ENDBRANCH  21  22
ENDBRANCH  13  21
ENDBRANCH   2   7
TORSDOF 5
ENDMDL
MODEL      221
REMARK 921   NORMALIZED FREE ENERGY PREDICTED BY IDOCK:   -3.30 KCAL/MOL
REMARK 922        TOTAL FREE ENERGY PREDICTED BY IDOCK:   -4.91 KCAL/MOL
REMARK 923 INTER-LIGAND FREE ENERGY PREDICTED BY IDOCK:   -4.41 KCAL/MOL
REMARK 924 INTRA-LIGAND FREE ENERGY PREDICTED BY IDOCK:   -0.50 KCAL/MOL
REMARK 927      BINDING AFFINITY PREDICTED BY RF-SCORE:    0.00 PKD
ROOT
HETATM    1  N   UNL     1      -9.053  14.550  69.132  1.00  0.00    -0.388 N  
HETATM    2  S   UNL     1      -8.891  14.166  67.507  1.00  0.00    -0.213 S  
HETATM    3  H1  UNL     1      -8.396  13.933  69.609  1.00  0.00     0.000 HD 
HETATM    4  H2  UNL     1      -9.669  15.246  69.550  1.00  0.00     0.000 HD 
HETATM    5  O   UNL     1      -9.821  15.041  66.830  1.00  0.00    -0.230 OA 
HETATM    6  O   UNL     1      -7.483  14.166  67.198  1.00  0.00    -0.106 OA 
ENDROOT
BRANCH   2   7
HETATM    7  C   UNL     1      -9.506  12.515  67.414  1.00  0.00    -0.184 A  
HETATM    8  C   UNL     1      -8.638  11.511  66.972  1.00  0.00    -0.161 A  
HETATM    9  C   UNL     1      -9.091  10.189  66.910  1.00  0.00    -0.142 A  
HETATM   10  C   UNL     1     -10.379   9.826  67.278  1.00  0.00    -0.248 A  
HETATM   11  N   UNL     1     -10.903   8.527  67.209  1.00  0.00    -0.129 NA 
HETATM   12  C   UNL     1     -11.231  10.846  67.724  1.00  0.00    -0.384 A  
HETATM   13  C   UNL     1     -10.173   7.495  66.940  1.00  0.00    -0.289 C  
HETATM   14  C   UNL     1     -10.807  12.184  67.797  1.00  0.00    -0.224 A  
HETATM   15  N   UNL     1      -8.795   7.552  66.709  1.00  0.00    -0.134 N  
HETATM   16  O   UNL     1      -7.880   9.043  64.938  1.00  0.00    -0.109 OA 
HETATM   17 CL   UNL     1     -11.964  13.338  68.356  1.00  0.00    -0.373 Cl 
HETATM   18  S   UNL     1      -7.992   8.952  66.373  1.00  0.00    -0.104 S  
HETATM   19  H   UNL     1      -8.260   6.684  66.750  1.00  0.00     0.000 HD 
HETATM   20  O   UNL     1      -6.831   8.982  67.233  1.00  0.00    -0.075 OA 
BRANCH  13  21
HETATM   21  C   UNL     1     -10.786   6.112  66.844  1.00  0.00    -0.335 C  
BRANCH  21  22
HETATM   22  S   UNL     1     -10.282   5.061  68.245  1.00  0.00    -0.018 SA 
BRANCH  22  23
HETATM   23  C   UNL     1      -9.468   3.670  67.382  1.00  0.00    -0.195 C  
BRANCH  23  24
HETATM   24  C   UNL     1      -8.199   4.134  66.712  1.00  0.00    -0.101 A  
HETATM   25  C   UNL     1      -7.151   4.668  67.479  1.00  0.00    -0.065 A  
HETATM   26  C   UNL     1      -6.010   5.179  66.862  1.00  0.00    -0.026 A  
HETATM   27  C   UNL     1      -5.899   5.157  65.473  1.00  0.00    -0.018 A  
HETATM   28  C   UNL     1      -6.921   4.608  64.702  1.00  0.00    -0.050 A  
HETATM   29  C   UNL     1      -8.066   4.098  65.316  1.00  0.00    -0.101 A  
ENDBRANCH  23  24
ENDBRANCH  22  23
ENDBRANCH  21  22
ENDBRANCH  13  21
ENDBRANCH   2   7
TORSDOF 5
ENDMDL
MODEL      222
REMARK 921   NORMALIZED FREE ENERGY PREDICTED BY IDOCK:   -3.28 KCAL/MOL
REMARK 922        TOTAL FREE ENERGY PREDICTED BY IDOCK:   -4.89 KCAL/MOL
REMARK 923 INTER-LIGAND FREE ENERGY PREDICTED BY IDOCK:   -4.66 KCAL/MOL
REMARK 924 INTRA-LIGAND FREE ENERGY PREDICTED BY IDOCK:   -0.23 KCAL/MOL
REMARK 927      BINDING AFFINITY PREDICTED BY RF-SCORE:    0.00 PKD
ROOT
HETATM    1  N   UNL     1      -8.528   4.879  62.638  1.00  0.00    -0.107 N  
HETATM    2  S   UNL     1      -7.691   4.782  64.089  1.00  0.00    -0.083 S  
HETATM    3  H1  UNL     1      -8.148   5.705  62.176  1.00  0.00     0.000 HD 
HETATM    4  H2  UNL     1      -9.254   4.252  62.294  1.00  0.00     0.000 HD 
HETATM    5  O   UNL     1      -8.230   3.611  64.743  1.00  0.00    -0.090 OA 
HETATM    6  O   UNL     1      -6.287   4.909  63.791  1.00  0.00    -0.025 OA 
ENDROOT
BRANCH   2   7
HETATM    7  C   UNL     1      -8.231   6.213  64.969  1.00  0.00    -0.132 A  
HETATM    8  C   UNL     1      -8.971   6.028  66.141  1.00  0.00    -0.160 A  
HETATM    9  C   UNL     1      -9.392   7.144  66.871  1.00  0.00    -0.155 A  
HETATM   10  C   UNL     1      -9.098   8.443  66.481  1.00  0.00    -0.176 A  
HETATM   11  N   UNL     1      -9.518   9.601  67.150  1.00  0.00    -0.145 NA 
HETATM   12  C   UNL     1      -8.350   8.607  65.307  1.00  0.00    -0.177 A  
HETATM   13  C   UNL     1     -10.096   9.568  68.305  1.00  0.00    -0.183 C  
HETATM   14  C   UNL     1      -7.913   7.506  64.550  1.00  0.00    -0.122 A  
HETATM   15  N   UNL     1     -10.349   8.392  69.019  1.00  0.00    -0.218 N  
HETATM   16  O   UNL     1     -11.651   6.546  67.972  1.00  0.00     0.016 OA 
HETATM   17 CL   UNL     1      -7.008   7.855  63.121  1.00  0.00    -0.082 Cl 
HETATM   18  S   UNL     1     -10.298   6.893  68.335  1.00  0.00    -0.201 S  
HETATM   19  H   UNL     1     -10.576   8.466  70.011  1.00  0.00     0.000 HD 
HETATM   20  O   UNL     1      -9.506   6.062  69.214  1.00  0.00    -0.131 OA 
BRANCH  13  21
HETATM   21  C   UNL     1     -10.562  10.844  68.979  1.00  0.00    -0.216 C  
BRANCH  21  22
HETATM   22  S   UNL     1     -10.195  12.309  67.958  1.00  0.00    -0.211 SA 
BRANCH  22  23
HETATM   23  C   UNL     1     -10.916  13.649  68.973  1.00  0.00    -0.234 C  
BRANCH  23  24
HETATM   24  C   UNL     1     -10.808  14.971  68.255  1.00  0.00    -0.259 A  
HETATM   25  C   UNL     1     -10.689  15.006  66.856  1.00  0.00    -0.308 A  
HETATM   26  C   UNL     1     -10.502  16.217  66.191  1.00  0.00    -0.330 A  
HETATM   27  C   UNL     1     -10.437  17.407  66.913  1.00  0.00    -0.279 A  
HETATM   28  C   UNL     1     -10.576  17.388  68.300  1.00  0.00    -0.366 A  
HETATM   29  C   UNL     1     -10.761  16.176  68.969  1.00  0.00    -0.287 A  
ENDBRANCH  23  24
ENDBRANCH  22  23
ENDBRANCH  21  22
ENDBRANCH  13  21
ENDBRANCH   2   7
TORSDOF 5
ENDMDL
MODEL      223
REMARK 921   NORMALIZED FREE ENERGY PREDICTED BY IDOCK:   -3.25 KCAL/MOL
REMARK 922        TOTAL FREE ENERGY PREDICTED BY IDOCK:   -4.84 KCAL/MOL
REMARK 923 INTER-LIGAND FREE ENERGY PREDICTED BY IDOCK:   -4.07 KCAL/MOL
REMARK 924 INTRA-LIGAND FREE ENERGY PREDICTED BY IDOCK:   -0.78 KCAL/MOL
REMARK 927      BINDING AFFINITY PREDICTED BY RF-SCORE:    0.00 PKD
ROOT
HETATM    1  N   UNL     1     -10.447   9.167  71.939  1.00  0.00    -0.308 N  
HETATM    2  S   UNL     1      -9.343   8.103  72.621  1.00  0.00    -0.286 S  
HETATM    3  H1  UNL     1     -11.345   8.688  72.011  1.00  0.00     0.000 HD 
HETATM    4  H2  UNL     1     -10.262  10.087  71.541  1.00  0.00     0.000 HD 
HETATM    5  O   UNL     1      -8.071   8.782  72.519  1.00  0.00    -0.381 OA 
HETATM    6  O   UNL     1      -9.878   7.675  73.889  1.00  0.00    -0.250 OA 
ENDROOT
BRANCH   2   7
HETATM    7  C   UNL     1      -9.343   6.740  71.500  1.00  0.00    -0.153 A  
HETATM    8  C   UNL     1      -8.183   6.498  70.756  1.00  0.00    -0.125 A  
HETATM    9  C   UNL     1      -8.146   5.411  69.877  1.00  0.00    -0.088 A  
HETATM   10  C   UNL     1      -9.221   4.548  69.714  1.00  0.00    -0.125 A  
HETATM   11  N   UNL     1      -9.257   3.463  68.827  1.00  0.00    -0.153 NA 
HETATM   12  C   UNL     1     -10.370   4.805  70.474  1.00  0.00    -0.187 A  
HETATM   13  C   UNL     1      -8.216   3.057  68.179  1.00  0.00    -0.076 C  
HETATM   14  C   UNL     1     -10.441   5.889  71.365  1.00  0.00    -0.236 A  
HETATM   15  N   UNL     1      -6.947   3.634  68.299  1.00  0.00    -0.050 N  
HETATM   16  O   UNL     1      -6.633   6.070  67.889  1.00  0.00    -0.051 OA 
HETATM   17 CL   UNL     1     -11.922   6.091  72.230  1.00  0.00    -0.332 Cl 
HETATM   18  S   UNL     1      -6.690   5.116  68.972  1.00  0.00    -0.054 S  
HETATM   19  H   UNL     1      -6.142   3.111  67.953  1.00  0.00     0.000 HD 
HETATM   20  O   UNL     1      -5.603   4.964  69.911  1.00  0.00    -0.014 OA 
BRANCH  13  21
HETATM   21  C   UNL     1      -8.307   1.898  67.206  1.00  0.00    -0.078 C  
BRANCH  21  22
HETATM   22  S   UNL     1      -7.888   2.417  65.510  1.00  0.00    -0.078 SA 
BRANCH  22  23
HETATM   23  C   UNL     1      -9.369   3.385  65.049  1.00  0.00    -0.154 C  
BRANCH  23  24
HETATM   24  C   UNL     1      -9.150   4.851  65.329  1.00  0.00    -0.154 A  
HETATM   25  C   UNL     1      -9.880   5.491  66.344  1.00  0.00    -0.192 A  
HETATM   26  C   UNL     1      -9.748   6.863  66.554  1.00  0.00    -0.185 A  
HETATM   27  C   UNL     1      -8.883   7.611  65.757  1.00  0.00    -0.134 A  
HETATM   28  C   UNL     1      -8.136   6.983  64.762  1.00  0.00    -0.096 A  
HETATM   29  C   UNL     1      -8.268   5.610  64.548  1.00  0.00    -0.125 A  
ENDBRANCH  23  24
ENDBRANCH  22  23
ENDBRANCH  21  22
ENDBRANCH  13  21
ENDBRANCH   2   7
TORSDOF 5
ENDMDL
MODEL      224
REMARK 921   NORMALIZED FREE ENERGY PREDICTED BY IDOCK:   -3.23 KCAL/MOL
REMARK 922        TOTAL FREE ENERGY PREDICTED BY IDOCK:   -4.82 KCAL/MOL
REMARK 923 INTER-LIGAND FREE ENERGY PREDICTED BY IDOCK:   -4.22 KCAL/MOL
REMARK 924 INTRA-LIGAND FREE ENERGY PREDICTED BY IDOCK:   -0.60 KCAL/MOL
REMARK 927      BINDING AFFINITY PREDICTED BY RF-SCORE:    0.00 PKD
ROOT
HETATM    1  N   UNL     1     -14.378  15.272  72.900  1.00  0.00    -0.067 N  
HETATM    2  S   UNL     1     -13.341  14.145  72.214  1.00  0.00    -0.506 S  
HETATM    3  H1  UNL     1     -14.942  15.610  72.120  1.00  0.00     0.000 HD 
HETATM    4  H2  UNL     1     -14.432  15.555  73.877  1.00  0.00     0.000 HD 
HETATM    5  O   UNL     1     -12.541  13.665  73.319  1.00  0.00    -0.002 OA 
HETATM    6  O   UNL     1     -14.137  13.255  71.407  1.00  0.00     0.264 OA 
ENDROOT
BRANCH   2   7
HETATM    7  C   UNL     1     -12.314  15.121  71.162  1.00  0.00    -0.341 A  
HETATM    8  C   UNL     1     -12.131  14.698  69.841  1.00  0.00    -0.385 A  
HETATM    9  C   UNL     1     -11.341  15.465  68.978  1.00  0.00    -0.316 A  
HETATM   10  C   UNL     1     -10.729  16.644  69.379  1.00  0.00    -0.331 A  
HETATM   11  N   UNL     1      -9.901  17.438  68.573  1.00  0.00    -0.303 NA 
HETATM   12  C   UNL     1     -10.931  17.053  70.704  1.00  0.00     0.640 A  
HETATM   13  C   UNL     1      -9.753  17.229  67.307  1.00  0.00    -0.262 C  
HETATM   14  C   UNL     1     -11.718  16.306  71.597  1.00  0.00    -0.420 A  
HETATM   15  N   UNL     1     -10.406  16.213  66.601  1.00  0.00    -0.291 N  
HETATM   16  O   UNL     1     -10.190  13.842  67.331  1.00  0.00    -0.248 OA 
HETATM   17 CL   UNL     1     -11.874  16.924  73.203  1.00  0.00    -0.265 Cl 
HETATM   18  S   UNL     1     -11.137  14.931  67.335  1.00  0.00    -0.332 S  
HETATM   19  H   UNL     1     -10.430  16.268  65.583  1.00  0.00     0.000 HD 
HETATM   20  O   UNL     1     -12.448  14.804  66.741  1.00  0.00    -0.041 OA 
BRANCH  13  21
HETATM   21  C   UNL     1      -8.823  18.094  66.479  1.00  0.00    -0.271 C  
BRANCH  21  22
HETATM   22  S   UNL     1      -7.306  17.192  66.021  1.00  0.00     0.046 SA 
BRANCH  22  23
HETATM   23  C   UNL     1      -6.342  17.292  67.571  1.00  0.00    -0.149 C  
BRANCH  23  24
HETATM   24  C   UNL     1      -6.437  15.996  68.337  1.00  0.00    -0.120 A  
HETATM   25  C   UNL     1      -6.774  14.807  67.670  1.00  0.00    -0.198 A  
HETATM   26  C   UNL     1      -6.949  13.620  68.382  1.00  0.00    -0.104 A  
HETATM   27  C   UNL     1      -6.785  13.607  69.766  1.00  0.00     0.059 A  
HETATM   28  C   UNL     1      -6.428  14.775  70.436  1.00  0.00    -0.100 A  
HETATM   29  C   UNL     1      -6.254  15.965  69.726  1.00  0.00    -0.177 A  
ENDBRANCH  23  24
ENDBRANCH  22  23
ENDBRANCH  21  22
ENDBRANCH  13  21
ENDBRANCH   2   7
TORSDOF 5
ENDMDL
MODEL      225
REMARK 921   NORMALIZED FREE ENERGY PREDICTED BY IDOCK:   -3.13 KCAL/MOL
REMARK 922        TOTAL FREE ENERGY PREDICTED BY IDOCK:   -4.70 KCAL/MOL
REMARK 923 INTER-LIGAND FREE ENERGY PREDICTED BY IDOCK:   -4.63 KCAL/MOL
REMARK 924 INTRA-LIGAND FREE ENERGY PREDICTED BY IDOCK:   -0.07 KCAL/MOL
REMARK 927      BINDING AFFINITY PREDICTED BY RF-SCORE:    0.00 PKD
ROOT
HETATM    1  N   UNL     1     -10.063  15.894  69.903  1.00  0.00    -0.246 N  
HETATM    2  S   UNL     1     -10.217  15.474  68.287  1.00  0.00    -0.225 S  
HETATM    3  H1  UNL     1      -9.120  15.601  70.158  1.00  0.00     0.000 HD 
HETATM    4  H2  UNL     1     -10.758  16.343  70.499  1.00  0.00     0.000 HD 
HETATM    5  O   UNL     1     -11.554  15.889  67.927  1.00  0.00    -0.256 OA 
HETATM    6  O   UNL     1      -9.053  15.970  67.596  1.00  0.00    -0.197 OA 
ENDROOT
BRANCH   2   7
HETATM    7  C   UNL     1     -10.167  13.710  68.316  1.00  0.00    -0.243 A  
HETATM    8  C   UNL     1      -9.224  13.063  67.510  1.00  0.00    -0.195 A  
HETATM    9  C   UNL     1      -9.146  11.667  67.530  1.00  0.00    -0.172 A  
HETATM   10  C   UNL     1      -9.969  10.887  68.330  1.00  0.00    -0.178 A  
HETATM   11  N   UNL     1      -9.962   9.485  68.372  1.00  0.00    -0.159 NA 
HETATM   12  C   UNL     1     -10.902  11.555  69.135  1.00  0.00    -0.241 A  
HETATM   13  C   UNL     1      -9.063   8.775  67.775  1.00  0.00    -0.135 C  
HETATM   14  C   UNL     1     -11.007  12.956  69.137  1.00  0.00    -0.133 A  
HETATM   15  N   UNL     1      -7.998   9.314  67.047  1.00  0.00    -0.102 N  
HETATM   16  O   UNL     1      -8.434  10.893  65.171  1.00  0.00    -0.143 OA 
HETATM   17 CL   UNL     1     -12.206  13.646  70.171  1.00  0.00    -0.412 Cl 
HETATM   18  S   UNL     1      -7.957  10.880  66.533  1.00  0.00    -0.154 S  
HETATM   19  H   UNL     1      -7.208   8.709  66.822  1.00  0.00     0.000 HD 
HETATM   20  O   UNL     1      -6.658  11.402  66.891  1.00  0.00    -0.118 OA 
BRANCH  13  21
HETATM   21  C   UNL     1      -9.111   7.260  67.821  1.00  0.00    -0.124 C  
BRANCH  21  22
HETATM   22  S   UNL     1     -10.454   6.668  68.901  1.00  0.00    -0.231 SA 
BRANCH  22  23
HETATM   23  C   UNL     1      -9.823   7.132  70.554  1.00  0.00    -0.179 C  
BRANCH  23  24
HETATM   24  C   UNL     1      -9.130   5.961  71.202  1.00  0.00    -0.152 A  
HETATM   25  C   UNL     1      -9.362   4.657  70.734  1.00  0.00    -0.215 A  
HETATM   26  C   UNL     1      -8.794   3.560  71.381  1.00  0.00    -0.137 A  
HETATM   27  C   UNL     1      -7.984   3.752  72.498  1.00  0.00    -0.073 A  
HETATM   28  C   UNL     1      -7.727   5.042  72.959  1.00  0.00    -0.097 A  
HETATM   29  C   UNL     1      -8.296   6.142  72.314  1.00  0.00    -0.113 A  
ENDBRANCH  23  24
ENDBRANCH  22  23
ENDBRANCH  21  22
ENDBRANCH  13  21
ENDBRANCH   2   7
TORSDOF 5
ENDMDL
MODEL      226
REMARK 921   NORMALIZED FREE ENERGY PREDICTED BY IDOCK:   -3.11 KCAL/MOL
REMARK 922        TOTAL FREE ENERGY PREDICTED BY IDOCK:   -4.66 KCAL/MOL
REMARK 923 INTER-LIGAND FREE ENERGY PREDICTED BY IDOCK:   -4.15 KCAL/MOL
REMARK 924 INTRA-LIGAND FREE ENERGY PREDICTED BY IDOCK:   -0.52 KCAL/MOL
REMARK 927      BINDING AFFINITY PREDICTED BY RF-SCORE:    0.00 PKD
ROOT
HETATM    1  N   UNL     1      -8.325   3.035  73.352  1.00  0.00    -0.072 N  
HETATM    2  S   UNL     1      -9.913   3.175  72.829  1.00  0.00    -0.152 S  
HETATM    3  H1  UNL     1      -8.247   3.701  74.121  1.00  0.00     0.000 HD 
HETATM    4  H2  UNL     1      -7.599   2.421  72.984  1.00  0.00     0.000 HD 
HETATM    5  O   UNL     1     -10.023   2.231  71.740  1.00  0.00    -0.153 OA 
HETATM    6  O   UNL     1     -10.762   3.099  73.991  1.00  0.00    -0.178 OA 
ENDROOT
BRANCH   2   7
HETATM    7  C   UNL     1      -9.983   4.808  72.165  1.00  0.00    -0.179 A  
HETATM    8  C   UNL     1      -8.825   5.331  71.578  1.00  0.00    -0.144 A  
HETATM    9  C   UNL     1      -8.858   6.615  71.023  1.00  0.00    -0.142 A  
HETATM   10  C   UNL     1     -10.004   7.397  71.023  1.00  0.00    -0.183 A  
HETATM   11  N   UNL     1     -10.091   8.701  70.512  1.00  0.00    -0.190 NA 
HETATM   12  C   UNL     1     -11.154   6.851  71.609  1.00  0.00    -0.271 A  
HETATM   13  C   UNL     1      -9.137   9.250  69.837  1.00  0.00    -0.191 C  
HETATM   14  C   UNL     1     -11.154   5.566  72.177  1.00  0.00    -0.210 A  
HETATM   15  N   UNL     1      -7.932   8.611  69.525  1.00  0.00    -0.095 N  
HETATM   16  O   UNL     1      -6.515   7.657  71.336  1.00  0.00    -0.038 OA 
HETATM   17 CL   UNL     1     -12.639   5.022  72.873  1.00  0.00     0.304 Cl 
HETATM   18  S   UNL     1      -7.413   7.243  70.285  1.00  0.00    -0.085 S  
HETATM   19  H   UNL     1      -7.346   9.012  68.792  1.00  0.00     0.000 HD 
HETATM   20  O   UNL     1      -7.004   6.322  69.249  1.00  0.00    -0.060 OA 
BRANCH  13  21
HETATM   21  C   UNL     1      -9.262  10.673  69.329  1.00  0.00    -0.104 C  
BRANCH  21  22
HETATM   22  S   UNL     1     -10.694  10.860  68.216  1.00  0.00    -0.224 SA 
BRANCH  22  23
HETATM   23  C   UNL     1      -9.952  10.443  66.597  1.00  0.00    -0.210 C  
BRANCH  23  24
HETATM   24  C   UNL     1      -9.758   8.952  66.474  1.00  0.00    -0.322 A  
HETATM   25  C   UNL     1     -10.640   8.071  67.120  1.00  0.00    -0.367 A  
HETATM   26  C   UNL     1     -10.419   6.694  67.083  1.00  0.00    -0.358 A  
HETATM   27  C   UNL     1      -9.320   6.182  66.397  1.00  0.00    -0.173 A  
HETATM   28  C   UNL     1      -8.450   7.045  65.733  1.00  0.00    -0.154 A  
HETATM   29  C   UNL     1      -8.667   8.424  65.769  1.00  0.00    -0.199 A  
ENDBRANCH  23  24
ENDBRANCH  22  23
ENDBRANCH  21  22
ENDBRANCH  13  21
ENDBRANCH   2   7
TORSDOF 5
ENDMDL
MODEL      227
REMARK 921   NORMALIZED FREE ENERGY PREDICTED BY IDOCK:   -3.08 KCAL/MOL
REMARK 922        TOTAL FREE ENERGY PREDICTED BY IDOCK:   -4.63 KCAL/MOL
REMARK 923 INTER-LIGAND FREE ENERGY PREDICTED BY IDOCK:   -4.63 KCAL/MOL
REMARK 924 INTRA-LIGAND FREE ENERGY PREDICTED BY IDOCK:   -0.01 KCAL/MOL
REMARK 927      BINDING AFFINITY PREDICTED BY RF-SCORE:    0.00 PKD
ROOT
HETATM    1  N   UNL     1      -9.507   3.317  63.960  1.00  0.00    -0.127 N  
HETATM    2  S   UNL     1      -8.095   4.191  63.720  1.00  0.00    -0.094 S  
HETATM    3  H1  UNL     1     -10.229   4.025  64.096  1.00  0.00     0.000 HD 
HETATM    4  H2  UNL     1      -9.619   2.304  63.969  1.00  0.00     0.000 HD 
HETATM    5  O   UNL     1      -7.073   3.187  63.527  1.00  0.00    -0.046 OA 
HETATM    6  O   UNL     1      -8.371   5.197  62.725  1.00  0.00    -0.097 OA 
ENDROOT
BRANCH   2   7
HETATM    7  C   UNL     1      -7.827   4.972  65.279  1.00  0.00    -0.089 A  
HETATM    8  C   UNL     1      -7.946   6.364  65.349  1.00  0.00    -0.116 A  
HETATM    9  C   UNL     1      -7.761   7.008  66.576  1.00  0.00    -0.104 A  
HETATM   10  C   UNL     1      -7.468   6.317  67.743  1.00  0.00    -0.093 A  
HETATM   11  N   UNL     1      -7.240   6.906  68.995  1.00  0.00    -0.088 NA 
HETATM   12  C   UNL     1      -7.360   4.922  67.653  1.00  0.00    -0.078 A  
HETATM   13  C   UNL     1      -7.442   8.162  69.221  1.00  0.00    -0.089 C  
HETATM   14  C   UNL     1      -7.538   4.245  66.434  1.00  0.00    -0.089 A  
HETATM   15  N   UNL     1      -7.921   9.061  68.263  1.00  0.00    -0.104 N  
HETATM   16  O   UNL     1      -6.734   9.328  66.091  1.00  0.00    -0.072 OA 
HETATM   17 CL   UNL     1      -7.368   2.526  66.467  1.00  0.00    -0.064 Cl 
HETATM   18  S   UNL     1      -7.928   8.739  66.647  1.00  0.00    -0.100 S  
HETATM   19  H   UNL     1      -8.282   9.961  68.581  1.00  0.00     0.000 HD 
HETATM   20  O   UNL     1      -9.245   9.080  66.161  1.00  0.00    -0.183 OA 
BRANCH  13  21
HETATM   21  C   UNL     1      -7.153   8.763  70.583  1.00  0.00    -0.063 C  
BRANCH  21  22
HETATM   22  S   UNL     1      -8.583   8.597  71.701  1.00  0.00    -0.170 SA 
BRANCH  22  23
HETATM   23  C   UNL     1      -9.957   8.408  70.510  1.00  0.00    -0.185 C  
BRANCH  23  24
HETATM   24  C   UNL     1     -11.127   9.270  70.912  1.00  0.00    -0.374 A  
HETATM   25  C   UNL     1     -11.323  10.520  70.303  1.00  0.00    -0.407 A  
HETATM   26  C   UNL     1     -12.350  11.362  70.728  1.00  0.00    -0.483 A  
HETATM   27  C   UNL     1     -13.196  10.964  71.761  1.00  0.00    -0.513 A  
HETATM   28  C   UNL     1     -13.026   9.716  72.358  1.00  0.00    -0.358 A  
HETATM   29  C   UNL     1     -11.997   8.872  71.937  1.00  0.00    -0.441 A  
ENDBRANCH  23  24
ENDBRANCH  22  23
ENDBRANCH  21  22
ENDBRANCH  13  21
ENDBRANCH   2   7
TORSDOF 5
ENDMDL
MODEL      228
REMARK 921   NORMALIZED FREE ENERGY PREDICTED BY IDOCK:   -3.07 KCAL/MOL
REMARK 922        TOTAL FREE ENERGY PREDICTED BY IDOCK:   -4.62 KCAL/MOL
REMARK 923 INTER-LIGAND FREE ENERGY PREDICTED BY IDOCK:   -4.19 KCAL/MOL
REMARK 924 INTRA-LIGAND FREE ENERGY PREDICTED BY IDOCK:   -0.43 KCAL/MOL
REMARK 927      BINDING AFFINITY PREDICTED BY RF-SCORE:    0.00 PKD
ROOT
HETATM    1  N   UNL     1      -9.524   3.363  64.023  1.00  0.00    -0.127 N  
HETATM    2  S   UNL     1      -8.391   4.491  64.531  1.00  0.00    -0.121 S  
HETATM    3  H1  UNL     1     -10.381   3.900  63.889  1.00  0.00     0.000 HD 
HETATM    4  H2  UNL     1      -9.387   2.363  63.879  1.00  0.00     0.000 HD 
HETATM    5  O   UNL     1      -7.177   3.730  64.719  1.00  0.00    -0.064 OA 
HETATM    6  O   UNL     1      -8.454   5.610  63.625  1.00  0.00    -0.090 OA 
ENDROOT
BRANCH   2   7
HETATM    7  C   UNL     1      -8.991   4.990  66.113  1.00  0.00    -0.131 A  
HETATM    8  C   UNL     1      -9.210   6.353  66.336  1.00  0.00    -0.176 A  
HETATM    9  C   UNL     1      -9.707   6.775  67.574  1.00  0.00    -0.128 A  
HETATM   10  C   UNL     1     -10.003   5.888  68.599  1.00  0.00    -0.148 A  
HETATM   11  N   UNL     1     -10.472   6.251  69.870  1.00  0.00    -0.207 NA 
HETATM   12  C   UNL     1      -9.783   4.526  68.352  1.00  0.00    -0.188 A  
HETATM   13  C   UNL     1     -10.833   7.456  70.162  1.00  0.00    -0.256 C  
HETATM   14  C   UNL     1      -9.283   4.069  67.121  1.00  0.00    -0.165 A  
HETATM   15  N   UNL     1     -10.815   8.519  69.252  1.00  0.00    -0.407 N  
HETATM   16  O   UNL     1      -8.713   9.110  68.056  1.00  0.00    -0.128 OA 
HETATM   17 CL   UNL     1      -9.052   2.365  66.958  1.00  0.00    -0.164 Cl 
HETATM   18  S   UNL     1      -9.988   8.474  67.827  1.00  0.00    -0.203 S  
HETATM   19  H   UNL     1     -11.339   9.364  69.483  1.00  0.00     0.000 HD 
HETATM   20  O   UNL     1     -10.898   8.934  66.803  1.00  0.00    -0.126 OA 
BRANCH  13  21
HETATM   21  C   UNL     1     -11.306   7.811  71.558  1.00  0.00    -0.255 C  
BRANCH  21  22
HETATM   22  S   UNL     1     -11.161   6.390  72.691  1.00  0.00    -0.232 SA 
BRANCH  22  23
HETATM   23  C   UNL     1      -9.962   7.023  73.917  1.00  0.00    -0.332 C  
BRANCH  23  24
HETATM   24  C   UNL     1      -8.587   6.464  73.648  1.00  0.00    -0.129 A  
HETATM   25  C   UNL     1      -7.466   7.310  73.664  1.00  0.00    -0.115 A  
HETATM   26  C   UNL     1      -6.203   6.820  73.332  1.00  0.00    -0.063 A  
HETATM   27  C   UNL     1      -6.044   5.480  72.987  1.00  0.00    -0.046 A  
HETATM   28  C   UNL     1      -7.145   4.624  72.991  1.00  0.00    -0.078 A  
HETATM   29  C   UNL     1      -8.410   5.113  73.320  1.00  0.00    -0.111 A  
ENDBRANCH  23  24
ENDBRANCH  22  23
ENDBRANCH  21  22
ENDBRANCH  13  21
ENDBRANCH   2   7
TORSDOF 5
ENDMDL
MODEL      229
REMARK 921   NORMALIZED FREE ENERGY PREDICTED BY IDOCK:   -3.00 KCAL/MOL
REMARK 922        TOTAL FREE ENERGY PREDICTED BY IDOCK:   -4.53 KCAL/MOL
REMARK 923 INTER-LIGAND FREE ENERGY PREDICTED BY IDOCK:   -4.97 KCAL/MOL
REMARK 924 INTRA-LIGAND FREE ENERGY PREDICTED BY IDOCK:    0.44 KCAL/MOL
REMARK 927      BINDING AFFINITY PREDICTED BY RF-SCORE:    0.00 PKD
ROOT
HETATM    1  N   UNL     1      -9.006   4.051  62.464  1.00  0.00    -0.097 N  
HETATM    2  S   UNL     1      -7.870   4.034  63.698  1.00  0.00    -0.088 S  
HETATM    3  H1  UNL     1      -8.731   4.835  61.871  1.00  0.00     0.000 HD 
HETATM    4  H2  UNL     1      -9.795   3.419  62.334  1.00  0.00     0.000 HD 
HETATM    5  O   UNL     1      -8.259   2.923  64.537  1.00  0.00    -0.085 OA 
HETATM    6  O   UNL     1      -6.565   4.107  63.090  1.00  0.00    -0.032 OA 
ENDROOT
BRANCH   2   7
HETATM    7  C   UNL     1      -8.190   5.534  64.570  1.00  0.00    -0.129 A  
HETATM    8  C   UNL     1      -8.830   5.452  65.811  1.00  0.00    -0.151 A  
HETATM    9  C   UNL     1      -9.076   6.624  66.534  1.00  0.00    -0.149 A  
HETATM   10  C   UNL     1      -8.702   7.878  66.072  1.00  0.00    -0.158 A  
HETATM   11  N   UNL     1      -8.949   9.089  66.733  1.00  0.00    -0.132 NA 
HETATM   12  C   UNL     1      -8.056   7.936  64.829  1.00  0.00    -0.141 A  
HETATM   13  C   UNL     1      -9.415   9.143  67.937  1.00  0.00    -0.141 C  
HETATM   14  C   UNL     1      -7.795   6.779  64.076  1.00  0.00    -0.106 A  
HETATM   15  N   UNL     1      -9.707   8.017  68.713  1.00  0.00    -0.153 N  
HETATM   16  O   UNL     1     -11.266   6.274  67.858  1.00  0.00    -0.323 OA 
HETATM   17 CL   UNL     1      -7.000   6.999  62.559  1.00  0.00    -0.055 Cl 
HETATM   18  S   UNL     1      -9.859   6.501  68.084  1.00  0.00    -0.135 S  
HETATM   19  H   UNL     1      -9.832   8.140  69.718  1.00  0.00     0.000 HD 
HETATM   20  O   UNL     1      -9.068   5.624  68.916  1.00  0.00    -0.114 OA 
BRANCH  13  21
HETATM   21  C   UNL     1      -9.696  10.476  68.603  1.00  0.00    -0.173 C  
BRANCH  21  22
HETATM   22  S   UNL     1      -8.802  11.834  67.779  1.00  0.00    -0.170 SA 
BRANCH  22  23
HETATM   23  C   UNL     1      -9.396  11.669  66.058  1.00  0.00    -0.227 C  
BRANCH  23  24
HETATM   24  C   UNL     1     -10.432  12.722  65.753  1.00  0.00    -0.294 A  
HETATM   25  C   UNL     1     -11.784  12.488  66.053  1.00  0.00    -0.472 A  
HETATM   26  C   UNL     1     -12.760  13.419  65.697  1.00  0.00    -0.432 A  
HETATM   27  C   UNL     1     -12.397  14.595  65.044  1.00  0.00    -0.289 A  
HETATM   28  C   UNL     1     -11.056  14.850  64.762  1.00  0.00    -0.395 A  
HETATM   29  C   UNL     1     -10.077  13.919  65.115  1.00  0.00    -0.330 A  
ENDBRANCH  23  24
ENDBRANCH  22  23
ENDBRANCH  21  22
ENDBRANCH  13  21
ENDBRANCH   2   7
TORSDOF 5
ENDMDL
MODEL      230
REMARK 921   NORMALIZED FREE ENERGY PREDICTED BY IDOCK:   -2.98 KCAL/MOL
REMARK 922        TOTAL FREE ENERGY PREDICTED BY IDOCK:   -4.50 KCAL/MOL
REMARK 923 INTER-LIGAND FREE ENERGY PREDICTED BY IDOCK:   -3.76 KCAL/MOL
REMARK 924 INTRA-LIGAND FREE ENERGY PREDICTED BY IDOCK:   -0.74 KCAL/MOL
REMARK 927      BINDING AFFINITY PREDICTED BY RF-SCORE:    0.00 PKD
ROOT
HETATM    1  N   UNL     1      -8.844   8.900  64.486  1.00  0.00    -0.395 N  
HETATM    2  S   UNL     1      -9.079   9.572  66.005  1.00  0.00    -0.192 S  
HETATM    3  H1  UNL     1      -9.598   8.221  64.384  1.00  0.00     0.000 HD 
HETATM    4  H2  UNL     1      -8.110   9.120  63.813  1.00  0.00     0.000 HD 
HETATM    5  O   UNL     1      -8.010  10.534  66.148  1.00  0.00    -0.135 OA 
HETATM    6  O   UNL     1     -10.465   9.955  66.101  1.00  0.00    -0.183 OA 
ENDROOT
BRANCH   2   7
HETATM    7  C   UNL     1      -8.771   8.224  67.101  1.00  0.00    -0.123 A  
HETATM    8  C   UNL     1      -8.618   6.948  66.550  1.00  0.00    -0.129 A  
HETATM    9  C   UNL     1      -8.350   5.864  67.393  1.00  0.00    -0.105 A  
HETATM   10  C   UNL     1      -8.222   6.004  68.768  1.00  0.00    -0.104 A  
HETATM   11  N   UNL     1      -7.987   4.955  69.668  1.00  0.00    -0.066 NA 
HETATM   12  C   UNL     1      -8.373   7.292  69.298  1.00  0.00    -0.132 A  
HETATM   13  C   UNL     1      -7.703   3.755  69.280  1.00  0.00    -0.052 C  
HETATM   14  C   UNL     1      -8.644   8.402  68.479  1.00  0.00    -0.136 A  
HETATM   15  N   UNL     1      -7.581   3.375  67.940  1.00  0.00    -0.064 N  
HETATM   16  O   UNL     1      -9.453   3.775  66.348  1.00  0.00    -0.177 OA 
HETATM   17 CL   UNL     1      -8.814   9.929  69.268  1.00  0.00    -0.162 Cl 
HETATM   18  S   UNL     1      -8.147   4.286  66.688  1.00  0.00    -0.102 S  
HETATM   19  H   UNL     1      -7.119   2.491  67.727  1.00  0.00     0.000 HD 
HETATM   20  O   UNL     1      -7.081   4.365  65.716  1.00  0.00    -0.067 OA 
BRANCH  13  21
HETATM   21  C   UNL     1      -7.486   2.643  70.288  1.00  0.00    -0.043 C  
BRANCH  21  22
HETATM   22  S   UNL     1      -7.030   3.306  71.924  1.00  0.00    -0.031 SA 
BRANCH  22  23
HETATM   23  C   UNL     1      -8.663   3.424  72.737  1.00  0.00    -0.085 C  
BRANCH  23  24
HETATM   24  C   UNL     1      -9.154   4.850  72.731  1.00  0.00    -0.135 A  
HETATM   25  C   UNL     1      -8.598   5.792  73.612  1.00  0.00    -0.119 A  
HETATM   26  C   UNL     1      -9.103   7.090  73.674  1.00  0.00    -0.198 A  
HETATM   27  C   UNL     1     -10.165   7.464  72.854  1.00  0.00    -0.310 A  
HETATM   28  C   UNL     1     -10.710   6.546  71.958  1.00  0.00    -0.253 A  
HETATM   29  C   UNL     1     -10.208   5.245  71.895  1.00  0.00    -0.264 A  
ENDBRANCH  23  24
ENDBRANCH  22  23
ENDBRANCH  21  22
ENDBRANCH  13  21
ENDBRANCH   2   7
TORSDOF 5
ENDMDL
MODEL      231
REMARK 921   NORMALIZED FREE ENERGY PREDICTED BY IDOCK:   -2.98 KCAL/MOL
REMARK 922        TOTAL FREE ENERGY PREDICTED BY IDOCK:   -4.50 KCAL/MOL
REMARK 923 INTER-LIGAND FREE ENERGY PREDICTED BY IDOCK:   -4.03 KCAL/MOL
REMARK 924 INTRA-LIGAND FREE ENERGY PREDICTED BY IDOCK:   -0.46 KCAL/MOL
REMARK 927      BINDING AFFINITY PREDICTED BY RF-SCORE:    0.00 PKD
ROOT
HETATM    1  N   UNL     1     -10.886   9.380  71.775  1.00  0.00    -0.296 N  
HETATM    2  S   UNL     1      -9.709   8.242  72.140  1.00  0.00    -0.304 S  
HETATM    3  H1  UNL     1     -11.762   8.859  71.789  1.00  0.00     0.000 HD 
HETATM    4  H2  UNL     1     -10.755  10.373  71.582  1.00  0.00     0.000 HD 
HETATM    5  O   UNL     1      -8.467   8.982  72.121  1.00  0.00    -0.365 OA 
HETATM    6  O   UNL     1     -10.148   7.522  73.309  1.00  0.00    -0.271 OA 
ENDROOT
BRANCH   2   7
HETATM    7  C   UNL     1      -9.739   7.161  70.746  1.00  0.00    -0.171 A  
HETATM    8  C   UNL     1      -8.539   6.924  70.068  1.00  0.00    -0.141 A  
HETATM    9  C   UNL     1      -8.529   6.054  68.973  1.00  0.00    -0.117 A  
HETATM   10  C   UNL     1      -9.670   5.402  68.529  1.00  0.00    -0.137 A  
HETATM   11  N   UNL     1      -9.732   4.545  67.422  1.00  0.00    -0.181 NA 
HETATM   12  C   UNL     1     -10.861   5.647  69.227  1.00  0.00    -0.309 A  
HETATM   13  C   UNL     1      -8.678   4.146  66.790  1.00  0.00    -0.114 C  
HETATM   14  C   UNL     1     -10.906   6.518  70.330  1.00  0.00    -0.279 A  
HETATM   15  N   UNL     1      -7.373   4.504  67.144  1.00  0.00    -0.073 N  
HETATM   16  O   UNL     1      -6.734   6.904  67.320  1.00  0.00    -0.058 OA 
HETATM   17 CL   UNL     1     -12.442   6.734  71.089  1.00  0.00    -0.398 Cl 
HETATM   18  S   UNL     1      -7.023   5.760  68.152  1.00  0.00    -0.070 S  
HETATM   19  H   UNL     1      -6.600   3.961  66.759  1.00  0.00     0.000 HD 
HETATM   20  O   UNL     1      -6.074   5.263  69.122  1.00  0.00    -0.022 OA 
BRANCH  13  21
HETATM   21  C   UNL     1      -8.792   3.244  65.577  1.00  0.00    -0.136 C  
BRANCH  21  22
HETATM   22  S   UNL     1      -7.651   3.759  64.252  1.00  0.00    -0.080 SA 
BRANCH  22  23
HETATM   23  C   UNL     1      -8.447   5.297  63.665  1.00  0.00    -0.091 C  
BRANCH  23  24
HETATM   24  C   UNL     1      -7.414   6.371  63.431  1.00  0.00    -0.073 A  
HETATM   25  C   UNL     1      -7.705   7.709  63.742  1.00  0.00    -0.126 A  
HETATM   26  C   UNL     1      -6.790   8.720  63.450  1.00  0.00    -0.089 A  
HETATM   27  C   UNL     1      -5.572   8.405  62.850  1.00  0.00    -0.073 A  
HETATM   28  C   UNL     1      -5.261   7.078  62.558  1.00  0.00    -0.033 A  
HETATM   29  C   UNL     1      -6.177   6.065  62.847  1.00  0.00    -0.025 A  
ENDBRANCH  23  24
ENDBRANCH  22  23
ENDBRANCH  21  22
ENDBRANCH  13  21
ENDBRANCH   2   7
TORSDOF 5
ENDMDL
MODEL      232
REMARK 921   NORMALIZED FREE ENERGY PREDICTED BY IDOCK:   -2.93 KCAL/MOL
REMARK 922        TOTAL FREE ENERGY PREDICTED BY IDOCK:   -4.44 KCAL/MOL
REMARK 923 INTER-LIGAND FREE ENERGY PREDICTED BY IDOCK:   -4.27 KCAL/MOL
REMARK 924 INTRA-LIGAND FREE ENERGY PREDICTED BY IDOCK:   -0.17 KCAL/MOL
REMARK 927      BINDING AFFINITY PREDICTED BY RF-SCORE:    0.00 PKD
ROOT
HETATM    1  N   UNL     1     -11.000   4.816  73.616  1.00  0.00    -0.306 N  
HETATM    2  S   UNL     1     -10.042   6.075  73.060  1.00  0.00    -0.190 S  
HETATM    3  H1  UNL     1     -10.507   3.971  73.330  1.00  0.00     0.000 HD 
HETATM    4  H2  UNL     1     -11.880   4.882  74.127  1.00  0.00     0.000 HD 
HETATM    5  O   UNL     1     -10.740   7.274  73.466  1.00  0.00    -0.382 OA 
HETATM    6  O   UNL     1      -8.687   5.807  73.474  1.00  0.00    -0.123 OA 
ENDROOT
BRANCH   2   7
HETATM    7  C   UNL     1     -10.153   5.929  71.305  1.00  0.00    -0.196 A  
HETATM    8  C   UNL     1      -9.180   5.173  70.643  1.00  0.00    -0.191 A  
HETATM    9  C   UNL     1      -9.256   5.021  69.254  1.00  0.00    -0.109 A  
HETATM   10  C   UNL     1     -10.271   5.589  68.498  1.00  0.00    -0.184 A  
HETATM   11  N   UNL     1     -10.384   5.500  67.103  1.00  0.00    -0.226 NA 
HETATM   12  C   UNL     1     -11.239   6.337  69.181  1.00  0.00    -0.439 A  
HETATM   13  C   UNL     1      -9.628   4.733  66.389  1.00  0.00    -0.177 C  
HETATM   14  C   UNL     1     -11.191   6.510  70.575  1.00  0.00    -0.344 A  
HETATM   15  N   UNL     1      -8.637   3.901  66.920  1.00  0.00    -0.104 N  
HETATM   16  O   UNL     1      -6.839   4.852  68.357  1.00  0.00    -0.053 OA 
HETATM   17 CL   UNL     1     -12.445   7.463  71.285  1.00  0.00    -0.380 Cl 
HETATM   18  S   UNL     1      -8.045   4.064  68.450  1.00  0.00    -0.076 S  
HETATM   19  H   UNL     1      -8.261   3.157  66.331  1.00  0.00     0.000 HD 
HETATM   20  O   UNL     1      -8.052   2.746  69.041  1.00  0.00    -0.054 OA 
BRANCH  13  21
HETATM   21  C   UNL     1      -9.765   4.691  64.880  1.00  0.00    -0.041 C  
BRANCH  21  22
HETATM   22  S   UNL     1      -8.137   4.584  64.066  1.00  0.00    -0.103 SA 
BRANCH  22  23
HETATM   23  C   UNL     1      -8.103   6.143  63.113  1.00  0.00    -0.078 C  
BRANCH  23  24
HETATM   24  C   UNL     1      -7.459   7.242  63.920  1.00  0.00    -0.100 A  
HETATM   25  C   UNL     1      -8.109   8.477  64.075  1.00  0.00    -0.156 A  
HETATM   26  C   UNL     1      -7.484   9.528  64.747  1.00  0.00    -0.112 A  
HETATM   27  C   UNL     1      -6.206   9.355  65.275  1.00  0.00    -0.066 A  
HETATM   28  C   UNL     1      -5.560   8.127  65.148  1.00  0.00    -0.044 A  
HETATM   29  C   UNL     1      -6.182   7.074  64.475  1.00  0.00    -0.037 A  
ENDBRANCH  23  24
ENDBRANCH  22  23
ENDBRANCH  21  22
ENDBRANCH  13  21
ENDBRANCH   2   7
TORSDOF 5
ENDMDL
MODEL      233
REMARK 921   NORMALIZED FREE ENERGY PREDICTED BY IDOCK:   -2.69 KCAL/MOL
REMARK 922        TOTAL FREE ENERGY PREDICTED BY IDOCK:   -4.12 KCAL/MOL
REMARK 923 INTER-LIGAND FREE ENERGY PREDICTED BY IDOCK:   -3.84 KCAL/MOL
REMARK 924 INTRA-LIGAND FREE ENERGY PREDICTED BY IDOCK:   -0.28 KCAL/MOL
REMARK 927      BINDING AFFINITY PREDICTED BY RF-SCORE:    0.00 PKD
ROOT
HETATM    1  N   UNL     1     -10.372   5.491  71.822  1.00  0.00    -0.209 N  
HETATM    2  S   UNL     1     -11.176   6.937  72.101  1.00  0.00    -0.268 S  
HETATM    3  H1  UNL     1      -9.392   5.755  71.727  1.00  0.00     0.000 HD 
HETATM    4  H2  UNL     1     -10.773   4.556  71.763  1.00  0.00     0.000 HD 
HETATM    5  O   UNL     1     -12.565   6.561  72.237  1.00  0.00    -0.190 OA 
HETATM    6  O   UNL     1     -10.470   7.633  73.146  1.00  0.00    -0.327 OA 
ENDROOT
BRANCH   2   7
HETATM    7  C   UNL     1     -10.979   7.813  70.582  1.00  0.00    -0.249 A  
HETATM    8  C   UNL     1     -10.339   7.161  69.522  1.00  0.00    -0.224 A  
HETATM    9  C   UNL     1     -10.189   7.824  68.300  1.00  0.00    -0.201 A  
HETATM   10  C   UNL     1     -10.658   9.112  68.088  1.00  0.00    -0.183 A  
HETATM   11  N   UNL     1     -10.510   9.841  66.899  1.00  0.00    -0.230 NA 
HETATM   12  C   UNL     1     -11.302   9.745  69.160  1.00  0.00    -0.031 A  
HETATM   13  C   UNL     1     -10.054   9.314  65.811  1.00  0.00    -0.022 C  
HETATM   14  C   UNL     1     -11.468   9.108  70.402  1.00  0.00    -0.194 A  
HETATM   15  N   UNL     1      -9.677   7.972  65.691  1.00  0.00    -0.237 N  
HETATM   16  O   UNL     1      -7.982   7.002  67.236  1.00  0.00    -0.108 OA 
HETATM   17 CL   UNL     1     -12.273  10.008  71.638  1.00  0.00    -0.478 Cl 
HETATM   18  S   UNL     1      -9.404   6.992  66.988  1.00  0.00    -0.152 S  
HETATM   19  H   UNL     1      -9.566   7.581  64.756  1.00  0.00     0.000 HD 
HETATM   20  O   UNL     1     -10.126   5.765  66.742  1.00  0.00    -0.161 OA 
BRANCH  13  21
HETATM   21  C   UNL     1      -9.882  10.146  64.556  1.00  0.00    -0.264 C  
BRANCH  21  22
HETATM   22  S   UNL     1      -8.479  11.301  64.709  1.00  0.00     0.529 SA 
BRANCH  22  23
HETATM   23  C   UNL     1      -8.714  11.935  66.408  1.00  0.00    -0.118 C  
BRANCH  23  24
HETATM   24  C   UNL     1      -7.560  11.528  67.288  1.00  0.00    -0.143 A  
HETATM   25  C   UNL     1      -6.733  10.455  66.916  1.00  0.00    -0.083 A  
HETATM   26  C   UNL     1      -5.716  10.016  67.763  1.00  0.00    -0.042 A  
HETATM   27  C   UNL     1      -5.510  10.646  68.989  1.00  0.00    -0.041 A  
HETATM   28  C   UNL     1      -6.309  11.726  69.360  1.00  0.00    -0.114 A  
HETATM   29  C   UNL     1      -7.328  12.166  68.515  1.00  0.00    -0.105 A  
ENDBRANCH  23  24
ENDBRANCH  22  23
ENDBRANCH  21  22
ENDBRANCH  13  21
ENDBRANCH   2   7
TORSDOF 5
ENDMDL
MODEL      234
REMARK 921   NORMALIZED FREE ENERGY PREDICTED BY IDOCK:   -2.56 KCAL/MOL
REMARK 922        TOTAL FREE ENERGY PREDICTED BY IDOCK:   -3.96 KCAL/MOL
REMARK 923 INTER-LIGAND FREE ENERGY PREDICTED BY IDOCK:   -3.47 KCAL/MOL
REMARK 924 INTRA-LIGAND FREE ENERGY PREDICTED BY IDOCK:   -0.49 KCAL/MOL
REMARK 927      BINDING AFFINITY PREDICTED BY RF-SCORE:    0.00 PKD
ROOT
HETATM    1  N   UNL     1     -12.134  14.656  71.547  1.00  0.00    -0.344 N  
HETATM    2  S   UNL     1     -11.699  15.565  70.206  1.00  0.00    -0.379 S  
HETATM    3  H1  UNL     1     -11.286  14.607  72.112  1.00  0.00     0.000 HD 
HETATM    4  H2  UNL     1     -13.043  14.244  71.753  1.00  0.00     0.000 HD 
HETATM    5  O   UNL     1     -12.901  15.635  69.407  1.00  0.00     0.158 OA 
HETATM    6  O   UNL     1     -11.032  16.751  70.682  1.00  0.00    -0.093 OA 
ENDROOT
BRANCH   2   7
HETATM    7  C   UNL     1     -10.532  14.536  69.375  1.00  0.00    -0.123 A  
HETATM    8  C   UNL     1      -9.257  15.053  69.123  1.00  0.00    -0.183 A  
HETATM    9  C   UNL     1      -8.304  14.251  68.486  1.00  0.00    -0.156 A  
HETATM   10  C   UNL     1      -8.571  12.947  68.094  1.00  0.00    -0.188 A  
HETATM   11  N   UNL     1      -7.671  12.106  67.424  1.00  0.00    -0.156 NA 
HETATM   12  C   UNL     1      -9.852  12.446  68.362  1.00  0.00    -0.198 A  
HETATM   13  C   UNL     1      -6.429  12.414  67.245  1.00  0.00    -0.140 C  
HETATM   14  C   UNL     1     -10.833  13.226  68.998  1.00  0.00    -0.173 A  
HETATM   15  N   UNL     1      -5.844  13.597  67.708  1.00  0.00    -0.131 N  
HETATM   16  O   UNL     1      -6.804  15.804  67.069  1.00  0.00    -0.230 OA 
HETATM   17 CL   UNL     1     -12.371  12.483  69.257  1.00  0.00    -0.046 Cl 
HETATM   18  S   UNL     1      -6.719  14.907  68.196  1.00  0.00    -0.146 S  
HETATM   19  H   UNL     1      -4.826  13.653  67.745  1.00  0.00     0.000 HD 
HETATM   20  O   UNL     1      -6.169  15.325  69.465  1.00  0.00    -0.115 OA 
BRANCH  13  21
HETATM   21  C   UNL     1      -5.498  11.488  66.488  1.00  0.00    -0.117 C  
BRANCH  21  22
HETATM   22  S   UNL     1      -5.637   9.771  67.086  1.00  0.00    -0.047 SA 
BRANCH  22  23
HETATM   23  C   UNL     1      -5.574  10.010  68.898  1.00  0.00    -0.035 C  
BRANCH  23  24
HETATM   24  C   UNL     1      -6.513   9.054  69.589  1.00  0.00    -0.042 A  
HETATM   25  C   UNL     1      -6.231   7.679  69.609  1.00  0.00    -0.031 A  
HETATM   26  C   UNL     1      -7.135   6.777  70.170  1.00  0.00    -0.071 A  
HETATM   27  C   UNL     1      -8.329   7.239  70.722  1.00  0.00    -0.124 A  
HETATM   28  C   UNL     1      -8.610   8.604  70.729  1.00  0.00    -0.197 A  
HETATM   29  C   UNL     1      -7.708   9.509  70.166  1.00  0.00    -0.161 A  
ENDBRANCH  23  24
ENDBRANCH  22  23
ENDBRANCH  21  22
ENDBRANCH  13  21
ENDBRANCH   2   7
TORSDOF 5
ENDMDL
MODEL      235
REMARK 921   NORMALIZED FREE ENERGY PREDICTED BY IDOCK:   -2.48 KCAL/MOL
REMARK 922        TOTAL FREE ENERGY PREDICTED BY IDOCK:   -3.85 KCAL/MOL
REMARK 923 INTER-LIGAND FREE ENERGY PREDICTED BY IDOCK:   -3.06 KCAL/MOL
REMARK 924 INTRA-LIGAND FREE ENERGY PREDICTED BY IDOCK:   -0.79 KCAL/MOL
REMARK 927      BINDING AFFINITY PREDICTED BY RF-SCORE:    0.00 PKD
ROOT
HETATM    1  N   UNL     1      -5.125  15.259  69.939  1.00  0.00    -0.096 N  
HETATM    2  S   UNL     1      -6.411  14.368  70.546  1.00  0.00    -0.039 S  
HETATM    3  H1  UNL     1      -5.456  15.611  69.040  1.00  0.00     0.000 HD 
HETATM    4  H2  UNL     1      -4.215  15.415  70.371  1.00  0.00     0.000 HD 
HETATM    5  O   UNL     1      -5.941  13.870  71.819  1.00  0.00    -0.344 OA 
HETATM    6  O   UNL     1      -7.594  15.183  70.436  1.00  0.00     0.246 OA 
ENDROOT
BRANCH   2   7
HETATM    7  C   UNL     1      -6.533  13.012  69.424  1.00  0.00    -0.094 A  
HETATM    8  C   UNL     1      -6.513  11.716  69.951  1.00  0.00    -0.085 A  
HETATM    9  C   UNL     1      -6.631  10.622  69.087  1.00  0.00    -0.061 A  
HETATM   10  C   UNL     1      -6.777  10.768  67.715  1.00  0.00    -0.068 A  
HETATM   11  N   UNL     1      -6.868   9.714  66.796  1.00  0.00    -0.082 NA 
HETATM   12  C   UNL     1      -6.802  12.075  67.209  1.00  0.00    -0.150 A  
HETATM   13  C   UNL     1      -6.987   8.480  67.160  1.00  0.00    -0.075 C  
HETATM   14  C   UNL     1      -6.684  13.196  68.049  1.00  0.00    -0.119 A  
HETATM   15  N   UNL     1      -7.057   8.062  68.493  1.00  0.00    -0.078 N  
HETATM   16  O   UNL     1      -5.256   8.682  70.097  1.00  0.00    -0.022 OA 
HETATM   17 CL   UNL     1      -6.722  14.746  67.288  1.00  0.00    -0.047 Cl 
HETATM   18  S   UNL     1      -6.620   9.018  69.763  1.00  0.00    -0.047 S  
HETATM   19  H   UNL     1      -7.395   7.120  68.689  1.00  0.00     0.000 HD 
HETATM   20  O   UNL     1      -7.686   8.934  70.734  1.00  0.00    -0.088 OA 
BRANCH  13  21
HETATM   21  C   UNL     1      -7.052   7.368  66.132  1.00  0.00    -0.069 C  
BRANCH  21  22
HETATM   22  S   UNL     1      -8.293   7.722  64.844  1.00  0.00    -0.002 SA 
BRANCH  22  23
HETATM   23  C   UNL     1      -9.736   8.212  65.854  1.00  0.00     0.145 C  
BRANCH  23  24
HETATM   24  C   UNL     1      -9.954   9.702  65.776  1.00  0.00    -0.342 A  
HETATM   25  C   UNL     1     -10.487  10.396  66.874  1.00  0.00    -0.300 A  
HETATM   26  C   UNL     1     -10.773  11.757  66.782  1.00  0.00    -0.289 A  
HETATM   27  C   UNL     1     -10.524  12.444  65.595  1.00  0.00    -0.290 A  
HETATM   28  C   UNL     1      -9.973  11.772  64.505  1.00  0.00    -0.273 A  
HETATM   29  C   UNL     1      -9.688  10.408  64.594  1.00  0.00    -0.392 A  
ENDBRANCH  23  24
ENDBRANCH  22  23
ENDBRANCH  21  22
ENDBRANCH  13  21
ENDBRANCH   2   7
TORSDOF 5
ENDMDL
MODEL      236
REMARK 921   NORMALIZED FREE ENERGY PREDICTED BY IDOCK:   -2.31 KCAL/MOL
REMARK 922        TOTAL FREE ENERGY PREDICTED BY IDOCK:   -3.63 KCAL/MOL
REMARK 923 INTER-LIGAND FREE ENERGY PREDICTED BY IDOCK:   -3.69 KCAL/MOL
REMARK 924 INTRA-LIGAND FREE ENERGY PREDICTED BY IDOCK:    0.05 KCAL/MOL
REMARK 927      BINDING AFFINITY PREDICTED BY RF-SCORE:    0.00 PKD
ROOT
HETATM    1  N   UNL     1      -8.091   7.809  65.287  1.00  0.00    -0.127 N  
HETATM    2  S   UNL     1      -7.930   8.826  66.611  1.00  0.00    -0.100 S  
HETATM    3  H1  UNL     1      -9.097   7.680  65.181  1.00  0.00     0.000 HD 
HETATM    4  H2  UNL     1      -7.349   7.408  64.715  1.00  0.00     0.000 HD 
HETATM    5  O   UNL     1      -6.504   9.009  66.760  1.00  0.00    -0.062 OA 
HETATM    6  O   UNL     1      -8.824   9.940  66.415  1.00  0.00    -0.140 OA 
ENDROOT
BRANCH   2   7
HETATM    7  C   UNL     1      -8.514   7.844  67.955  1.00  0.00    -0.123 A  
HETATM    8  C   UNL     1      -8.864   8.493  69.144  1.00  0.00    -0.142 A  
HETATM    9  C   UNL     1      -9.351   7.741  70.218  1.00  0.00    -0.156 A  
HETATM   10  C   UNL     1      -9.509   6.364  70.153  1.00  0.00    -0.160 A  
HETATM   11  N   UNL     1      -9.961   5.552  71.204  1.00  0.00    -0.187 NA 
HETATM   12  C   UNL     1      -9.159   5.734  68.951  1.00  0.00    -0.121 A  
HETATM   13  C   UNL     1     -10.434   6.036  72.304  1.00  0.00    -0.205 C  
HETATM   14  C   UNL     1      -8.665   6.460  67.853  1.00  0.00    -0.115 A  
HETATM   15  N   UNL     1     -10.565   7.404  72.564  1.00  0.00    -0.240 N  
HETATM   16  O   UNL     1      -8.587   8.908  72.393  1.00  0.00    -0.399 OA 
HETATM   17 CL   UNL     1      -8.264   5.554  66.438  1.00  0.00    -0.105 Cl 
HETATM   18  S   UNL     1      -9.797   8.568  71.683  1.00  0.00    -0.275 S  
HETATM   19  H   UNL     1     -11.164   7.697  73.336  1.00  0.00     0.000 HD 
HETATM   20  O   UNL     1     -10.792   9.562  71.350  1.00  0.00    -0.347 OA 
BRANCH  13  21
HETATM   21  C   UNL     1     -10.882   5.122  73.427  1.00  0.00    -0.302 C  
BRANCH  21  22
HETATM   22  S   UNL     1     -11.149   3.419  72.833  1.00  0.00     0.205 SA 
BRANCH  22  23
HETATM   23  C   UNL     1      -9.471   2.711  72.993  1.00  0.00    -0.090 C  
BRANCH  23  24
HETATM   24  C   UNL     1      -8.897   2.399  71.634  1.00  0.00    -0.121 A  
HETATM   25  C   UNL     1      -9.736   1.949  70.601  1.00  0.00    -0.084 A  
HETATM   26  C   UNL     1      -9.203   1.576  69.367  1.00  0.00    -0.166 A  
HETATM   27  C   UNL     1      -7.829   1.653  69.149  1.00  0.00    -0.051 A  
HETATM   28  C   UNL     1      -6.989   2.120  70.158  1.00  0.00    -0.033 A  
HETATM   29  C   UNL     1      -7.519   2.492  71.395  1.00  0.00    -0.040 A  
ENDBRANCH  23  24
ENDBRANCH  22  23
ENDBRANCH  21  22
ENDBRANCH  13  21
ENDBRANCH   2   7
TORSDOF 5
ENDMDL
MODEL      237
REMARK 921   NORMALIZED FREE ENERGY PREDICTED BY IDOCK:   -2.25 KCAL/MOL
REMARK 922        TOTAL FREE ENERGY PREDICTED BY IDOCK:   -3.55 KCAL/MOL
REMARK 923 INTER-LIGAND FREE ENERGY PREDICTED BY IDOCK:   -3.58 KCAL/MOL
REMARK 924 INTRA-LIGAND FREE ENERGY PREDICTED BY IDOCK:    0.03 KCAL/MOL
REMARK 927      BINDING AFFINITY PREDICTED BY RF-SCORE:    0.00 PKD
ROOT
HETATM    1  N   UNL     1     -10.484   4.895  74.187  1.00  0.00    -0.267 N  
HETATM    2  S   UNL     1      -9.361   5.952  73.527  1.00  0.00    -0.135 S  
HETATM    3  H1  UNL     1     -10.216   3.978  73.831  1.00  0.00     0.000 HD 
HETATM    4  H2  UNL     1     -11.262   5.119  74.807  1.00  0.00     0.000 HD 
HETATM    5  O   UNL     1      -9.742   7.252  74.032  1.00  0.00    -0.280 OA 
HETATM    6  O   UNL     1      -8.052   5.398  73.761  1.00  0.00    -0.111 OA 
ENDROOT
BRANCH   2   7
HETATM    7  C   UNL     1      -9.715   5.897  71.799  1.00  0.00    -0.155 A  
HETATM    8  C   UNL     1      -9.190   4.837  71.052  1.00  0.00    -0.194 A  
HETATM    9  C   UNL     1      -9.473   4.756  69.684  1.00  0.00    -0.153 A  
HETATM   10  C   UNL     1     -10.267   5.688  69.031  1.00  0.00    -0.222 A  
HETATM   11  N   UNL     1     -10.560   5.680  67.660  1.00  0.00    -0.224 NA 
HETATM   12  C   UNL     1     -10.788   6.738  69.800  1.00  0.00    -0.316 A  
HETATM   13  C   UNL     1     -10.244   4.695  66.886  1.00  0.00    -0.155 C  
HETATM   14  C   UNL     1     -10.522   6.850  71.175  1.00  0.00    -0.212 A  
HETATM   15  N   UNL     1      -9.600   3.533  67.323  1.00  0.00    -0.302 N  
HETATM   16  O   UNL     1      -7.427   3.683  68.529  1.00  0.00    -0.054 OA 
HETATM   17 CL   UNL     1     -11.221   8.199  71.997  1.00  0.00    -0.346 Cl 
HETATM   18  S   UNL     1      -8.825   3.422  68.774  1.00  0.00    -0.127 S  
HETATM   19  H   UNL     1      -9.610   2.715  66.714  1.00  0.00     0.000 HD 
HETATM   20  O   UNL     1      -9.276   2.197  69.394  1.00  0.00    -0.106 OA 
BRANCH  13  21
HETATM   21  C   UNL     1     -10.554   4.741  65.402  1.00  0.00    -0.067 C  
BRANCH  21  22
HETATM   22  S   UNL     1     -10.248   3.129  64.608  1.00  0.00     0.164 SA 
BRANCH  22  23
HETATM   23  C   UNL     1      -9.496   3.642  63.022  1.00  0.00    -0.109 C  
BRANCH  23  24
HETATM   24  C   UNL     1      -8.025   3.918  63.200  1.00  0.00    -0.079 A  
HETATM   25  C   UNL     1      -7.496   5.174  62.858  1.00  0.00    -0.050 A  
HETATM   26  C   UNL     1      -6.124   5.411  62.937  1.00  0.00    -0.021 A  
HETATM   27  C   UNL     1      -5.265   4.400  63.363  1.00  0.00    -0.009 A  
HETATM   28  C   UNL     1      -5.780   3.157  63.727  1.00  0.00    -0.010 A  
HETATM   29  C   UNL     1      -7.152   2.916  63.647  1.00  0.00    -0.045 A  
ENDBRANCH  23  24
ENDBRANCH  22  23
ENDBRANCH  21  22
ENDBRANCH  13  21
ENDBRANCH   2   7
TORSDOF 5
ENDMDL
MODEL      238
REMARK 921   NORMALIZED FREE ENERGY PREDICTED BY IDOCK:   -2.22 KCAL/MOL
REMARK 922        TOTAL FREE ENERGY PREDICTED BY IDOCK:   -3.51 KCAL/MOL
REMARK 923 INTER-LIGAND FREE ENERGY PREDICTED BY IDOCK:   -3.67 KCAL/MOL
REMARK 924 INTRA-LIGAND FREE ENERGY PREDICTED BY IDOCK:    0.15 KCAL/MOL
REMARK 927      BINDING AFFINITY PREDICTED BY RF-SCORE:    0.00 PKD
ROOT
HETATM    1  N   UNL     1     -10.127   9.853  63.201  1.00  0.00    -0.227 N  
HETATM    2  S   UNL     1      -8.623   9.959  63.937  1.00  0.00    -0.214 S  
HETATM    3  H1  UNL     1     -10.224  10.728  62.686  1.00  0.00     0.000 HD 
HETATM    4  H2  UNL     1     -10.795   9.085  63.255  1.00  0.00     0.000 HD 
HETATM    5  O   UNL     1      -8.485   8.718  64.665  1.00  0.00    -0.169 OA 
HETATM    6  O   UNL     1      -7.673  10.360  62.930  1.00  0.00    -0.149 OA 
ENDROOT
BRANCH   2   7
HETATM    7  C   UNL     1      -8.828  11.271  65.099  1.00  0.00     0.029 A  
HETATM    8  C   UNL     1      -7.999  11.291  66.225  1.00  0.00    -0.086 A  
HETATM    9  C   UNL     1      -8.124  12.332  67.151  1.00  0.00    -0.173 A  
HETATM   10  C   UNL     1      -9.041  13.361  66.995  1.00  0.00    -0.243 A  
HETATM   11  N   UNL     1      -9.237  14.413  67.902  1.00  0.00    -0.189 NA 
HETATM   12  C   UNL     1      -9.858  13.326  65.856  1.00  0.00    -0.241 A  
HETATM   13  C   UNL     1      -8.456  14.617  68.911  1.00  0.00    -0.136 C  
HETATM   14  C   UNL     1      -9.759  12.294  64.908  1.00  0.00    -0.032 A  
HETATM   15  N   UNL     1      -7.333  13.835  69.201  1.00  0.00    -0.287 N  
HETATM   16  O   UNL     1      -7.559  11.371  69.481  1.00  0.00     0.021 OA 
HETATM   17 CL   UNL     1     -10.834  12.371  63.557  1.00  0.00    -0.496 Cl 
HETATM   18  S   UNL     1      -7.073  12.349  68.537  1.00  0.00    -0.104 S  
HETATM   19  H   UNL     1      -6.642  14.203  69.855  1.00  0.00     0.000 HD 
HETATM   20  O   UNL     1      -5.707  12.338  68.063  1.00  0.00    -0.052 OA 
BRANCH  13  21
HETATM   21  C   UNL     1      -8.722  15.748  69.884  1.00  0.00     0.299 C  
BRANCH  21  22
HETATM   22  S   UNL     1      -9.285  17.252  69.020  1.00  0.00    -0.029 SA 
BRANCH  22  23
HETATM   23  C   UNL     1      -7.880  18.386  69.311  1.00  0.00     0.112 C  
BRANCH  23  24
HETATM   24  C   UNL     1      -7.034  18.508  68.068  1.00  0.00    -0.236 A  
HETATM   25  C   UNL     1      -6.598  19.770  67.634  1.00  0.00    -0.263 A  
HETATM   26  C   UNL     1      -5.889  19.902  66.440  1.00  0.00    -0.179 A  
HETATM   27  C   UNL     1      -5.603  18.776  65.670  1.00  0.00    -0.206 A  
HETATM   28  C   UNL     1      -6.011  17.516  66.102  1.00  0.00    -0.229 A  
HETATM   29  C   UNL     1      -6.722  17.380  67.295  1.00  0.00    -0.188 A  
ENDBRANCH  23  24
ENDBRANCH  22  23
ENDBRANCH  21  22
ENDBRANCH  13  21
ENDBRANCH   2   7
TORSDOF 5
ENDMDL
MODEL      239
REMARK 921   NORMALIZED FREE ENERGY PREDICTED BY IDOCK:   -1.73 KCAL/MOL
REMARK 922        TOTAL FREE ENERGY PREDICTED BY IDOCK:   -2.89 KCAL/MOL
REMARK 923 INTER-LIGAND FREE ENERGY PREDICTED BY IDOCK:   -2.48 KCAL/MOL
REMARK 924 INTRA-LIGAND FREE ENERGY PREDICTED BY IDOCK:   -0.41 KCAL/MOL
REMARK 927      BINDING AFFINITY PREDICTED BY RF-SCORE:    0.00 PKD
ROOT
HETATM    1  N   UNL     1     -11.674   8.940  72.055  1.00  0.00    -0.367 N  
HETATM    2  S   UNL     1     -10.713   9.103  70.690  1.00  0.00    -0.279 S  
HETATM    3  H1  UNL     1     -11.019   8.737  72.809  1.00  0.00     0.000 HD 
HETATM    4  H2  UNL     1     -12.688   9.026  72.117  1.00  0.00     0.000 HD 
HETATM    5  O   UNL     1     -11.642   9.391  69.621  1.00  0.00     0.004 OA 
HETATM    6  O   UNL     1      -9.633   9.997  71.022  1.00  0.00     0.191 OA 
ENDROOT
BRANCH   2   7
HETATM    7  C   UNL     1     -10.068   7.478  70.449  1.00  0.00    -0.196 A  
HETATM    8  C   UNL     1      -8.689   7.336  70.261  1.00  0.00    -0.147 A  
HETATM    9  C   UNL     1      -8.147   6.058  70.091  1.00  0.00    -0.114 A  
HETATM   10  C   UNL     1      -8.927   4.911  70.106  1.00  0.00    -0.107 A  
HETATM   11  N   UNL     1      -8.449   3.607  69.909  1.00  0.00    -0.055 NA 
HETATM   12  C   UNL     1     -10.305   5.074  70.302  1.00  0.00    -0.299 A  
HETATM   13  C   UNL     1      -7.189   3.328  69.851  1.00  0.00    -0.041 C  
HETATM   14  C   UNL     1     -10.881   6.344  70.475  1.00  0.00    -0.279 A  
HETATM   15  N   UNL     1      -6.171   4.277  69.995  1.00  0.00    -0.026 N  
HETATM   16  O   UNL     1      -6.109   6.281  68.519  1.00  0.00    -0.028 OA 
HETATM   17 CL   UNL     1     -12.594   6.398  70.698  1.00  0.00     0.183 Cl 
HETATM   18  S   UNL     1      -6.428   5.901  69.874  1.00  0.00    -0.040 S  
HETATM   19  H   UNL     1      -5.224   3.947  70.183  1.00  0.00     0.000 HD 
HETATM   20  O   UNL     1      -5.777   6.510  71.011  1.00  0.00    -0.026 OA 
BRANCH  13  21
HETATM   21  C   UNL     1      -6.717   1.908  69.606  1.00  0.00    -0.033 C  
BRANCH  21  22
HETATM   22  S   UNL     1      -6.793   1.477  67.836  1.00  0.00    -0.032 SA 
BRANCH  22  23
HETATM   23  C   UNL     1      -6.511   3.105  67.053  1.00  0.00    -0.037 C  
BRANCH  23  24
HETATM   24  C   UNL     1      -7.607   3.410  66.062  1.00  0.00    -0.081 A  
HETATM   25  C   UNL     1      -8.753   4.110  66.472  1.00  0.00    -0.115 A  
HETATM   26  C   UNL     1      -9.809   4.322  65.586  1.00  0.00    -0.223 A  
HETATM   27  C   UNL     1      -9.730   3.843  64.279  1.00  0.00    -0.174 A  
HETATM   28  C   UNL     1      -8.588   3.167  63.854  1.00  0.00    -0.089 A  
HETATM   29  C   UNL     1      -7.530   2.952  64.739  1.00  0.00    -0.075 A  
ENDBRANCH  23  24
ENDBRANCH  22  23
ENDBRANCH  21  22
ENDBRANCH  13  21
ENDBRANCH   2   7
TORSDOF 5
ENDMDL
MODEL      240
REMARK 921   NORMALIZED FREE ENERGY PREDICTED BY IDOCK:   -0.02 KCAL/MOL
REMARK 922        TOTAL FREE ENERGY PREDICTED BY IDOCK:   -0.68 KCAL/MOL
REMARK 923 INTER-LIGAND FREE ENERGY PREDICTED BY IDOCK:   -3.45 KCAL/MOL
REMARK 924 INTRA-LIGAND FREE ENERGY PREDICTED BY IDOCK:    2.78 KCAL/MOL
REMARK 927      BINDING AFFINITY PREDICTED BY RF-SCORE:    0.00 PKD
ROOT
HETATM    1  N   UNL     1      -9.604   8.830  65.561  1.00  0.00    -0.453 N  
HETATM    2  S   UNL     1      -8.470   9.138  66.758  1.00  0.00    -0.124 S  
HETATM    3  H1  UNL     1      -9.139   9.088  64.691  1.00  0.00     0.000 HD 
HETATM    4  H2  UNL     1     -10.549   8.465  65.677  1.00  0.00     0.000 HD 
HETATM    5  O   UNL     1      -9.130   8.772  67.990  1.00  0.00    -0.139 OA 
HETATM    6  O   UNL     1      -7.229   8.529  66.348  1.00  0.00    -0.077 OA 
ENDROOT
BRANCH   2   7
HETATM    7  C   UNL     1      -8.297  10.894  66.715  1.00  0.00    -0.138 A  
HETATM    8  C   UNL     1      -9.399  11.656  66.312  1.00  0.00    -0.228 A  
HETATM    9  C   UNL     1      -9.298  13.050  66.290  1.00  0.00    -0.140 A  
HETATM   10  C   UNL     1      -8.141  13.719  66.662  1.00  0.00     0.513 A  
HETATM   11  N   UNL     1      -7.966  15.110  66.631  1.00  0.00    -0.019 NA 
HETATM   12  C   UNL     1      -7.050  12.938  67.068  1.00  0.00     0.185 A  
HETATM   13  C   UNL     1      -8.939  15.929  66.401  1.00  0.00    -0.326 C  
HETATM   14  C   UNL     1      -7.118  11.534  67.100  1.00  0.00    -0.140 A  
HETATM   15  N   UNL     1     -10.260  15.530  66.178  1.00  0.00    -0.286 N  
HETATM   16  O   UNL     1     -10.791  13.908  64.364  1.00  0.00    -0.388 OA 
HETATM   17 CL   UNL     1      -5.697  10.697  67.613  1.00  0.00    -0.044 Cl 
HETATM   18  S   UNL     1     -10.684  13.982  65.802  1.00  0.00    -0.303 S  
HETATM   19  H   UNL     1     -10.998  16.231  66.251  1.00  0.00     0.000 HD 
HETATM   20  O   UNL     1     -11.787  13.631  66.668  1.00  0.00    -0.364 OA 
BRANCH  13  21
HETATM   21  C   UNL     1      -8.699  17.425  66.346  1.00  0.00    -0.242 C  
BRANCH  21  22
HETATM   22  S   UNL     1      -7.383  17.932  67.500  1.00  0.00    -0.202 SA 
BRANCH  22  23
HETATM   23  C   UNL     1      -7.488  16.622  68.771  1.00  0.00    -0.224 C  
BRANCH  23  24
HETATM   24  C   UNL     1      -8.926  16.365  69.147  1.00  0.00    -0.197 A  
HETATM   25  C   UNL     1      -9.891  17.371  68.971  1.00  0.00    -0.230 A  
HETATM   26  C   UNL     1     -11.205  17.175  69.396  1.00  0.00     0.514 A  
HETATM   27  C   UNL     1     -11.572  15.971  69.994  1.00  0.00    -0.316 A  
HETATM   28  C   UNL     1     -10.629  14.956  70.152  1.00  0.00    -0.070 A  
HETATM   29  C   UNL     1      -9.313  15.151  69.731  1.00  0.00    -0.017 A  
ENDBRANCH  23  24
ENDBRANCH  22  23
ENDBRANCH  21  22
ENDBRANCH  13  21
ENDBRANCH   2   7
TORSDOF 5
ENDMDL
MODEL      241
REMARK 921   NORMALIZED FREE ENERGY PREDICTED BY IDOCK:    0.18 KCAL/MOL
REMARK 922        TOTAL FREE ENERGY PREDICTED BY IDOCK:   -0.41 KCAL/MOL
REMARK 923 INTER-LIGAND FREE ENERGY PREDICTED BY IDOCK:   -0.88 KCAL/MOL
REMARK 924 INTRA-LIGAND FREE ENERGY PREDICTED BY IDOCK:    0.47 KCAL/MOL
REMARK 927      BINDING AFFINITY PREDICTED BY RF-SCORE:    0.00 PKD
ROOT
HETATM    1  N   UNL     1      -5.686  14.735  68.668  1.00  0.00    -0.087 N  
HETATM    2  S   UNL     1      -6.262  13.904  70.006  1.00  0.00    -0.105 S  
HETATM    3  H1  UNL     1      -6.485  14.791  68.036  1.00  0.00     0.000 HD 
HETATM    4  H2  UNL     1      -4.747  15.102  68.519  1.00  0.00     0.000 HD 
HETATM    5  O   UNL     1      -5.131  13.824  70.902  1.00  0.00    -0.101 OA 
HETATM    6  O   UNL     1      -7.503  14.521  70.400  1.00  0.00     0.340 OA 
ENDROOT
BRANCH   2   7
HETATM    7  C   UNL     1      -6.592  12.289  69.375  1.00  0.00    -0.081 A  
HETATM    8  C   UNL     1      -6.726  11.238  70.288  1.00  0.00     0.240 A  
HETATM    9  C   UNL     1      -7.009   9.952  69.817  1.00  0.00    -0.095 A  
HETATM   10  C   UNL     1      -7.172   9.672  68.467  1.00  0.00    -0.070 A  
HETATM   11  N   UNL     1      -7.425   8.401  67.931  1.00  0.00    -0.096 NA 
HETATM   12  C   UNL     1      -7.041  10.741  67.570  1.00  0.00    -0.089 A  
HETATM   13  C   UNL     1      -7.694   7.375  68.668  1.00  0.00    -0.120 C  
HETATM   14  C   UNL     1      -6.755  12.044  68.010  1.00  0.00    -0.070 A  
HETATM   15  N   UNL     1      -7.781   7.416  70.064  1.00  0.00    -0.093 N  
HETATM   16  O   UNL     1      -5.871   8.271  71.414  1.00  0.00    -0.034 OA 
HETATM   17 CL   UNL     1      -6.611  13.263  66.794  1.00  0.00     0.986 Cl 
HETATM   18  S   UNL     1      -7.188   8.660  70.968  1.00  0.00    -0.089 S  
HETATM   19  H   UNL     1      -8.233   6.639  70.545  1.00  0.00     0.000 HD 
HETATM   20  O   UNL     1      -8.229   9.031  71.899  1.00  0.00    -0.362 OA 
BRANCH  13  21
HETATM   21  C   UNL     1      -7.931   6.012  68.048  1.00  0.00    -0.109 C  
BRANCH  21  22
HETATM   22  S   UNL     1      -9.286   6.061  66.830  1.00  0.00    -0.142 SA 
BRANCH  22  23
HETATM   23  C   UNL     1      -8.377   5.808  65.264  1.00  0.00    -0.146 C  
BRANCH  23  24
HETATM   24  C   UNL     1      -8.673   4.442  64.696  1.00  0.00    -0.142 A  
HETATM   25  C   UNL     1      -9.292   3.466  65.494  1.00  0.00    -0.150 A  
HETATM   26  C   UNL     1      -9.491   2.175  65.008  1.00  0.00     0.001 A  
HETATM   27  C   UNL     1      -9.080   1.844  63.718  1.00  0.00    -0.095 A  
HETATM   28  C   UNL     1      -8.485   2.810  62.908  1.00  0.00    -0.078 A  
HETATM   29  C   UNL     1      -8.282   4.103  63.393  1.00  0.00    -0.092 A  
ENDBRANCH  23  24
ENDBRANCH  22  23
ENDBRANCH  21  22
ENDBRANCH  13  21
ENDBRANCH   2   7
TORSDOF 5
ENDMDL
MODEL      242
REMARK 921   NORMALIZED FREE ENERGY PREDICTED BY IDOCK:    1.65 KCAL/MOL
REMARK 922        TOTAL FREE ENERGY PREDICTED BY IDOCK:    1.49 KCAL/MOL
REMARK 923 INTER-LIGAND FREE ENERGY PREDICTED BY IDOCK:    0.15 KCAL/MOL
REMARK 924 INTRA-LIGAND FREE ENERGY PREDICTED BY IDOCK:    1.34 KCAL/MOL
REMARK 927      BINDING AFFINITY PREDICTED BY RF-SCORE:    0.00 PKD
ROOT
HETATM    1  N   UNL     1     -11.888   9.462  72.187  1.00  0.00    -0.235 N  
HETATM    2  S   UNL     1     -12.701  10.247  70.947  1.00  0.00    -0.370 S  
HETATM    3  H1  UNL     1     -11.703  10.191  72.876  1.00  0.00     0.000 HD 
HETATM    4  H2  UNL     1     -11.635   8.476  72.241  1.00  0.00     0.000 HD 
HETATM    5  O   UNL     1     -12.962   9.213  69.971  1.00  0.00     0.976 OA 
HETATM    6  O   UNL     1     -13.762  11.018  71.543  1.00  0.00     0.078 OA 
ENDROOT
BRANCH   2   7
HETATM    7  C   UNL     1     -11.484  11.343  70.290  1.00  0.00    -0.151 A  
HETATM    8  C   UNL     1     -11.625  12.712  70.541  1.00  0.00     0.252 A  
HETATM    9  C   UNL     1     -10.663  13.602  70.052  1.00  0.00     0.705 A  
HETATM   10  C   UNL     1      -9.559  13.180  69.326  1.00  0.00     0.758 A  
HETATM   11  N   UNL     1      -8.580  14.023  68.782  1.00  0.00    -0.091 NA 
HETATM   12  C   UNL     1      -9.433  11.804  69.091  1.00  0.00     0.314 A  
HETATM   13  C   UNL     1      -8.524  15.287  69.045  1.00  0.00    -0.221 C  
HETATM   14  C   UNL     1     -10.382  10.883  69.567  1.00  0.00    -0.101 A  
HETATM   15  N   UNL     1      -9.410  15.946  69.904  1.00  0.00     0.013 N  
HETATM   16  O   UNL     1     -11.865  15.823  69.508  1.00  0.00    -0.354 OA 
HETATM   17 CL   UNL     1     -10.106   9.218  69.197  1.00  0.00    -0.194 Cl 
HETATM   18  S   UNL     1     -10.847  15.300  70.387  1.00  0.00    -0.228 S  
HETATM   19  H   UNL     1      -9.154  16.871  70.248  1.00  0.00     0.000 HD 
HETATM   20  O   UNL     1     -10.918  15.467  71.821  1.00  0.00    -0.303 OA 
BRANCH  13  21
HETATM   21  C   UNL     1      -7.466  16.168  68.411  1.00  0.00    -0.153 C  
BRANCH  21  22
HETATM   22  S   UNL     1      -7.633  16.209  66.596  1.00  0.00    -0.134 SA 
BRANCH  22  23
HETATM   23  C   UNL     1      -9.450  16.164  66.397  1.00  0.00    -0.295 C  
BRANCH  23  24
HETATM   24  C   UNL     1     -10.057  17.487  66.791  1.00  0.00    -0.320 A  
HETATM   25  C   UNL     1      -9.738  18.651  66.074  1.00  0.00    -0.140 A  
HETATM   26  C   UNL     1     -10.225  19.892  66.483  1.00  0.00    -0.611 A  
HETATM   27  C   UNL     1     -11.040  19.984  67.610  1.00  0.00     0.120 A  
HETATM   28  C   UNL     1     -11.383  18.833  68.317  1.00  0.00     1.090 A  
HETATM   29  C   UNL     1     -10.895  17.590  67.911  1.00  0.00    -0.255 A  
ENDBRANCH  23  24
ENDBRANCH  22  23
ENDBRANCH  21  22
ENDBRANCH  13  21
ENDBRANCH   2   7
TORSDOF 5
ENDMDL
MODEL      243
REMARK 921   NORMALIZED FREE ENERGY PREDICTED BY IDOCK:    2.08 KCAL/MOL
REMARK 922        TOTAL FREE ENERGY PREDICTED BY IDOCK:    2.04 KCAL/MOL
REMARK 923 INTER-LIGAND FREE ENERGY PREDICTED BY IDOCK:    1.10 KCAL/MOL
REMARK 924 INTRA-LIGAND FREE ENERGY PREDICTED BY IDOCK:    0.94 KCAL/MOL
REMARK 927      BINDING AFFINITY PREDICTED BY RF-SCORE:    0.00 PKD
ROOT
HETATM    1  N   UNL     1     -11.120  20.124  70.085  1.00  0.00     0.965 N  
HETATM    2  S   UNL     1      -9.900  19.789  68.983  1.00  0.00    -0.238 S  
HETATM    3  H1  UNL     1     -10.793  19.721  70.963  1.00  0.00     0.000 HD 
HETATM    4  H2  UNL     1     -11.994  20.622  69.916  1.00  0.00     0.000 HD 
HETATM    5  O   UNL     1     -10.364  20.362  67.740  1.00  0.00    -0.319 OA 
HETATM    6  O   UNL     1      -8.651  20.183  69.584  1.00  0.00     0.416 OA 
ENDROOT
BRANCH   2   7
HETATM    7  C   UNL     1      -9.949  18.031  68.842  1.00  0.00    -0.341 A  
HETATM    8  C   UNL     1      -9.271  17.435  67.773  1.00  0.00    -0.248 A  
HETATM    9  C   UNL     1      -9.273  16.042  67.650  1.00  0.00    -0.205 A  
HETATM   10  C   UNL     1      -9.921  15.215  68.556  1.00  0.00    -0.223 A  
HETATM   11  N   UNL     1      -9.987  13.817  68.470  1.00  0.00    -0.232 NA 
HETATM   12  C   UNL     1     -10.588  15.832  69.624  1.00  0.00    -0.295 A  
HETATM   13  C   UNL     1      -9.303  13.139  67.608  1.00  0.00    -0.205 C  
HETATM   14  C   UNL     1     -10.607  17.229  69.776  1.00  0.00     0.216 A  
HETATM   15  N   UNL     1      -8.418  13.711  66.689  1.00  0.00    -0.433 N  
HETATM   16  O   UNL     1      -9.204  15.485  65.128  1.00  0.00     0.105 OA 
HETATM   17 CL   UNL     1     -11.475  17.853  71.133  1.00  0.00     2.909 Cl 
HETATM   18  S   UNL     1      -8.411  15.319  66.323  1.00  0.00     0.283 S  
HETATM   19  H   UNL     1      -7.744  13.104  66.222  1.00  0.00     0.000 HD 
HETATM   20  O   UNL     1      -7.036  15.755  66.392  1.00  0.00     0.095 OA 
BRANCH  13  21
HETATM   21  C   UNL     1      -9.428  11.631  67.529  1.00  0.00    -0.171 C  
BRANCH  21  22
HETATM   22  S   UNL     1     -10.582  11.126  66.211  1.00  0.00    -0.231 SA 
BRANCH  22  23
HETATM   23  C   UNL     1     -10.081   9.389  65.934  1.00  0.00    -0.173 C  
BRANCH  23  24
HETATM   24  C   UNL     1      -8.664   9.168  66.400  1.00  0.00    -0.147 A  
HETATM   25  C   UNL     1      -8.414   8.710  67.704  1.00  0.00    -0.125 A  
HETATM   26  C   UNL     1      -7.106   8.585  68.172  1.00  0.00    -0.085 A  
HETATM   27  C   UNL     1      -6.034   8.909  67.343  1.00  0.00    -0.047 A  
HETATM   28  C   UNL     1      -6.269   9.342  66.039  1.00  0.00    -0.067 A  
HETATM   29  C   UNL     1      -7.577   9.471  65.568  1.00  0.00    -0.105 A  
ENDBRANCH  23  24
ENDBRANCH  22  23
ENDBRANCH  21  22
ENDBRANCH  13  21
ENDBRANCH   2   7
TORSDOF 5
ENDMDL
MODEL      244
REMARK 921   NORMALIZED FREE ENERGY PREDICTED BY IDOCK:   28.64 KCAL/MOL
REMARK 922        TOTAL FREE ENERGY PREDICTED BY IDOCK:   36.36 KCAL/MOL
REMARK 923 INTER-LIGAND FREE ENERGY PREDICTED BY IDOCK:   35.56 KCAL/MOL
REMARK 924 INTRA-LIGAND FREE ENERGY PREDICTED BY IDOCK:    0.80 KCAL/MOL
REMARK 927      BINDING AFFINITY PREDICTED BY RF-SCORE:    0.00 PKD
ROOT
HETATM    1  N   UNL     1     -12.104  18.864  74.472  1.00  0.00     3.052 N  
HETATM    2  S   UNL     1     -13.056  17.765  73.635  1.00  0.00     5.133 S  
HETATM    3  H1  UNL     1     -11.968  19.636  73.819  1.00  0.00     0.000 HD 
HETATM    4  H2  UNL     1     -11.743  18.780  75.421  1.00  0.00     0.000 HD 
HETATM    5  O   UNL     1     -13.249  16.671  74.560  1.00  0.00    -0.090 OA 
HETATM    6  O   UNL     1     -14.166  18.491  73.071  1.00  0.00    10.306 OA 
ENDROOT
BRANCH   2   7
HETATM    7  C   UNL     1     -11.998  17.217  72.333  1.00  0.00     1.096 A  
HETATM    8  C   UNL     1     -12.558  16.448  71.307  1.00  0.00     0.799 A  
HETATM    9  C   UNL     1     -11.748  16.019  70.251  1.00  0.00    -0.292 A  
HETATM   10  C   UNL     1     -10.399  16.333  70.171  1.00  0.00     0.025 A  
HETATM   11  N   UNL     1      -9.529  15.907  69.157  1.00  0.00    -0.245 NA 
HETATM   12  C   UNL     1      -9.859  17.110  71.205  1.00  0.00     4.772 A  
HETATM   13  C   UNL     1      -9.942  15.302  68.093  1.00  0.00    -0.221 C  
HETATM   14  C   UNL     1     -10.645  17.556  72.282  1.00  0.00     3.972 A  
HETATM   15  N   UNL     1     -11.286  15.022  67.826  1.00  0.00    -0.322 N  
HETATM   16  O   UNL     1     -12.647  13.729  69.462  1.00  0.00    -0.192 OA 
HETATM   17 CL   UNL     1      -9.848  18.498  73.490  1.00  0.00     5.499 Cl 
HETATM   18  S   UNL     1     -12.466  15.076  68.976  1.00  0.00     0.227 S  
HETATM   19  H   UNL     1     -11.549  14.771  66.873  1.00  0.00     0.000 HD 
HETATM   20  O   UNL     1     -13.558  15.839  68.417  1.00  0.00     3.529 OA 
BRANCH  13  21
HETATM   21  C   UNL     1      -8.963  14.831  67.036  1.00  0.00    -0.238 C  
BRANCH  21  22
HETATM   22  S   UNL     1      -7.653  13.788  67.757  1.00  0.00    -0.186 SA 
BRANCH  22  23
HETATM   23  C   UNL     1      -7.641  12.370  66.603  1.00  0.00     0.298 C  
BRANCH  23  24
HETATM   24  C   UNL     1      -8.758  11.412  66.932  1.00  0.00    -0.165 A  
HETATM   25  C   UNL     1      -9.850  11.841  67.704  1.00  0.00    -0.192 A  
HETATM   26  C   UNL     1     -10.845  10.941  68.085  1.00  0.00    -0.283 A  
HETATM   27  C   UNL     1     -10.764   9.606  67.697  1.00  0.00    -0.324 A  
HETATM   28  C   UNL     1      -9.697   9.173  66.911  1.00  0.00    -0.254 A  
HETATM   29  C   UNL     1      -8.698  10.070  66.530  1.00  0.00    -0.142 A  
ENDBRANCH  23  24
ENDBRANCH  22  23
ENDBRANCH  21  22
ENDBRANCH  13  21
ENDBRANCH   2   7
TORSDOF 5
ENDMDL
