MODEL        1
REMARK 921   NORMALIZED FREE ENERGY PREDICTED BY IDOCK:   -8.60 KCAL/MOL
REMARK 922        TOTAL FREE ENERGY PREDICTED BY IDOCK:  -11.16 KCAL/MOL
REMARK 923 INTER-LIGAND FREE ENERGY PREDICTED BY IDOCK:  -10.61 KCAL/MOL
REMARK 924 INTRA-LIGAND FREE ENERGY PREDICTED BY IDOCK:   -0.55 KCAL/MOL
REMARK 927      BINDING AFFINITY PREDICTED BY RF-SCORE:    0.00 PKD
ROOT
HETATM    1  C   UNL     1     -10.937  15.280  68.276  1.00  0.00    -0.276 C  
HETATM    2  O   UNL     1     -10.808  15.774  69.631  1.00  0.00    -0.248 OA 
HETATM    3  C   UNL     1     -11.671  14.950  70.334  1.00  0.00    -0.297 A  
HETATM    4  C   UNL     1     -12.200  15.112  71.587  1.00  0.00    -0.345 A  
HETATM    5  C   UNL     1     -12.832  13.977  72.145  1.00  0.00    -0.410 A  
HETATM    6  C   UNL     1      -9.739  15.493  67.383  1.00  0.00    -0.218 C  
HETATM    7  C   UNL     1      -8.647  14.706  67.555  1.00  0.00    -0.196 C  
HETATM    8  C   UNL     1     -12.842  12.703  71.501  1.00  0.00    -0.368 A  
HETATM    9  C   UNL     1     -12.283  12.567  70.238  1.00  0.00    -0.345 A  
HETATM   10  C   UNL     1     -11.868  13.754  69.662  1.00  0.00    -0.393 A  
HETATM   11  C   UNL     1     -11.237  13.795  68.331  1.00  0.00    -0.300 C  
HETATM   12  C   UNL     1     -12.261  13.382  67.250  1.00  0.00    -0.282 C  
HETATM   13  C   UNL     1     -11.641  12.392  66.293  1.00  0.00    -0.393 C  
HETATM   14  N   UNL     1     -11.130  11.196  66.977  1.00  0.00    -0.294 NA 
HETATM   15  C   UNL     1     -10.098  10.610  66.111  1.00  0.00    -0.249 C  
HETATM   16  C   UNL     1     -10.687  11.429  68.384  1.00  0.00    -0.203 C  
HETATM   17  C   UNL     1     -11.932  11.284  69.466  1.00  0.00    -0.421 C  
HETATM   18  C   UNL     1     -10.059  12.828  68.579  1.00  0.00    -0.189 C  
HETATM   19  C   UNL     1      -8.740  13.237  67.922  1.00  0.00    -0.192 C  
ENDROOT
BRANCH   4  20
HETATM   20  O   UNL     1     -12.206  16.246  72.344  1.00  0.00    -0.490 OA 
HETATM   21  C   UNL     1     -12.682  16.154  73.685  1.00  0.00    -0.579 C  
ENDBRANCH   4  20
BRANCH   6  22
HETATM   22  O   UNL     1     -10.242  15.721  66.038  1.00  0.00    -0.290 OA 
BRANCH  22  23
HETATM   23  C   UNL     1     -10.513  16.956  65.533  1.00  0.00    -0.204 C  
HETATM   24  O   UNL     1     -11.180  17.202  64.532  1.00  0.00    -1.104 OA 
BRANCH  23  25
HETATM   25  C   UNL     1      -9.853  18.020  66.345  1.00  0.00    -0.340 A  
HETATM   26  C   UNL     1     -10.690  18.852  67.107  1.00  0.00    -0.506 A  
HETATM   27  C   UNL     1     -10.166  19.923  67.840  1.00  0.00    -0.571 A  
HETATM   28  C   UNL     1      -8.795  20.165  67.827  1.00  0.00    -0.349 A  
HETATM   29  C   UNL     1      -7.945  19.333  67.095  1.00  0.00    -0.287 A  
HETATM   30  C   UNL     1      -8.471  18.255  66.353  1.00  0.00    -0.266 A  
ENDBRANCH  23  25
ENDBRANCH  22  23
ENDBRANCH   6  22
TORSDOF 4
ENDMDL
MODEL        2
REMARK 921   NORMALIZED FREE ENERGY PREDICTED BY IDOCK:   -8.32 KCAL/MOL
REMARK 922        TOTAL FREE ENERGY PREDICTED BY IDOCK:  -10.82 KCAL/MOL
REMARK 923 INTER-LIGAND FREE ENERGY PREDICTED BY IDOCK:  -10.21 KCAL/MOL
REMARK 924 INTRA-LIGAND FREE ENERGY PREDICTED BY IDOCK:   -0.60 KCAL/MOL
REMARK 927      BINDING AFFINITY PREDICTED BY RF-SCORE:    0.00 PKD
ROOT
HETATM    1  C   UNL     1     -10.950  14.486  67.750  1.00  0.00    -0.275 C  
HETATM    2  O   UNL     1     -10.998  14.709  69.179  1.00  0.00    -0.245 OA 
HETATM    3  C   UNL     1     -11.713  13.613  69.631  1.00  0.00    -0.320 A  
HETATM    4  C   UNL     1     -12.332  13.415  70.837  1.00  0.00    -0.353 A  
HETATM    5  C   UNL     1     -12.751  12.092  71.109  1.00  0.00    -0.351 A  
HETATM    6  C   UNL     1      -9.773  15.097  67.029  1.00  0.00    -0.231 C  
HETATM    7  C   UNL     1      -8.556  14.510  67.151  1.00  0.00    -0.242 C  
HETATM    8  C   UNL     1     -12.468  10.997  70.238  1.00  0.00    -0.365 A  
HETATM    9  C   UNL     1     -11.825  11.228  69.030  1.00  0.00    -0.421 A  
HETATM   10  C   UNL     1     -11.628  12.564  68.730  1.00  0.00    -0.366 A  
HETATM   11  C   UNL     1     -10.947  12.992  67.495  1.00  0.00    -0.282 C  
HETATM   12  C   UNL     1     -11.805  12.623  66.265  1.00  0.00    -0.471 C  
HETATM   13  C   UNL     1     -10.948  11.983  65.201  1.00  0.00    -0.310 C  
HETATM   14  N   UNL     1     -10.243  10.790  65.692  1.00  0.00    -0.258 NA 
HETATM   15  C   UNL     1      -9.069  10.595  64.831  1.00  0.00    -0.204 C  
HETATM   16  C   UNL     1      -9.933  10.810  67.152  1.00  0.00    -0.194 C  
HETATM   17  C   UNL     1     -11.181  10.217  68.066  1.00  0.00    -0.303 C  
HETATM   18  C   UNL     1      -9.613  12.233  67.665  1.00  0.00    -0.191 C  
HETATM   19  C   UNL     1      -8.370  13.006  67.224  1.00  0.00    -0.186 C  
ENDROOT
BRANCH   4  20
HETATM   20  O   UNL     1     -12.608  14.349  71.791  1.00  0.00    -0.332 OA 
HETATM   21  C   UNL     1     -13.702  15.235  71.564  1.00  0.00    -0.520 C  
ENDBRANCH   4  20
BRANCH   6  22
HETATM   22  O   UNL     1     -10.238  15.495  65.710  1.00  0.00    -0.312 OA 
BRANCH  22  23
HETATM   23  C   UNL     1     -10.525  16.781  65.367  1.00  0.00    -0.193 C  
HETATM   24  O   UNL     1     -11.170  17.147  64.389  1.00  0.00    -1.143 OA 
BRANCH  23  25
HETATM   25  C   UNL     1      -9.916  17.739  66.337  1.00  0.00    -0.345 A  
HETATM   26  C   UNL     1     -10.782  18.358  67.253  1.00  0.00    -0.389 A  
HETATM   27  C   UNL     1     -10.311  19.326  68.148  1.00  0.00    -0.496 A  
HETATM   28  C   UNL     1      -8.963  19.675  68.142  1.00  0.00    -0.381 A  
HETATM   29  C   UNL     1      -8.083  19.052  67.255  1.00  0.00    -0.281 A  
HETATM   30  C   UNL     1      -8.555  18.079  66.350  1.00  0.00    -0.253 A  
ENDBRANCH  23  25
ENDBRANCH  22  23
ENDBRANCH   6  22
TORSDOF 4
ENDMDL
MODEL        3
REMARK 921   NORMALIZED FREE ENERGY PREDICTED BY IDOCK:   -7.98 KCAL/MOL
REMARK 922        TOTAL FREE ENERGY PREDICTED BY IDOCK:  -10.41 KCAL/MOL
REMARK 923 INTER-LIGAND FREE ENERGY PREDICTED BY IDOCK:   -9.65 KCAL/MOL
REMARK 924 INTRA-LIGAND FREE ENERGY PREDICTED BY IDOCK:   -0.76 KCAL/MOL
REMARK 927      BINDING AFFINITY PREDICTED BY RF-SCORE:    0.00 PKD
ROOT
HETATM    1  C   UNL     1      -9.951  13.432  65.025  1.00  0.00    -0.155 C  
HETATM    2  O   UNL     1     -10.050  12.396  64.019  1.00  0.00    -0.352 OA 
HETATM    3  C   UNL     1      -9.703  11.257  64.725  1.00  0.00    -0.256 A  
HETATM    4  C   UNL     1      -9.330  10.024  64.258  1.00  0.00    -0.288 A  
HETATM    5  C   UNL     1      -9.299   8.983  65.214  1.00  0.00    -0.158 A  
HETATM    6  C   UNL     1     -10.824  14.644  64.808  1.00  0.00    -0.385 C  
HETATM    7  C   UNL     1     -12.155  14.544  65.057  1.00  0.00    -0.390 C  
HETATM    8  C   UNL     1      -9.721   9.161  66.567  1.00  0.00    -0.306 A  
HETATM    9  C   UNL     1     -10.109  10.419  67.004  1.00  0.00    -0.264 A  
HETATM   10  C   UNL     1      -9.921  11.432  66.082  1.00  0.00    -0.265 A  
HETATM   11  C   UNL     1     -10.293  12.829  66.373  1.00  0.00    -0.271 C  
HETATM   12  C   UNL     1      -9.391  13.392  67.493  1.00  0.00    -0.218 C  
HETATM   13  C   UNL     1     -10.223  14.119  68.521  1.00  0.00    -0.247 C  
HETATM   14  N   UNL     1     -11.266  13.264  69.105  1.00  0.00    -0.264 NA 
HETATM   15  C   UNL     1     -12.318  14.152  69.616  1.00  0.00    -0.256 C  
HETATM   16  C   UNL     1     -11.763  12.186  68.199  1.00  0.00    -0.341 C  
HETATM   17  C   UNL     1     -10.844  10.812  68.298  1.00  0.00    -0.276 C  
HETATM   18  C   UNL     1     -11.785  12.627  66.717  1.00  0.00    -0.460 C  
HETATM   19  C   UNL     1     -12.719  13.721  66.199  1.00  0.00    -0.335 C  
ENDROOT
BRANCH   4  20
HETATM   20  O   UNL     1      -8.966   9.695  62.987  1.00  0.00    -0.239 OA 
HETATM   21  C   UNL     1      -8.282   8.460  62.784  1.00  0.00    -0.166 C  
ENDBRANCH   4  20
BRANCH   6  22
HETATM   22  O   UNL     1     -10.094  15.794  65.315  1.00  0.00    -0.388 OA 
BRANCH  22  23
HETATM   23  C   UNL     1     -10.554  17.073  65.242  1.00  0.00    -0.080 C  
HETATM   24  O   UNL     1     -11.246  17.548  64.345  1.00  0.00    -0.860 OA 
BRANCH  23  25
HETATM   25  C   UNL     1     -10.078  17.878  66.406  1.00  0.00    -0.369 A  
HETATM   26  C   UNL     1     -10.541  19.201  66.499  1.00  0.00    -0.523 A  
HETATM   27  C   UNL     1     -10.088  20.052  67.514  1.00  0.00    -0.565 A  
HETATM   28  C   UNL     1      -9.175  19.581  68.454  1.00  0.00    -0.412 A  
HETATM   29  C   UNL     1      -8.723  18.262  68.391  1.00  0.00    -0.325 A  
HETATM   30  C   UNL     1      -9.175  17.403  67.367  1.00  0.00    -0.236 A  
ENDBRANCH  23  25
ENDBRANCH  22  23
ENDBRANCH   6  22
TORSDOF 4
ENDMDL
MODEL        4
REMARK 921   NORMALIZED FREE ENERGY PREDICTED BY IDOCK:   -7.68 KCAL/MOL
REMARK 922        TOTAL FREE ENERGY PREDICTED BY IDOCK:  -10.03 KCAL/MOL
REMARK 923 INTER-LIGAND FREE ENERGY PREDICTED BY IDOCK:   -9.49 KCAL/MOL
REMARK 924 INTRA-LIGAND FREE ENERGY PREDICTED BY IDOCK:   -0.54 KCAL/MOL
REMARK 927      BINDING AFFINITY PREDICTED BY RF-SCORE:    0.00 PKD
ROOT
HETATM    1  C   UNL     1     -10.504  12.119  68.048  1.00  0.00    -0.212 C  
HETATM    2  O   UNL     1      -9.426  11.167  68.214  1.00  0.00    -0.168 OA 
HETATM    3  C   UNL     1      -9.501  10.423  67.049  1.00  0.00    -0.163 A  
HETATM    4  C   UNL     1      -8.946   9.204  66.759  1.00  0.00    -0.128 A  
HETATM    5  C   UNL     1      -8.968   8.821  65.398  1.00  0.00    -0.211 A  
HETATM    6  C   UNL     1     -10.339  13.431  68.775  1.00  0.00    -0.152 C  
HETATM    7  C   UNL     1      -9.468  14.347  68.283  1.00  0.00    -0.207 C  
HETATM    8  C   UNL     1      -9.445   9.679  64.361  1.00  0.00    -0.135 A  
HETATM    9  C   UNL     1      -9.986  10.914  64.686  1.00  0.00    -0.369 A  
HETATM   10  C   UNL     1     -10.125  11.142  66.043  1.00  0.00    -0.292 A  
HETATM   11  C   UNL     1     -10.667  12.408  66.569  1.00  0.00    -0.265 C  
HETATM   12  C   UNL     1     -12.156  12.546  66.177  1.00  0.00    -0.357 C  
HETATM   13  C   UNL     1     -12.432  13.931  65.646  1.00  0.00    -0.505 C  
HETATM   14  N   UNL     1     -11.582  14.270  64.496  1.00  0.00    -0.394 NA 
HETATM   15  C   UNL     1     -11.510  15.735  64.427  1.00  0.00    -0.263 C  
HETATM   16  C   UNL     1     -10.251  13.592  64.488  1.00  0.00    -0.269 C  
HETATM   17  C   UNL     1     -10.311  12.103  63.765  1.00  0.00    -0.465 C  
HETATM   18  C   UNL     1      -9.681  13.398  65.912  1.00  0.00    -0.197 C  
HETATM   19  C   UNL     1      -9.262  14.572  66.797  1.00  0.00    -0.286 C  
ENDROOT
BRANCH   4  20
HETATM   20  O   UNL     1      -8.397   8.314  67.633  1.00  0.00    -0.124 OA 
HETATM   21  C   UNL     1      -8.428   6.930  67.289  1.00  0.00    -0.121 C  
ENDBRANCH   4  20
BRANCH   6  22
HETATM   22  O   UNL     1     -11.666  13.864  69.183  1.00  0.00    -0.289 OA 
BRANCH  22  23
HETATM   23  C   UNL     1     -12.024  15.170  69.323  1.00  0.00    -0.292 C  
HETATM   24  O   UNL     1     -11.942  16.044  68.464  1.00  0.00    -0.273 OA 
BRANCH  23  25
HETATM   25  C   UNL     1     -12.520  15.441  70.705  1.00  0.00    -0.478 A  
HETATM   26  C   UNL     1     -11.562  15.806  71.666  1.00  0.00    -0.537 A  
HETATM   27  C   UNL     1     -11.924  16.005  73.003  1.00  0.00    -0.597 A  
HETATM   28  C   UNL     1     -13.253  15.853  73.389  1.00  0.00    -0.668 A  
HETATM   29  C   UNL     1     -14.222  15.515  72.443  1.00  0.00    -0.571 A  
HETATM   30  C   UNL     1     -13.860  15.310  71.095  1.00  0.00    -0.498 A  
ENDBRANCH  23  25
ENDBRANCH  22  23
ENDBRANCH   6  22
TORSDOF 4
ENDMDL
MODEL        5
REMARK 921   NORMALIZED FREE ENERGY PREDICTED BY IDOCK:   -7.63 KCAL/MOL
REMARK 922        TOTAL FREE ENERGY PREDICTED BY IDOCK:   -9.97 KCAL/MOL
REMARK 923 INTER-LIGAND FREE ENERGY PREDICTED BY IDOCK:   -8.91 KCAL/MOL
REMARK 924 INTRA-LIGAND FREE ENERGY PREDICTED BY IDOCK:   -1.05 KCAL/MOL
REMARK 927      BINDING AFFINITY PREDICTED BY RF-SCORE:    0.00 PKD
ROOT
HETATM    1  C   UNL     1      -9.783  11.014  67.289  1.00  0.00    -0.166 C  
HETATM    2  O   UNL     1      -9.291  10.907  65.931  1.00  0.00    -0.185 OA 
HETATM    3  C   UNL     1     -10.332  11.444  65.192  1.00  0.00    -0.290 A  
HETATM    4  C   UNL     1     -10.584  11.348  63.848  1.00  0.00    -0.392 A  
HETATM    5  C   UNL     1     -11.569  12.225  63.339  1.00  0.00    -0.530 A  
HETATM    6  C   UNL     1      -8.728  11.117  68.363  1.00  0.00    -0.157 C  
HETATM    7  C   UNL     1      -8.067  12.291  68.520  1.00  0.00    -0.101 C  
HETATM    8  C   UNL     1     -12.203  13.225  64.138  1.00  0.00    -0.465 A  
HETATM    9  C   UNL     1     -11.914  13.306  65.492  1.00  0.00    -0.445 A  
HETATM   10  C   UNL     1     -11.103  12.293  65.969  1.00  0.00    -0.347 A  
HETATM   11  C   UNL     1     -10.682  12.231  67.381  1.00  0.00    -0.261 C  
HETATM   12  C   UNL     1     -11.907  11.966  68.284  1.00  0.00    -0.343 C  
HETATM   13  C   UNL     1     -11.893  12.897  69.472  1.00  0.00    -0.320 C  
HETATM   14  N   UNL     1     -11.866  14.312  69.074  1.00  0.00    -0.320 NA 
HETATM   15  C   UNL     1     -11.299  15.068  70.199  1.00  0.00    -0.269 C  
HETATM   16  C   UNL     1     -11.198  14.575  67.764  1.00  0.00    -0.298 C  
HETATM   17  C   UNL     1     -12.244  14.431  66.488  1.00  0.00    -0.358 C  
HETATM   18  C   UNL     1     -10.013  13.617  67.506  1.00  0.00    -0.230 C  
HETATM   19  C   UNL     1      -8.736  13.642  68.348  1.00  0.00    -0.153 C  
ENDROOT
BRANCH   4  20
HETATM   20  O   UNL     1     -10.010  10.492  62.956  1.00  0.00    -0.285 OA 
HETATM   21  C   UNL     1      -8.782  10.883  62.346  1.00  0.00    -0.309 C  
ENDBRANCH   4  20
BRANCH   6  22
HETATM   22  O   UNL     1      -9.244  10.432  69.537  1.00  0.00    -0.194 OA 
BRANCH  22  23
HETATM   23  C   UNL     1      -9.402   9.082  69.616  1.00  0.00    -0.167 C  
HETATM   24  O   UNL     1      -8.677   8.234  69.104  1.00  0.00    -0.140 OA 
BRANCH  23  25
HETATM   25  C   UNL     1     -10.624   8.734  70.398  1.00  0.00    -0.251 A  
HETATM   26  C   UNL     1     -10.973   7.375  70.466  1.00  0.00    -0.270 A  
HETATM   27  C   UNL     1     -12.144   6.963  71.114  1.00  0.00    -0.428 A  
HETATM   28  C   UNL     1     -12.972   7.910  71.712  1.00  0.00    -0.351 A  
HETATM   29  C   UNL     1     -12.627   9.262  71.676  1.00  0.00    -0.446 A  
HETATM   30  C   UNL     1     -11.450   9.680  71.021  1.00  0.00    -0.444 A  
ENDBRANCH  23  25
ENDBRANCH  22  23
ENDBRANCH   6  22
TORSDOF 4
ENDMDL
MODEL        6
REMARK 921   NORMALIZED FREE ENERGY PREDICTED BY IDOCK:   -7.56 KCAL/MOL
REMARK 922        TOTAL FREE ENERGY PREDICTED BY IDOCK:   -9.88 KCAL/MOL
REMARK 923 INTER-LIGAND FREE ENERGY PREDICTED BY IDOCK:   -9.28 KCAL/MOL
REMARK 924 INTRA-LIGAND FREE ENERGY PREDICTED BY IDOCK:   -0.60 KCAL/MOL
REMARK 927      BINDING AFFINITY PREDICTED BY RF-SCORE:    0.00 PKD
ROOT
HETATM    1  C   UNL     1     -11.095  11.770  67.320  1.00  0.00    -0.287 C  
HETATM    2  O   UNL     1     -12.148  11.099  68.052  1.00  0.00    -0.635 OA 
HETATM    3  C   UNL     1     -12.147  11.770  69.263  1.00  0.00    -0.229 A  
HETATM    4  C   UNL     1     -12.707  11.407  70.460  1.00  0.00    -0.137 A  
HETATM    5  C   UNL     1     -12.775  12.418  71.445  1.00  0.00    -0.346 A  
HETATM    6  C   UNL     1     -11.223  11.747  65.816  1.00  0.00    -0.281 C  
HETATM    7  C   UNL     1     -12.136  12.558  65.225  1.00  0.00    -0.500 C  
HETATM    8  C   UNL     1     -12.380  13.768  71.197  1.00  0.00    -0.428 A  
HETATM    9  C   UNL     1     -11.831  14.107  69.968  1.00  0.00    -0.388 A  
HETATM   10  C   UNL     1     -11.601  13.036  69.125  1.00  0.00    -0.368 A  
HETATM   11  C   UNL     1     -11.037  13.215  67.775  1.00  0.00    -0.287 C  
HETATM   12  C   UNL     1      -9.581  13.722  67.875  1.00  0.00    -0.222 C  
HETATM   13  C   UNL     1      -9.358  14.866  66.917  1.00  0.00    -0.241 C  
HETATM   14  N   UNL     1     -10.289  15.980  67.147  1.00  0.00    -0.290 NA 
HETATM   15  C   UNL     1     -10.381  16.735  65.891  1.00  0.00    -0.328 C  
HETATM   16  C   UNL     1     -11.610  15.576  67.716  1.00  0.00    -0.187 C  
HETATM   17  C   UNL     1     -11.584  15.503  69.370  1.00  0.00    -0.366 C  
HETATM   18  C   UNL     1     -12.077  14.198  67.194  1.00  0.00    -0.432 C  
HETATM   19  C   UNL     1     -12.447  13.954  65.731  1.00  0.00    -0.530 C  
ENDROOT
BRANCH   4  20
HETATM   20  O   UNL     1     -13.184  10.179  70.812  1.00  0.00    -0.379 OA 
HETATM   21  C   UNL     1     -12.777   9.637  72.067  1.00  0.00    -0.385 C  
ENDBRANCH   4  20
BRANCH   6  22
HETATM   22  O   UNL     1      -9.876  11.684  65.273  1.00  0.00    -0.239 OA 
BRANCH  22  23
HETATM   23  C   UNL     1      -9.557  11.039  64.117  1.00  0.00    -0.266 C  
HETATM   24  O   UNL     1      -9.716  11.468  62.977  1.00  0.00    -0.382 OA 
BRANCH  23  25
HETATM   25  C   UNL     1      -9.001   9.683  64.399  1.00  0.00    -0.276 A  
HETATM   26  C   UNL     1      -8.321   9.041  63.351  1.00  0.00    -0.187 A  
HETATM   27  C   UNL     1      -7.832   7.738  63.501  1.00  0.00    -0.129 A  
HETATM   28  C   UNL     1      -8.009   7.069  64.709  1.00  0.00    -0.122 A  
HETATM   29  C   UNL     1      -8.660   7.701  65.770  1.00  0.00    -0.156 A  
HETATM   30  C   UNL     1      -9.157   9.012  65.620  1.00  0.00    -0.278 A  
ENDBRANCH  23  25
ENDBRANCH  22  23
ENDBRANCH   6  22
TORSDOF 4
ENDMDL
MODEL        7
REMARK 921   NORMALIZED FREE ENERGY PREDICTED BY IDOCK:   -7.50 KCAL/MOL
REMARK 922        TOTAL FREE ENERGY PREDICTED BY IDOCK:   -9.81 KCAL/MOL
REMARK 923 INTER-LIGAND FREE ENERGY PREDICTED BY IDOCK:   -8.88 KCAL/MOL
REMARK 924 INTRA-LIGAND FREE ENERGY PREDICTED BY IDOCK:   -0.93 KCAL/MOL
REMARK 927      BINDING AFFINITY PREDICTED BY RF-SCORE:    0.00 PKD
ROOT
HETATM    1  C   UNL     1     -11.107  11.778  67.313  1.00  0.00    -0.287 C  
HETATM    2  O   UNL     1     -12.141  11.117  68.080  1.00  0.00    -0.635 OA 
HETATM    3  C   UNL     1     -12.110  11.804  69.282  1.00  0.00    -0.229 A  
HETATM    4  C   UNL     1     -12.641  11.456  70.496  1.00  0.00    -0.224 A  
HETATM    5  C   UNL     1     -12.685  12.481  71.470  1.00  0.00    -0.325 A  
HETATM    6  C   UNL     1     -11.271  11.736  65.814  1.00  0.00    -0.281 C  
HETATM    7  C   UNL     1     -12.199  12.539  65.235  1.00  0.00    -0.493 C  
HETATM    8  C   UNL     1     -12.296  13.827  71.194  1.00  0.00    -0.428 A  
HETATM    9  C   UNL     1     -11.778  14.150  69.949  1.00  0.00    -0.372 A  
HETATM   10  C   UNL     1     -11.568  13.068  69.114  1.00  0.00    -0.368 A  
HETATM   11  C   UNL     1     -11.038  13.229  67.748  1.00  0.00    -0.289 C  
HETATM   12  C   UNL     1      -9.580  13.737  67.806  1.00  0.00    -0.219 C  
HETATM   13  C   UNL     1      -9.380  14.869  66.828  1.00  0.00    -0.250 C  
HETATM   14  N   UNL     1     -10.305  15.986  67.066  1.00  0.00    -0.288 NA 
HETATM   15  C   UNL     1     -10.428  16.724  65.802  1.00  0.00    -0.292 C  
HETATM   16  C   UNL     1     -11.612  15.589  67.672  1.00  0.00    -0.142 C  
HETATM   17  C   UNL     1     -11.546  15.538  69.326  1.00  0.00    -0.369 C  
HETATM   18  C   UNL     1     -12.092  14.204  67.180  1.00  0.00    -0.432 C  
HETATM   19  C   UNL     1     -12.497  13.942  65.730  1.00  0.00    -0.530 C  
ENDROOT
BRANCH   4  20
HETATM   20  O   UNL     1     -13.109  10.234  70.877  1.00  0.00    -0.386 OA 
HETATM   21  C   UNL     1     -12.231   9.376  71.601  1.00  0.00    -0.390 C  
ENDBRANCH   4  20
BRANCH   6  22
HETATM   22  O   UNL     1      -9.938  11.665  65.238  1.00  0.00    -0.240 OA 
BRANCH  22  23
HETATM   23  C   UNL     1      -9.432  10.552  64.639  1.00  0.00    -0.263 C  
HETATM   24  O   UNL     1      -9.566  10.235  63.461  1.00  0.00    -0.293 OA 
BRANCH  23  25
HETATM   25  C   UNL     1      -8.694   9.707  65.624  1.00  0.00    -0.163 A  
HETATM   26  C   UNL     1      -9.359   8.571  66.116  1.00  0.00    -0.279 A  
HETATM   27  C   UNL     1      -8.774   7.763  67.098  1.00  0.00    -0.125 A  
HETATM   28  C   UNL     1      -7.510   8.079  67.589  1.00  0.00    -0.097 A  
HETATM   29  C   UNL     1      -6.824   9.190  67.094  1.00  0.00    -0.080 A  
HETATM   30  C   UNL     1      -7.413  10.008  66.107  1.00  0.00    -0.109 A  
ENDBRANCH  23  25
ENDBRANCH  22  23
ENDBRANCH   6  22
TORSDOF 4
ENDMDL
MODEL        8
REMARK 921   NORMALIZED FREE ENERGY PREDICTED BY IDOCK:   -7.44 KCAL/MOL
REMARK 922        TOTAL FREE ENERGY PREDICTED BY IDOCK:   -9.74 KCAL/MOL
REMARK 923 INTER-LIGAND FREE ENERGY PREDICTED BY IDOCK:   -9.13 KCAL/MOL
REMARK 924 INTRA-LIGAND FREE ENERGY PREDICTED BY IDOCK:   -0.60 KCAL/MOL
REMARK 927      BINDING AFFINITY PREDICTED BY RF-SCORE:    0.00 PKD
ROOT
HETATM    1  C   UNL     1     -11.003  12.471  67.351  1.00  0.00    -0.259 C  
HETATM    2  O   UNL     1     -11.829  12.125  66.214  1.00  0.00    -0.553 OA 
HETATM    3  C   UNL     1     -10.900  11.665  65.296  1.00  0.00    -0.283 A  
HETATM    4  C   UNL     1     -11.031  11.476  63.945  1.00  0.00    -0.401 A  
HETATM    5  C   UNL     1      -9.999  10.741  63.319  1.00  0.00    -0.369 A  
HETATM    6  C   UNL     1     -11.680  12.407  68.699  1.00  0.00    -0.326 C  
HETATM    7  C   UNL     1     -11.917  11.192  69.254  1.00  0.00    -0.421 C  
HETATM    8  C   UNL     1      -8.927  10.139  64.046  1.00  0.00    -0.265 A  
HETATM    9  C   UNL     1      -8.831  10.336  65.416  1.00  0.00    -0.192 A  
HETATM   10  C   UNL     1      -9.749  11.230  65.934  1.00  0.00    -0.258 A  
HETATM   11  C   UNL     1      -9.802  11.546  67.373  1.00  0.00    -0.202 C  
HETATM   12  C   UNL     1      -8.517  12.293  67.795  1.00  0.00    -0.163 C  
HETATM   13  C   UNL     1      -7.966  11.708  69.073  1.00  0.00     0.063 C  
HETATM   14  N   UNL     1      -7.690  10.269  68.956  1.00  0.00    -0.100 NA 
HETATM   15  C   UNL     1      -7.716   9.711  70.315  1.00  0.00    -0.172 C  
HETATM   16  C   UNL     1      -8.561   9.547  67.982  1.00  0.00    -0.120 C  
HETATM   17  C   UNL     1      -7.955   9.596  66.442  1.00  0.00    -0.108 C  
HETATM   18  C   UNL     1      -9.996  10.123  67.938  1.00  0.00    -0.190 C  
HETATM   19  C   UNL     1     -10.958  10.025  69.123  1.00  0.00    -0.256 C  
ENDROOT
BRANCH   4  20
HETATM   20  O   UNL     1     -12.029  11.934  63.138  1.00  0.00    -0.370 OA 
HETATM   21  C   UNL     1     -12.368  13.318  63.209  1.00  0.00    -0.238 C  
ENDBRANCH   4  20
BRANCH   6  22
HETATM   22  O   UNL     1     -11.102  13.460  69.518  1.00  0.00    -0.168 OA 
BRANCH  22  23
HETATM   23  C   UNL     1     -11.541  14.748  69.512  1.00  0.00    -0.304 C  
HETATM   24  O   UNL     1     -11.414  15.557  68.597  1.00  0.00    -0.322 OA 
BRANCH  23  25
HETATM   25  C   UNL     1     -12.193  15.094  70.810  1.00  0.00    -0.392 A  
HETATM   26  C   UNL     1     -13.525  14.683  70.985  1.00  0.00    -0.375 A  
HETATM   27  C   UNL     1     -14.240  15.028  72.138  1.00  0.00    -0.636 A  
HETATM   28  C   UNL     1     -13.623  15.780  73.134  1.00  0.00    -0.588 A  
HETATM   29  C   UNL     1     -12.292  16.176  72.988  1.00  0.00    -0.625 A  
HETATM   30  C   UNL     1     -11.570  15.832  71.826  1.00  0.00    -0.541 A  
ENDBRANCH  23  25
ENDBRANCH  22  23
ENDBRANCH   6  22
TORSDOF 4
ENDMDL
MODEL        9
REMARK 921   NORMALIZED FREE ENERGY PREDICTED BY IDOCK:   -7.40 KCAL/MOL
REMARK 922        TOTAL FREE ENERGY PREDICTED BY IDOCK:   -9.69 KCAL/MOL
REMARK 923 INTER-LIGAND FREE ENERGY PREDICTED BY IDOCK:   -8.84 KCAL/MOL
REMARK 924 INTRA-LIGAND FREE ENERGY PREDICTED BY IDOCK:   -0.85 KCAL/MOL
REMARK 927      BINDING AFFINITY PREDICTED BY RF-SCORE:    0.00 PKD
ROOT
HETATM    1  C   UNL     1     -11.091  11.886  67.356  1.00  0.00    -0.279 C  
HETATM    2  O   UNL     1     -12.097  11.277  68.199  1.00  0.00    -0.635 OA 
HETATM    3  C   UNL     1     -12.035  12.051  69.346  1.00  0.00    -0.275 A  
HETATM    4  C   UNL     1     -12.527  11.791  70.599  1.00  0.00    -0.274 A  
HETATM    5  C   UNL     1     -12.549  12.884  71.495  1.00  0.00    -0.269 A  
HETATM    6  C   UNL     1     -11.300  11.732  65.869  1.00  0.00    -0.263 C  
HETATM    7  C   UNL     1     -12.250  12.485  65.261  1.00  0.00    -0.493 C  
HETATM    8  C   UNL     1     -12.179  14.208  71.110  1.00  0.00    -0.435 A  
HETATM    9  C   UNL     1     -11.700  14.442  69.828  1.00  0.00    -0.361 A  
HETATM   10  C   UNL     1     -11.508  13.302  69.069  1.00  0.00    -0.350 A  
HETATM   11  C   UNL     1     -11.020  13.365  67.680  1.00  0.00    -0.277 C  
HETATM   12  C   UNL     1      -9.565  13.883  67.656  1.00  0.00    -0.215 C  
HETATM   13  C   UNL     1      -9.402  14.941  66.592  1.00  0.00    -0.268 C  
HETATM   14  N   UNL     1     -10.328  16.067  66.776  1.00  0.00    -0.295 NA 
HETATM   15  C   UNL     1     -10.494  16.710  65.465  1.00  0.00    -0.267 C  
HETATM   16  C   UNL     1     -11.613  15.710  67.448  1.00  0.00     0.013 C  
HETATM   17  C   UNL     1     -11.497  15.781  69.098  1.00  0.00    -0.383 C  
HETATM   18  C   UNL     1     -12.097  14.290  67.074  1.00  0.00    -0.424 C  
HETATM   19  C   UNL     1     -12.544  13.919  65.660  1.00  0.00    -0.553 C  
ENDROOT
BRANCH   4  20
HETATM   20  O   UNL     1     -12.975  10.598  71.082  1.00  0.00    -0.365 OA 
HETATM   21  C   UNL     1     -12.007   9.650  71.527  1.00  0.00    -0.406 C  
ENDBRANCH   4  20
BRANCH   6  22
HETATM   22  O   UNL     1      -9.984  11.626  65.260  1.00  0.00    -0.240 OA 
BRANCH  22  23
HETATM   23  C   UNL     1      -9.491  10.476  64.722  1.00  0.00    -0.259 C  
HETATM   24  O   UNL     1      -9.501  10.165  63.534  1.00  0.00    -0.283 OA 
BRANCH  23  25
HETATM   25  C   UNL     1      -8.943   9.583  65.786  1.00  0.00    -0.219 A  
HETATM   26  C   UNL     1      -7.582   9.727  66.101  1.00  0.00    -0.101 A  
HETATM   27  C   UNL     1      -6.965   8.882  67.031  1.00  0.00    -0.074 A  
HETATM   28  C   UNL     1      -7.710   7.891  67.664  1.00  0.00    -0.117 A  
HETATM   29  C   UNL     1      -9.070   7.750  67.381  1.00  0.00    -0.138 A  
HETATM   30  C   UNL     1      -9.693   8.597  66.442  1.00  0.00    -0.333 A  
ENDBRANCH  23  25
ENDBRANCH  22  23
ENDBRANCH   6  22
TORSDOF 4
ENDMDL
MODEL       10
REMARK 921   NORMALIZED FREE ENERGY PREDICTED BY IDOCK:   -7.28 KCAL/MOL
REMARK 922        TOTAL FREE ENERGY PREDICTED BY IDOCK:   -9.54 KCAL/MOL
REMARK 923 INTER-LIGAND FREE ENERGY PREDICTED BY IDOCK:   -8.36 KCAL/MOL
REMARK 924 INTRA-LIGAND FREE ENERGY PREDICTED BY IDOCK:   -1.18 KCAL/MOL
REMARK 927      BINDING AFFINITY PREDICTED BY RF-SCORE:    0.00 PKD
ROOT
HETATM    1  C   UNL     1     -10.575  15.869  66.591  1.00  0.00    -0.305 C  
HETATM    2  O   UNL     1     -11.683  14.951  66.432  1.00  0.00    -0.307 OA 
HETATM    3  C   UNL     1     -11.049  13.772  66.079  1.00  0.00    -0.291 A  
HETATM    4  C   UNL     1     -11.572  12.637  65.516  1.00  0.00    -0.370 A  
HETATM    5  C   UNL     1     -10.733  11.500  65.521  1.00  0.00    -0.328 A  
HETATM    6  C   UNL     1     -10.804  17.018  67.541  1.00  0.00    -0.203 C  
HETATM    7  C   UNL     1     -10.782  16.777  68.876  1.00  0.00    -0.333 C  
HETATM    8  C   UNL     1      -9.454  11.484  66.156  1.00  0.00    -0.239 A  
HETATM    9  C   UNL     1      -8.959  12.645  66.731  1.00  0.00    -0.197 A  
HETATM   10  C   UNL     1      -9.733  13.770  66.513  1.00  0.00    -0.301 A  
HETATM   11  C   UNL     1      -9.366  15.087  67.065  1.00  0.00    -0.237 C  
HETATM   12  C   UNL     1      -8.065  15.592  66.402  1.00  0.00    -0.046 C  
HETATM   13  C   UNL     1      -7.115  16.123  67.447  1.00  0.00    -0.177 C  
HETATM   14  N   UNL     1      -6.793  15.120  68.472  1.00  0.00    -0.105 NA 
HETATM   15  C   UNL     1      -6.369  15.849  69.674  1.00  0.00    -0.186 C  
HETATM   16  C   UNL     1      -7.871  14.114  68.716  1.00  0.00    -0.114 C  
HETATM   17  C   UNL     1      -7.766  12.822  67.687  1.00  0.00    -0.162 C  
HETATM   18  C   UNL     1      -9.285  14.720  68.563  1.00  0.00    -0.194 C  
HETATM   19  C   UNL     1      -9.833  15.782  69.517  1.00  0.00    -0.283 C  
ENDROOT
BRANCH   4  20
HETATM   20  O   UNL     1     -12.796  12.489  64.935  1.00  0.00    -0.758 OA 
HETATM   21  C   UNL     1     -12.848  12.270  63.527  1.00  0.00    -0.283 C  
ENDBRANCH   4  20
BRANCH   6  22
HETATM   22  O   UNL     1     -10.075  18.161  67.016  1.00  0.00    -0.319 OA 
BRANCH  22  23
HETATM   23  C   UNL     1      -9.942  19.342  67.680  1.00  0.00    -0.358 C  
HETATM   24  O   UNL     1     -10.854  20.068  68.064  1.00  0.00    -0.208 OA 
BRANCH  23  25
HETATM   25  C   UNL     1      -8.501  19.686  67.868  1.00  0.00    -0.356 A  
HETATM   26  C   UNL     1      -7.904  19.291  69.077  1.00  0.00    -0.314 A  
HETATM   27  C   UNL     1      -6.580  19.637  69.372  1.00  0.00    -0.383 A  
HETATM   28  C   UNL     1      -5.836  20.373  68.452  1.00  0.00    -0.313 A  
HETATM   29  C   UNL     1      -6.406  20.752  67.236  1.00  0.00    -0.341 A  
HETATM   30  C   UNL     1      -7.741  20.408  66.937  1.00  0.00    -0.346 A  
ENDBRANCH  23  25
ENDBRANCH  22  23
ENDBRANCH   6  22
TORSDOF 4
ENDMDL
MODEL       11
REMARK 921   NORMALIZED FREE ENERGY PREDICTED BY IDOCK:   -7.08 KCAL/MOL
REMARK 922        TOTAL FREE ENERGY PREDICTED BY IDOCK:   -9.29 KCAL/MOL
REMARK 923 INTER-LIGAND FREE ENERGY PREDICTED BY IDOCK:   -8.81 KCAL/MOL
REMARK 924 INTRA-LIGAND FREE ENERGY PREDICTED BY IDOCK:   -0.48 KCAL/MOL
REMARK 927      BINDING AFFINITY PREDICTED BY RF-SCORE:    0.00 PKD
ROOT
HETATM    1  C   UNL     1     -10.282  10.520  67.569  1.00  0.00    -0.206 C  
HETATM    2  O   UNL     1     -11.528  10.887  66.930  1.00  0.00    -0.342 OA 
HETATM    3  C   UNL     1     -11.105  11.397  65.715  1.00  0.00    -0.153 A  
HETATM    4  C   UNL     1     -11.787  12.168  64.810  1.00  0.00    -0.318 A  
HETATM    5  C   UNL     1     -11.185  12.309  63.538  1.00  0.00    -0.535 A  
HETATM    6  C   UNL     1     -10.365   9.405  68.582  1.00  0.00    -0.203 C  
HETATM    7  C   UNL     1     -10.502   8.129  68.140  1.00  0.00    -0.225 C  
HETATM    8  C   UNL     1      -9.991  11.620  63.166  1.00  0.00    -0.400 A  
HETATM    9  C   UNL     1      -9.333  10.834  64.101  1.00  0.00    -0.286 A  
HETATM   10  C   UNL     1      -9.855  10.902  65.380  1.00  0.00    -0.308 A  
HETATM   11  C   UNL     1      -9.290  10.120  66.495  1.00  0.00    -0.200 C  
HETATM   12  C   UNL     1      -7.865  10.621  66.820  1.00  0.00    -0.126 C  
HETATM   13  C   UNL     1      -6.922   9.454  66.981  1.00  0.00    -0.085 C  
HETATM   14  N   UNL     1      -6.887   8.595  65.789  1.00  0.00    -0.067 NA 
HETATM   15  C   UNL     1      -6.433   7.268  66.225  1.00  0.00    -0.048 C  
HETATM   16  C   UNL     1      -8.154   8.578  64.998  1.00  0.00    -0.148 C  
HETATM   17  C   UNL     1      -8.213   9.801  63.884  1.00  0.00    -0.159 C  
HETATM   18  C   UNL     1      -9.407   8.702  65.895  1.00  0.00    -0.262 C  
HETATM   19  C   UNL     1      -9.819   7.614  66.887  1.00  0.00    -0.304 C  
ENDROOT
BRANCH   4  20
HETATM   20  O   UNL     1     -12.963  12.828  65.004  1.00  0.00    -0.811 OA 
HETATM   21  C   UNL     1     -12.907  14.168  65.489  1.00  0.00    -0.376 C  
ENDBRANCH   4  20
BRANCH   6  22
HETATM   22  O   UNL     1      -9.389   9.694  69.619  1.00  0.00    -0.181 OA 
BRANCH  22  23
HETATM   23  C   UNL     1      -9.529   9.309  70.917  1.00  0.00    -0.261 C  
HETATM   24  O   UNL     1      -8.628   8.967  71.677  1.00  0.00    -0.333 OA 
BRANCH  23  25
HETATM   25  C   UNL     1     -10.966   9.318  71.322  1.00  0.00    -0.421 A  
HETATM   26  C   UNL     1     -11.492   8.121  71.837  1.00  0.00    -0.357 A  
HETATM   27  C   UNL     1     -12.847   8.015  72.172  1.00  0.00    -0.269 A  
HETATM   28  C   UNL     1     -13.688   9.112  72.005  1.00  0.00    -0.508 A  
HETATM   29  C   UNL     1     -13.177  10.317  71.518  1.00  0.00    -0.484 A  
HETATM   30  C   UNL     1     -11.813  10.426  71.177  1.00  0.00    -0.432 A  
ENDBRANCH  23  25
ENDBRANCH  22  23
ENDBRANCH   6  22
TORSDOF 4
ENDMDL
MODEL       12
REMARK 921   NORMALIZED FREE ENERGY PREDICTED BY IDOCK:   -7.07 KCAL/MOL
REMARK 922        TOTAL FREE ENERGY PREDICTED BY IDOCK:   -9.28 KCAL/MOL
REMARK 923 INTER-LIGAND FREE ENERGY PREDICTED BY IDOCK:   -8.02 KCAL/MOL
REMARK 924 INTRA-LIGAND FREE ENERGY PREDICTED BY IDOCK:   -1.26 KCAL/MOL
REMARK 927      BINDING AFFINITY PREDICTED BY RF-SCORE:    0.00 PKD
ROOT
HETATM    1  C   UNL     1      -9.872  10.431  68.791  1.00  0.00    -0.185 C  
HETATM    2  O   UNL     1     -10.207  10.175  70.176  1.00  0.00    -0.255 OA 
HETATM    3  C   UNL     1     -10.831   8.941  70.111  1.00  0.00    -0.231 A  
HETATM    4  C   UNL     1     -11.623   8.316  71.039  1.00  0.00    -0.275 A  
HETATM    5  C   UNL     1     -11.895   6.949  70.802  1.00  0.00    -0.427 A  
HETATM    6  C   UNL     1      -8.682  11.329  68.558  1.00  0.00    -0.156 C  
HETATM    7  C   UNL     1      -7.436  10.828  68.756  1.00  0.00    -0.109 C  
HETATM    8  C   UNL     1     -11.311   6.220  69.723  1.00  0.00    -0.506 A  
HETATM    9  C   UNL     1     -10.500   6.878  68.809  1.00  0.00    -0.223 A  
HETATM   10  C   UNL     1     -10.440   8.249  68.976  1.00  0.00    -0.212 A  
HETATM   11  C   UNL     1      -9.614   9.105  68.105  1.00  0.00    -0.160 C  
HETATM   12  C   UNL     1     -10.178   9.090  66.666  1.00  0.00    -0.333 C  
HETATM   13  C   UNL     1      -9.062   8.896  65.668  1.00  0.00    -0.212 C  
HETATM   14  N   UNL     1      -8.298   7.665  65.915  1.00  0.00    -0.132 NA 
HETATM   15  C   UNL     1      -6.973   7.849  65.309  1.00  0.00    -0.059 C  
HETATM   16  C   UNL     1      -8.262   7.234  67.345  1.00  0.00    -0.116 C  
HETATM   17  C   UNL     1      -9.558   6.285  67.746  1.00  0.00    -0.118 C  
HETATM   18  C   UNL     1      -8.240   8.434  68.320  1.00  0.00    -0.124 C  
HETATM   19  C   UNL     1      -7.059   9.400  68.410  1.00  0.00    -0.072 C  
ENDROOT
BRANCH   4  20
HETATM   20  O   UNL     1     -12.193   8.868  72.147  1.00  0.00    -0.356 OA 
HETATM   21  C   UNL     1     -13.259   9.798  71.961  1.00  0.00    -0.460 C  
ENDBRANCH   4  20
BRANCH   6  22
HETATM   22  O   UNL     1      -8.953  12.097  67.354  1.00  0.00    -0.167 OA 
BRANCH  22  23
HETATM   23  C   UNL     1      -9.979  12.985  67.240  1.00  0.00    -0.232 C  
HETATM   24  O   UNL     1     -10.268  13.869  68.041  1.00  0.00    -0.234 OA 
BRANCH  23  25
HETATM   25  C   UNL     1     -10.765  12.733  65.996  1.00  0.00    -0.295 A  
HETATM   26  C   UNL     1     -10.060  12.244  64.884  1.00  0.00    -0.274 A  
HETATM   27  C   UNL     1     -10.701  12.050  63.654  1.00  0.00    -0.506 A  
HETATM   28  C   UNL     1     -12.059  12.333  63.530  1.00  0.00    -0.649 A  
HETATM   29  C   UNL     1     -12.780  12.795  64.632  1.00  0.00    -0.439 A  
HETATM   30  C   UNL     1     -12.137  12.995  65.871  1.00  0.00    -0.503 A  
ENDBRANCH  23  25
ENDBRANCH  22  23
ENDBRANCH   6  22
TORSDOF 4
ENDMDL
MODEL       13
REMARK 921   NORMALIZED FREE ENERGY PREDICTED BY IDOCK:   -7.06 KCAL/MOL
REMARK 922        TOTAL FREE ENERGY PREDICTED BY IDOCK:   -9.27 KCAL/MOL
REMARK 923 INTER-LIGAND FREE ENERGY PREDICTED BY IDOCK:   -8.03 KCAL/MOL
REMARK 924 INTRA-LIGAND FREE ENERGY PREDICTED BY IDOCK:   -1.23 KCAL/MOL
REMARK 927      BINDING AFFINITY PREDICTED BY RF-SCORE:    0.00 PKD
ROOT
HETATM    1  C   UNL     1      -9.846  10.350  68.815  1.00  0.00    -0.185 C  
HETATM    2  O   UNL     1     -10.164  10.136  70.211  1.00  0.00    -0.247 OA 
HETATM    3  C   UNL     1     -10.814   8.913  70.187  1.00  0.00    -0.231 A  
HETATM    4  C   UNL     1     -11.603   8.329  71.142  1.00  0.00    -0.279 A  
HETATM    5  C   UNL     1     -11.905   6.962  70.945  1.00  0.00    -0.424 A  
HETATM    6  C   UNL     1      -8.642  11.218  68.541  1.00  0.00    -0.156 C  
HETATM    7  C   UNL     1      -7.404  10.697  68.734  1.00  0.00    -0.100 C  
HETATM    8  C   UNL     1     -11.352   6.193  69.876  1.00  0.00    -0.454 A  
HETATM    9  C   UNL     1     -10.542   6.811  68.934  1.00  0.00    -0.257 A  
HETATM   10  C   UNL     1     -10.454   8.185  69.065  1.00  0.00    -0.211 A  
HETATM   11  C   UNL     1      -9.625   9.001  68.159  1.00  0.00    -0.164 C  
HETATM   12  C   UNL     1     -10.210   8.961  66.730  1.00  0.00    -0.348 C  
HETATM   13  C   UNL     1      -9.114   8.719  65.721  1.00  0.00    -0.212 C  
HETATM   14  N   UNL     1      -8.370   7.480  65.989  1.00  0.00    -0.128 NA 
HETATM   15  C   UNL     1      -7.051   7.622  65.359  1.00  0.00    -0.063 C  
HETATM   16  C   UNL     1      -8.320   7.086  67.428  1.00  0.00    -0.122 C  
HETATM   17  C   UNL     1      -9.628   6.173  67.873  1.00  0.00    -0.118 C  
HETATM   18  C   UNL     1      -8.261   8.309  68.371  1.00  0.00    -0.132 C  
HETATM   19  C   UNL     1      -7.060   9.254  68.419  1.00  0.00    -0.072 C  
ENDROOT
BRANCH   4  20
HETATM   20  O   UNL     1     -12.146   8.920  72.244  1.00  0.00    -0.358 OA 
HETATM   21  C   UNL     1     -13.363   9.646  72.085  1.00  0.00    -0.454 C  
ENDBRANCH   4  20
BRANCH   6  22
HETATM   22  O   UNL     1      -8.917  11.960  67.322  1.00  0.00    -0.166 OA 
BRANCH  22  23
HETATM   23  C   UNL     1      -9.959  12.825  67.183  1.00  0.00    -0.218 C  
HETATM   24  O   UNL     1     -10.323  13.663  68.003  1.00  0.00    -0.238 OA 
BRANCH  23  25
HETATM   25  C   UNL     1     -10.658  12.611  65.882  1.00  0.00    -0.297 A  
HETATM   26  C   UNL     1     -12.018  12.961  65.823  1.00  0.00    -0.496 A  
HETATM   27  C   UNL     1     -12.773  12.724  64.668  1.00  0.00    -0.439 A  
HETATM   28  C   UNL     1     -12.169  12.146  63.555  1.00  0.00    -0.670 A  
HETATM   29  C   UNL     1     -10.813  11.815  63.587  1.00  0.00    -0.508 A  
HETATM   30  C   UNL     1     -10.051  12.048  64.750  1.00  0.00    -0.286 A  
ENDBRANCH  23  25
ENDBRANCH  22  23
ENDBRANCH   6  22
TORSDOF 4
ENDMDL
MODEL       14
REMARK 921   NORMALIZED FREE ENERGY PREDICTED BY IDOCK:   -7.06 KCAL/MOL
REMARK 922        TOTAL FREE ENERGY PREDICTED BY IDOCK:   -9.26 KCAL/MOL
REMARK 923 INTER-LIGAND FREE ENERGY PREDICTED BY IDOCK:   -8.38 KCAL/MOL
REMARK 924 INTRA-LIGAND FREE ENERGY PREDICTED BY IDOCK:   -0.88 KCAL/MOL
REMARK 927      BINDING AFFINITY PREDICTED BY RF-SCORE:    0.00 PKD
ROOT
HETATM    1  C   UNL     1     -11.417   6.303  71.934  1.00  0.00    -0.309 C  
HETATM    2  O   UNL     1     -11.060   5.407  73.013  1.00  0.00    -0.272 OA 
HETATM    3  C   UNL     1     -10.496   4.337  72.340  1.00  0.00    -0.126 A  
HETATM    4  C   UNL     1     -10.241   3.065  72.784  1.00  0.00    -0.157 A  
HETATM    5  C   UNL     1      -9.412   2.274  71.957  1.00  0.00    -0.179 A  
HETATM    6  C   UNL     1     -11.469   7.770  72.288  1.00  0.00    -0.332 C  
HETATM    7  C   UNL     1     -10.303   8.444  72.449  1.00  0.00    -0.399 C  
HETATM    8  C   UNL     1      -8.787   2.780  70.777  1.00  0.00    -0.146 A  
HETATM    9  C   UNL     1      -9.052   4.077  70.362  1.00  0.00    -0.183 A  
HETATM   10  C   UNL     1     -10.028   4.728  71.096  1.00  0.00    -0.273 A  
HETATM   11  C   UNL     1     -10.425   6.117  70.804  1.00  0.00    -0.285 C  
HETATM   12  C   UNL     1     -11.114   6.188  69.423  1.00  0.00    -0.479 C  
HETATM   13  C   UNL     1     -10.568   7.346  68.624  1.00  0.00    -0.154 C  
HETATM   14  N   UNL     1      -9.111   7.267  68.448  1.00  0.00    -0.136 NA 
HETATM   15  C   UNL     1      -8.631   8.631  68.190  1.00  0.00    -0.141 C  
HETATM   16  C   UNL     1      -8.391   6.564  69.551  1.00  0.00    -0.130 C  
HETATM   17  C   UNL     1      -8.319   4.928  69.310  1.00  0.00    -0.085 C  
HETATM   18  C   UNL     1      -9.049   6.806  70.930  1.00  0.00    -0.153 C  
HETATM   19  C   UNL     1      -9.074   8.180  71.600  1.00  0.00    -0.214 C  
ENDROOT
BRANCH   4  20
HETATM   20  O   UNL     1     -10.714   2.474  73.918  1.00  0.00    -0.147 OA 
HETATM   21  C   UNL     1     -11.742   1.495  73.784  1.00  0.00    -0.171 C  
ENDBRANCH   4  20
BRANCH   6  22
HETATM   22  O   UNL     1     -12.528   8.366  71.491  1.00  0.00    -0.301 OA 
BRANCH  22  23
HETATM   23  C   UNL     1     -13.375   9.324  71.957  1.00  0.00    -0.450 C  
HETATM   24  O   UNL     1     -14.344   9.146  72.690  1.00  0.00    -0.561 OA 
BRANCH  23  25
HETATM   25  C   UNL     1     -13.000  10.669  71.428  1.00  0.00    -0.545 A  
HETATM   26  C   UNL     1     -12.161  10.700  70.302  1.00  0.00    -0.423 A  
HETATM   27  C   UNL     1     -11.697  11.915  69.783  1.00  0.00    -0.403 A  
HETATM   28  C   UNL     1     -12.080  13.113  70.381  1.00  0.00    -0.392 A  
HETATM   29  C   UNL     1     -12.934  13.101  71.486  1.00  0.00    -0.412 A  
HETATM   30  C   UNL     1     -13.400  11.879  72.012  1.00  0.00    -0.425 A  
ENDBRANCH  23  25
ENDBRANCH  22  23
ENDBRANCH   6  22
TORSDOF 4
ENDMDL
MODEL       15
REMARK 921   NORMALIZED FREE ENERGY PREDICTED BY IDOCK:   -7.00 KCAL/MOL
REMARK 922        TOTAL FREE ENERGY PREDICTED BY IDOCK:   -9.20 KCAL/MOL
REMARK 923 INTER-LIGAND FREE ENERGY PREDICTED BY IDOCK:   -8.54 KCAL/MOL
REMARK 924 INTRA-LIGAND FREE ENERGY PREDICTED BY IDOCK:   -0.65 KCAL/MOL
REMARK 927      BINDING AFFINITY PREDICTED BY RF-SCORE:    0.00 PKD
ROOT
HETATM    1  C   UNL     1      -9.997  13.253  65.998  1.00  0.00    -0.292 C  
HETATM    2  O   UNL     1     -10.132  12.009  65.271  1.00  0.00    -0.252 OA 
HETATM    3  C   UNL     1      -9.890  11.060  66.251  1.00  0.00    -0.215 A  
HETATM    4  C   UNL     1      -9.587   9.730  66.118  1.00  0.00    -0.227 A  
HETATM    5  C   UNL     1      -9.662   8.957  67.299  1.00  0.00    -0.235 A  
HETATM    6  C   UNL     1     -10.776  14.423  65.448  1.00  0.00    -0.348 C  
HETATM    7  C   UNL     1     -12.118  14.465  65.645  1.00  0.00    -0.359 C  
HETATM    8  C   UNL     1     -10.119   9.487  68.544  1.00  0.00    -0.198 A  
HETATM    9  C   UNL     1     -10.434  10.835  68.641  1.00  0.00    -0.213 A  
HETATM   10  C   UNL     1     -10.144  11.577  67.511  1.00  0.00    -0.203 A  
HETATM   11  C   UNL     1     -10.428  13.021  67.433  1.00  0.00    -0.235 C  
HETATM   12  C   UNL     1      -9.529  13.789  68.428  1.00  0.00    -0.198 C  
HETATM   13  C   UNL     1     -10.344  14.795  69.203  1.00  0.00    -0.233 C  
HETATM   14  N   UNL     1     -11.464  14.172  69.923  1.00  0.00    -0.251 NA 
HETATM   15  C   UNL     1     -12.470  15.219  70.148  1.00  0.00    -0.334 C  
HETATM   16  C   UNL     1     -12.002  12.935  69.283  1.00  0.00    -0.260 C  
HETATM   17  C   UNL     1     -11.186  11.576  69.761  1.00  0.00    -0.237 C  
HETATM   18  C   UNL     1     -11.941  12.999  67.739  1.00  0.00    -0.344 C  
HETATM   19  C   UNL     1     -12.778  13.983  66.922  1.00  0.00     0.248 C  
ENDROOT
BRANCH   4  20
HETATM   20  O   UNL     1      -9.201   9.077  64.985  1.00  0.00    -0.178 OA 
HETATM   21  C   UNL     1      -8.163   8.106  65.092  1.00  0.00    -0.154 C  
ENDBRANCH   4  20
BRANCH   6  22
HETATM   22  O   UNL     1      -9.986  15.618  65.696  1.00  0.00    -0.327 OA 
BRANCH  22  23
HETATM   23  C   UNL     1     -10.385  16.872  65.349  1.00  0.00    -0.104 C  
HETATM   24  O   UNL     1     -11.110  17.170  64.405  1.00  0.00    -1.100 OA 
BRANCH  23  25
HETATM   25  C   UNL     1      -9.790  17.892  66.264  1.00  0.00    -0.307 A  
HETATM   26  C   UNL     1     -10.500  19.093  66.428  1.00  0.00    -0.548 A  
HETATM   27  C   UNL     1      -9.981  20.135  67.206  1.00  0.00    -0.583 A  
HETATM   28  C   UNL     1      -8.750  19.978  67.839  1.00  0.00    -0.321 A  
HETATM   29  C   UNL     1      -8.044  18.781  67.707  1.00  0.00    -0.276 A  
HETATM   30  C   UNL     1      -8.562  17.732  66.921  1.00  0.00    -0.260 A  
ENDBRANCH  23  25
ENDBRANCH  22  23
ENDBRANCH   6  22
TORSDOF 4
ENDMDL
MODEL       16
REMARK 921   NORMALIZED FREE ENERGY PREDICTED BY IDOCK:   -6.94 KCAL/MOL
REMARK 922        TOTAL FREE ENERGY PREDICTED BY IDOCK:   -9.12 KCAL/MOL
REMARK 923 INTER-LIGAND FREE ENERGY PREDICTED BY IDOCK:   -8.23 KCAL/MOL
REMARK 924 INTRA-LIGAND FREE ENERGY PREDICTED BY IDOCK:   -0.88 KCAL/MOL
REMARK 927      BINDING AFFINITY PREDICTED BY RF-SCORE:    0.00 PKD
ROOT
HETATM    1  C   UNL     1      -9.140  10.441  67.222  1.00  0.00    -0.135 C  
HETATM    2  O   UNL     1      -8.191   9.901  66.271  1.00  0.00    -0.112 OA 
HETATM    3  C   UNL     1      -8.836  10.095  65.061  1.00  0.00    -0.181 A  
HETATM    4  C   UNL     1      -8.580   9.531  63.838  1.00  0.00    -0.212 A  
HETATM    5  C   UNL     1      -9.229  10.125  62.732  1.00  0.00    -0.322 A  
HETATM    6  C   UNL     1      -8.553  10.963  68.510  1.00  0.00    -0.152 C  
HETATM    7  C   UNL     1      -7.903  12.154  68.498  1.00  0.00    -0.122 C  
HETATM    8  C   UNL     1     -10.030  11.303  62.847  1.00  0.00    -0.282 A  
HETATM    9  C   UNL     1     -10.257  11.860  64.097  1.00  0.00    -0.364 A  
HETATM   10  C   UNL     1      -9.767  11.116  65.155  1.00  0.00    -0.296 A  
HETATM   11  C   UNL     1      -9.905  11.566  66.553  1.00  0.00    -0.228 C  
HETATM   12  C   UNL     1     -11.395  11.562  66.962  1.00  0.00    -0.340 C  
HETATM   13  C   UNL     1     -11.745  12.844  67.678  1.00  0.00    -0.370 C  
HETATM   14  N   UNL     1     -11.455  14.035  66.867  1.00  0.00    -0.338 NA 
HETATM   15  C   UNL     1     -11.285  15.160  67.796  1.00  0.00    -0.323 C  
HETATM   16  C   UNL     1     -10.331  13.867  65.898  1.00  0.00    -0.311 C  
HETATM   17  C   UNL     1     -10.838  13.239  64.453  1.00  0.00    -0.422 C  
HETATM   18  C   UNL     1      -9.218  12.944  66.445  1.00  0.00    -0.144 C  
HETATM   19  C   UNL     1      -8.346  13.325  67.642  1.00  0.00    -0.181 C  
ENDROOT
BRANCH   4  20
HETATM   20  O   UNL     1      -7.789   8.452  63.573  1.00  0.00    -0.137 OA 
HETATM   21  C   UNL     1      -8.084   7.226  64.238  1.00  0.00    -0.049 C  
ENDBRANCH   4  20
BRANCH   6  22
HETATM   22  O   UNL     1      -9.522  10.696  69.561  1.00  0.00    -0.146 OA 
BRANCH  22  23
HETATM   23  C   UNL     1      -9.575   9.530  70.260  1.00  0.00    -0.265 C  
HETATM   24  O   UNL     1      -8.693   8.678  70.325  1.00  0.00    -0.133 OA 
BRANCH  23  25
HETATM   25  C   UNL     1     -10.894   9.378  70.943  1.00  0.00    -0.392 A  
HETATM   26  C   UNL     1     -11.800  10.445  70.824  1.00  0.00    -0.466 A  
HETATM   27  C   UNL     1     -13.030  10.423  71.492  1.00  0.00    -0.562 A  
HETATM   28  C   UNL     1     -13.370   9.325  72.278  1.00  0.00    -0.547 A  
HETATM   29  C   UNL     1     -12.492   8.246  72.388  1.00  0.00    -0.355 A  
HETATM   30  C   UNL     1     -11.251   8.266  71.719  1.00  0.00    -0.346 A  
ENDBRANCH  23  25
ENDBRANCH  22  23
ENDBRANCH   6  22
TORSDOF 4
ENDMDL
MODEL       17
REMARK 921   NORMALIZED FREE ENERGY PREDICTED BY IDOCK:   -6.86 KCAL/MOL
REMARK 922        TOTAL FREE ENERGY PREDICTED BY IDOCK:   -9.02 KCAL/MOL
REMARK 923 INTER-LIGAND FREE ENERGY PREDICTED BY IDOCK:   -8.46 KCAL/MOL
REMARK 924 INTRA-LIGAND FREE ENERGY PREDICTED BY IDOCK:   -0.56 KCAL/MOL
REMARK 927      BINDING AFFINITY PREDICTED BY RF-SCORE:    0.00 PKD
ROOT
HETATM    1  C   UNL     1     -10.366   8.693  68.066  1.00  0.00    -0.223 C  
HETATM    2  O   UNL     1     -10.416   9.331  69.364  1.00  0.00    -0.208 OA 
HETATM    3  C   UNL     1     -10.979   8.347  70.160  1.00  0.00    -0.215 A  
HETATM    4  C   UNL     1     -11.546   8.452  71.403  1.00  0.00    -0.284 A  
HETATM    5  C   UNL     1     -11.788   7.234  72.079  1.00  0.00    -0.332 A  
HETATM    6  C   UNL     1      -9.289   9.189  67.132  1.00  0.00    -0.143 C  
HETATM    7  C   UNL     1      -8.005   8.812  67.355  1.00  0.00    -0.098 C  
HETATM    8  C   UNL     1     -11.384   5.967  71.559  1.00  0.00    -0.309 A  
HETATM    9  C   UNL     1     -10.798   5.896  70.304  1.00  0.00    -0.391 A  
HETATM   10  C   UNL     1     -10.777   7.092  69.610  1.00  0.00    -0.265 A  
HETATM   11  C   UNL     1     -10.177   7.203  68.267  1.00  0.00    -0.210 C  
HETATM   12  C   UNL     1     -11.004   6.382  67.252  1.00  0.00    -0.474 C  
HETATM   13  C   UNL     1     -10.091   5.554  66.381  1.00  0.00    -0.182 C  
HETATM   14  N   UNL     1      -9.232   4.655  67.165  1.00  0.00    -0.122 NA 
HETATM   15  C   UNL     1      -8.058   4.347  66.338  1.00  0.00    -0.102 C  
HETATM   16  C   UNL     1      -8.901   5.152  68.534  1.00  0.00    -0.101 C  
HETATM   17  C   UNL     1     -10.047   4.723  69.649  1.00  0.00    -0.275 C  
HETATM   18  C   UNL     1      -8.755   6.690  68.582  1.00  0.00    -0.124 C  
HETATM   19  C   UNL     1      -7.629   7.433  67.862  1.00  0.00    -0.114 C  
ENDROOT
BRANCH   4  20
HETATM   20  O   UNL     1     -11.921   9.593  72.049  1.00  0.00    -0.332 OA 
HETATM   21  C   UNL     1     -13.262  10.047  71.883  1.00  0.00    -0.452 C  
ENDBRANCH   4  20
BRANCH   6  22
HETATM   22  O   UNL     1      -9.824   9.114  65.782  1.00  0.00    -0.286 OA 
BRANCH  22  23
HETATM   23  C   UNL     1      -9.550  10.026  64.809  1.00  0.00    -0.308 C  
HETATM   24  O   UNL     1      -8.598  10.000  64.034  1.00  0.00    -0.159 OA 
BRANCH  23  25
HETATM   25  C   UNL     1     -10.560  11.125  64.811  1.00  0.00    -0.371 A  
HETATM   26  C   UNL     1     -10.954  11.632  63.561  1.00  0.00    -0.485 A  
HETATM   27  C   UNL     1     -11.838  12.713  63.469  1.00  0.00    -0.619 A  
HETATM   28  C   UNL     1     -12.348  13.290  64.629  1.00  0.00    -0.447 A  
HETATM   29  C   UNL     1     -11.987  12.783  65.879  1.00  0.00    -0.506 A  
HETATM   30  C   UNL     1     -11.093  11.697  65.975  1.00  0.00    -0.325 A  
ENDBRANCH  23  25
ENDBRANCH  22  23
ENDBRANCH   6  22
TORSDOF 4
ENDMDL
MODEL       18
REMARK 921   NORMALIZED FREE ENERGY PREDICTED BY IDOCK:   -6.86 KCAL/MOL
REMARK 922        TOTAL FREE ENERGY PREDICTED BY IDOCK:   -9.02 KCAL/MOL
REMARK 923 INTER-LIGAND FREE ENERGY PREDICTED BY IDOCK:   -8.59 KCAL/MOL
REMARK 924 INTRA-LIGAND FREE ENERGY PREDICTED BY IDOCK:   -0.43 KCAL/MOL
REMARK 927      BINDING AFFINITY PREDICTED BY RF-SCORE:    0.00 PKD
ROOT
HETATM    1  C   UNL     1     -10.979  12.044  68.341  1.00  0.00    -0.237 C  
HETATM    2  O   UNL     1     -12.110  11.655  69.155  1.00  0.00    -0.317 OA 
HETATM    3  C   UNL     1     -12.138  12.645  70.124  1.00  0.00    -0.294 A  
HETATM    4  C   UNL     1     -12.786  12.663  71.331  1.00  0.00    -0.261 A  
HETATM    5  C   UNL     1     -12.849  13.917  71.982  1.00  0.00    -0.393 A  
HETATM    6  C   UNL     1     -11.022  11.597  66.900  1.00  0.00    -0.292 C  
HETATM    7  C   UNL     1     -11.850  12.241  66.040  1.00  0.00    -0.409 C  
HETATM    8  C   UNL     1     -12.360  15.121  71.390  1.00  0.00    -0.411 A  
HETATM    9  C   UNL     1     -11.723  15.071  70.159  1.00  0.00    -0.340 A  
HETATM   10  C   UNL     1     -11.510  13.795  69.672  1.00  0.00    -0.300 A  
HETATM   11  C   UNL     1     -10.860  13.555  68.371  1.00  0.00    -0.286 C  
HETATM   12  C   UNL     1      -9.385  14.009  68.428  1.00  0.00    -0.210 C  
HETATM   13  C   UNL     1      -9.038  14.820  67.203  1.00  0.00    -0.217 C  
HETATM   14  N   UNL     1      -9.912  15.991  67.041  1.00  0.00    -0.251 NA 
HETATM   15  C   UNL     1      -9.887  16.357  65.619  1.00  0.00    -0.187 C  
HETATM   16  C   UNL     1     -11.285  15.822  67.604  1.00  0.00    -0.246 C  
HETATM   17  C   UNL     1     -11.358  16.225  69.209  1.00  0.00    -0.288 C  
HETATM   18  C   UNL     1     -11.804  14.373  67.462  1.00  0.00    -0.418 C  
HETATM   19  C   UNL     1     -12.104  13.735  66.105  1.00  0.00    -0.477 C  
ENDROOT
BRANCH   4  20
HETATM   20  O   UNL     1     -13.356  11.609  71.982  1.00  0.00    -0.481 OA 
HETATM   21  C   UNL     1     -12.858  10.302  71.704  1.00  0.00    -0.463 C  
ENDBRANCH   4  20
BRANCH   6  22
HETATM   22  O   UNL     1      -9.652  11.325  66.495  1.00  0.00    -0.184 OA 
BRANCH  22  23
HETATM   23  C   UNL     1      -8.771  10.608  67.246  1.00  0.00    -0.129 C  
HETATM   24  O   UNL     1      -7.647  10.965  67.587  1.00  0.00    -0.094 OA 
BRANCH  23  25
HETATM   25  C   UNL     1      -9.334   9.270  67.595  1.00  0.00    -0.146 A  
HETATM   26  C   UNL     1      -9.849   8.499  66.539  1.00  0.00    -0.342 A  
HETATM   27  C   UNL     1     -10.464   7.266  66.782  1.00  0.00    -0.311 A  
HETATM   28  C   UNL     1     -10.559   6.786  68.086  1.00  0.00    -0.279 A  
HETATM   29  C   UNL     1     -10.031   7.527  69.144  1.00  0.00    -0.179 A  
HETATM   30  C   UNL     1      -9.413   8.771  68.903  1.00  0.00    -0.145 A  
ENDBRANCH  23  25
ENDBRANCH  22  23
ENDBRANCH   6  22
TORSDOF 4
ENDMDL
MODEL       19
REMARK 921   NORMALIZED FREE ENERGY PREDICTED BY IDOCK:   -6.84 KCAL/MOL
REMARK 922        TOTAL FREE ENERGY PREDICTED BY IDOCK:   -9.00 KCAL/MOL
REMARK 923 INTER-LIGAND FREE ENERGY PREDICTED BY IDOCK:   -8.05 KCAL/MOL
REMARK 924 INTRA-LIGAND FREE ENERGY PREDICTED BY IDOCK:   -0.95 KCAL/MOL
REMARK 927      BINDING AFFINITY PREDICTED BY RF-SCORE:    0.00 PKD
ROOT
HETATM    1  C   UNL     1     -10.429  10.302  67.225  1.00  0.00    -0.253 C  
HETATM    2  O   UNL     1      -9.402   9.472  66.632  1.00  0.00    -0.148 OA 
HETATM    3  C   UNL     1      -9.496   9.792  65.288  1.00  0.00    -0.279 A  
HETATM    4  C   UNL     1      -8.997   9.127  64.198  1.00  0.00    -0.008 A  
HETATM    5  C   UNL     1      -9.018   9.837  62.976  1.00  0.00    -0.271 A  
HETATM    6  C   UNL     1     -10.212  10.686  68.668  1.00  0.00    -0.182 C  
HETATM    7  C   UNL     1      -9.290  11.637  68.959  1.00  0.00     0.140 C  
HETATM    8  C   UNL     1      -9.437  11.198  62.879  1.00  0.00    -0.382 A  
HETATM    9  C   UNL     1      -9.922  11.849  64.005  1.00  0.00    -0.318 A  
HETATM   10  C   UNL     1     -10.069  11.042  65.117  1.00  0.00    -0.346 A  
HETATM   11  C   UNL     1     -10.557  11.570  66.404  1.00  0.00    -0.304 C  
HETATM   12  C   UNL     1     -12.031  12.013  66.267  1.00  0.00    -0.098 C  
HETATM   13  C   UNL     1     -12.231  13.370  66.896  1.00  0.00    -0.289 C  
HETATM   14  N   UNL     1     -11.348  14.392  66.316  1.00  0.00    -0.343 NA 
HETATM   15  C   UNL     1     -11.204  15.459  67.315  1.00  0.00    -0.270 C  
HETATM   16  C   UNL     1     -10.052  13.867  65.791  1.00  0.00    -0.320 C  
HETATM   17  C   UNL     1     -10.174  13.351  64.223  1.00  0.00    -0.137 C  
HETATM   18  C   UNL     1      -9.514  12.686  66.631  1.00  0.00    -0.244 C  
HETATM   19  C   UNL     1      -9.051  12.850  68.079  1.00  0.00    -0.211 C  
ENDROOT
BRANCH   4  20
HETATM   20  O   UNL     1      -8.505   7.856  64.157  1.00  0.00    -0.006 OA 
HETATM   21  C   UNL     1      -7.969   7.385  62.922  1.00  0.00    -0.114 C  
ENDBRANCH   4  20
BRANCH   6  22
HETATM   22  O   UNL     1     -11.522  10.754  69.295  1.00  0.00    -0.254 OA 
BRANCH  22  23
HETATM   23  C   UNL     1     -11.714  10.777  70.643  1.00  0.00    -0.342 C  
HETATM   24  O   UNL     1     -11.410   9.890  71.436  1.00  0.00    -0.364 OA 
BRANCH  23  25
HETATM   25  C   UNL     1     -12.392  12.039  71.063  1.00  0.00    -0.340 A  
HETATM   26  C   UNL     1     -11.971  13.226  70.441  1.00  0.00    -0.350 A  
HETATM   27  C   UNL     1     -12.498  14.465  70.826  1.00  0.00    -0.423 A  
HETATM   28  C   UNL     1     -13.461  14.525  71.830  1.00  0.00    -0.458 A  
HETATM   29  C   UNL     1     -13.908  13.353  72.441  1.00  0.00    -0.665 A  
HETATM   30  C   UNL     1     -13.377  12.103  72.058  1.00  0.00    -0.470 A  
ENDBRANCH  23  25
ENDBRANCH  22  23
ENDBRANCH   6  22
TORSDOF 4
ENDMDL
MODEL       20
REMARK 921   NORMALIZED FREE ENERGY PREDICTED BY IDOCK:   -6.73 KCAL/MOL
REMARK 922        TOTAL FREE ENERGY PREDICTED BY IDOCK:   -8.86 KCAL/MOL
REMARK 923 INTER-LIGAND FREE ENERGY PREDICTED BY IDOCK:   -7.89 KCAL/MOL
REMARK 924 INTRA-LIGAND FREE ENERGY PREDICTED BY IDOCK:   -0.96 KCAL/MOL
REMARK 927      BINDING AFFINITY PREDICTED BY RF-SCORE:    0.00 PKD
ROOT
HETATM    1  C   UNL     1      -7.918  15.479  66.617  1.00  0.00    -0.099 C  
HETATM    2  O   UNL     1      -6.787  16.373  66.490  1.00  0.00    -0.213 OA 
HETATM    3  C   UNL     1      -7.394  17.592  66.239  1.00  0.00    -0.320 A  
HETATM    4  C   UNL     1      -6.852  18.748  65.741  1.00  0.00    -0.270 A  
HETATM    5  C   UNL     1      -7.655  19.906  65.850  1.00  0.00    -0.334 A  
HETATM    6  C   UNL     1      -7.698  14.259  67.478  1.00  0.00    -0.191 C  
HETATM    7  C   UNL     1      -7.676  14.406  68.827  1.00  0.00    -0.139 C  
HETATM    8  C   UNL     1      -8.915  19.914  66.523  1.00  0.00    -0.442 A  
HETATM    9  C   UNL     1      -9.429  18.729  67.031  1.00  0.00    -0.322 A  
HETATM   10  C   UNL     1      -8.696  17.601  66.712  1.00  0.00    -0.277 A  
HETATM   11  C   UNL     1      -9.088  16.259  67.181  1.00  0.00    -0.217 C  
HETATM   12  C   UNL     1     -10.422  15.840  66.524  1.00  0.00    -0.304 C  
HETATM   13  C   UNL     1     -11.358  15.265  67.558  1.00  0.00    -0.297 C  
HETATM   14  N   UNL     1     -11.621  16.202  68.659  1.00  0.00    -0.348 NA 
HETATM   15  C   UNL     1     -12.034  15.402  69.820  1.00  0.00    -0.358 C  
HETATM   16  C   UNL     1     -10.506  17.156  68.940  1.00  0.00    -0.346 C  
HETATM   17  C   UNL     1     -10.600  18.521  68.007  1.00  0.00    -0.347 C  
HETATM   18  C   UNL     1      -9.116  16.522  68.703  1.00  0.00    -0.239 C  
HETATM   19  C   UNL     1      -8.575  15.380  69.564  1.00  0.00    -0.212 C  
ENDROOT
BRANCH   4  20
HETATM   20  O   UNL     1      -5.640  18.901  65.136  1.00  0.00    -0.176 OA 
HETATM   21  C   UNL     1      -5.618  19.110  63.725  1.00  0.00    -0.283 C  
ENDBRANCH   4  20
BRANCH   6  22
HETATM   22  O   UNL     1      -8.476  13.178  66.897  1.00  0.00    -0.170 OA 
BRANCH  22  23
HETATM   23  C   UNL     1      -8.321  11.868  67.236  1.00  0.00    -0.169 C  
HETATM   24  O   UNL     1      -7.482  11.094  66.786  1.00  0.00    -0.133 OA 
BRANCH  23  25
HETATM   25  C   UNL     1      -9.350  11.453  68.235  1.00  0.00    -0.187 A  
HETATM   26  C   UNL     1      -9.034  10.361  69.060  1.00  0.00    -0.184 A  
HETATM   27  C   UNL     1      -9.967   9.855  69.973  1.00  0.00    -0.302 A  
HETATM   28  C   UNL     1     -11.224  10.445  70.076  1.00  0.00    -0.385 A  
HETATM   29  C   UNL     1     -11.546  11.547  69.281  1.00  0.00    -0.388 A  
HETATM   30  C   UNL     1     -10.610  12.057  68.358  1.00  0.00    -0.236 A  
ENDBRANCH  23  25
ENDBRANCH  22  23
ENDBRANCH   6  22
TORSDOF 4
ENDMDL
MODEL       21
REMARK 921   NORMALIZED FREE ENERGY PREDICTED BY IDOCK:   -6.72 KCAL/MOL
REMARK 922        TOTAL FREE ENERGY PREDICTED BY IDOCK:   -8.84 KCAL/MOL
REMARK 923 INTER-LIGAND FREE ENERGY PREDICTED BY IDOCK:   -7.98 KCAL/MOL
REMARK 924 INTRA-LIGAND FREE ENERGY PREDICTED BY IDOCK:   -0.86 KCAL/MOL
REMARK 927      BINDING AFFINITY PREDICTED BY RF-SCORE:    0.00 PKD
ROOT
HETATM    1  C   UNL     1     -10.567  10.264  68.861  1.00  0.00    -0.219 C  
HETATM    2  O   UNL     1     -10.824  10.113  70.277  1.00  0.00    -0.282 OA 
HETATM    3  C   UNL     1     -11.090   8.759  70.392  1.00  0.00    -0.236 A  
HETATM    4  C   UNL     1     -11.686   8.072  71.418  1.00  0.00    -0.287 A  
HETATM    5  C   UNL     1     -11.576   6.664  71.368  1.00  0.00    -0.362 A  
HETATM    6  C   UNL     1      -9.664  11.410  68.475  1.00  0.00    -0.197 C  
HETATM    7  C   UNL     1      -8.330  11.293  68.694  1.00  0.00    -0.146 C  
HETATM    8  C   UNL     1     -10.812   5.982  70.372  1.00  0.00    -0.386 A  
HETATM    9  C   UNL     1     -10.207   6.707  69.355  1.00  0.00    -0.207 A  
HETATM   10  C   UNL     1     -10.523   8.054  69.343  1.00  0.00    -0.223 A  
HETATM   11  C   UNL     1      -9.957   8.977  68.342  1.00  0.00    -0.200 C  
HETATM   12  C   UNL     1     -10.491   8.620  66.936  1.00  0.00    -0.329 C  
HETATM   13  C   UNL     1      -9.362   8.603  65.935  1.00  0.00    -0.195 C  
HETATM   14  N   UNL     1      -8.293   7.668  66.313  1.00  0.00    -0.126 NA 
HETATM   15  C   UNL     1      -7.066   8.120  65.645  1.00  0.00    -0.067 C  
HETATM   16  C   UNL     1      -8.146   7.456  67.784  1.00  0.00    -0.119 C  
HETATM   17  C   UNL     1      -9.137   6.255  68.347  1.00  0.00    -0.114 C  
HETATM   18  C   UNL     1      -8.454   8.735  68.595  1.00  0.00    -0.129 C  
HETATM   19  C   UNL     1      -7.579   9.987  68.522  1.00  0.00    -0.087 C  
ENDROOT
BRANCH   4  20
HETATM   20  O   UNL     1     -12.387   8.592  72.465  1.00  0.00    -0.390 OA 
HETATM   21  C   UNL     1     -13.778   8.848  72.278  1.00  0.00    -0.471 C  
ENDBRANCH   4  20
BRANCH   6  22
HETATM   22  O   UNL     1     -10.130  11.909  67.192  1.00  0.00    -0.202 OA 
BRANCH  22  23
HETATM   23  C   UNL     1     -11.341  12.505  67.008  1.00  0.00    -0.328 C  
HETATM   24  O   UNL     1     -12.236  12.119  66.262  1.00  0.00    -0.604 OA 
BRANCH  23  25
HETATM   25  C   UNL     1     -11.451  13.750  67.824  1.00  0.00    -0.354 A  
HETATM   26  C   UNL     1     -10.901  14.922  67.278  1.00  0.00    -0.306 A  
HETATM   27  C   UNL     1     -10.891  16.119  68.004  1.00  0.00    -0.333 A  
HETATM   28  C   UNL     1     -11.443  16.157  69.281  1.00  0.00    -0.304 A  
HETATM   29  C   UNL     1     -12.015  15.008  69.830  1.00  0.00    -0.374 A  
HETATM   30  C   UNL     1     -12.024  13.800  69.103  1.00  0.00    -0.403 A  
ENDBRANCH  23  25
ENDBRANCH  22  23
ENDBRANCH   6  22
TORSDOF 4
ENDMDL
MODEL       22
REMARK 921   NORMALIZED FREE ENERGY PREDICTED BY IDOCK:   -6.68 KCAL/MOL
REMARK 922        TOTAL FREE ENERGY PREDICTED BY IDOCK:   -8.79 KCAL/MOL
REMARK 923 INTER-LIGAND FREE ENERGY PREDICTED BY IDOCK:   -7.92 KCAL/MOL
REMARK 924 INTRA-LIGAND FREE ENERGY PREDICTED BY IDOCK:   -0.87 KCAL/MOL
REMARK 927      BINDING AFFINITY PREDICTED BY RF-SCORE:    0.00 PKD
ROOT
HETATM    1  C   UNL     1     -11.015  13.742  67.495  1.00  0.00    -0.272 C  
HETATM    2  O   UNL     1     -12.024  13.819  66.460  1.00  0.00    -0.387 OA 
HETATM    3  C   UNL     1     -11.443  13.114  65.420  1.00  0.00    -0.304 A  
HETATM    4  C   UNL     1     -11.776  13.090  64.091  1.00  0.00    -0.412 A  
HETATM    5  C   UNL     1     -11.175  12.069  63.319  1.00  0.00    -0.403 A  
HETATM    6  C   UNL     1     -11.520  13.838  68.914  1.00  0.00    -0.304 C  
HETATM    7  C   UNL     1     -12.146  12.764  69.458  1.00  0.00    -0.265 C  
HETATM    8  C   UNL     1     -10.346  11.055  63.889  1.00  0.00    -0.436 A  
HETATM    9  C   UNL     1     -10.041  11.098  65.241  1.00  0.00    -0.329 A  
HETATM   10  C   UNL     1     -10.487  12.231  65.897  1.00  0.00    -0.288 A  
HETATM   11  C   UNL     1     -10.264  12.435  67.340  1.00  0.00    -0.215 C  
HETATM   12  C   UNL     1      -8.755  12.608  67.620  1.00  0.00    -0.179 C  
HETATM   13  C   UNL     1      -8.341  11.765  68.801  1.00  0.00    -0.009 C  
HETATM   14  N   UNL     1      -8.650  10.341  68.608  1.00  0.00    -0.121 NA 
HETATM   15  C   UNL     1      -8.746   9.735  69.942  1.00  0.00    -0.217 C  
HETATM   16  C   UNL     1      -9.828  10.076  67.730  1.00  0.00    -0.157 C  
HETATM   17  C   UNL     1      -9.413  10.008  66.128  1.00  0.00    -0.242 C  
HETATM   18  C   UNL     1     -10.929  11.151  67.882  1.00  0.00    -0.307 C  
HETATM   19  C   UNL     1     -11.726  11.335  69.174  1.00  0.00    -0.410 C  
ENDROOT
BRANCH   4  20
HETATM   20  O   UNL     1     -12.601  13.949  63.428  1.00  0.00    -0.853 OA 
HETATM   21  C   UNL     1     -12.527  15.335  63.754  1.00  0.00     0.548 C  
ENDBRANCH   4  20
BRANCH   6  22
HETATM   22  O   UNL     1     -10.502  14.531  69.685  1.00  0.00    -0.136 OA 
BRANCH  22  23
HETATM   23  C   UNL     1     -10.549  15.860  69.977  1.00  0.00    -0.316 C  
HETATM   24  O   UNL     1     -11.175  16.382  70.895  1.00  0.00    -0.332 OA 
BRANCH  23  25
HETATM   25  C   UNL     1      -9.747  16.648  68.995  1.00  0.00    -0.260 A  
HETATM   26  C   UNL     1      -8.399  16.286  68.835  1.00  0.00    -0.231 A  
HETATM   27  C   UNL     1      -7.552  17.017  67.993  1.00  0.00    -0.183 A  
HETATM   28  C   UNL     1      -8.051  18.113  67.293  1.00  0.00    -0.230 A  
HETATM   29  C   UNL     1      -9.394  18.472  67.422  1.00  0.00    -0.287 A  
HETATM   30  C   UNL     1     -10.249  17.739  68.272  1.00  0.00    -0.382 A  
ENDBRANCH  23  25
ENDBRANCH  22  23
ENDBRANCH   6  22
TORSDOF 4
ENDMDL
MODEL       23
REMARK 921   NORMALIZED FREE ENERGY PREDICTED BY IDOCK:   -6.68 KCAL/MOL
REMARK 922        TOTAL FREE ENERGY PREDICTED BY IDOCK:   -8.79 KCAL/MOL
REMARK 923 INTER-LIGAND FREE ENERGY PREDICTED BY IDOCK:   -7.46 KCAL/MOL
REMARK 924 INTRA-LIGAND FREE ENERGY PREDICTED BY IDOCK:   -1.33 KCAL/MOL
REMARK 927      BINDING AFFINITY PREDICTED BY RF-SCORE:    0.00 PKD
ROOT
HETATM    1  C   UNL     1     -10.535  12.912  68.459  1.00  0.00    -0.247 C  
HETATM    2  O   UNL     1     -10.933  13.585  69.676  1.00  0.00    -0.069 OA 
HETATM    3  C   UNL     1     -11.839  12.696  70.229  1.00  0.00    -0.214 A  
HETATM    4  C   UNL     1     -12.767  12.900  71.217  1.00  0.00    -0.278 A  
HETATM    5  C   UNL     1     -13.362  11.738  71.759  1.00  0.00    -0.342 A  
HETATM    6  C   UNL     1      -9.160  13.253  67.939  1.00  0.00    -0.203 C  
HETATM    7  C   UNL     1      -8.076  12.734  68.569  1.00  0.00    -0.080 C  
HETATM    8  C   UNL     1     -12.964  10.419  71.385  1.00  0.00    -0.545 A  
HETATM    9  C   UNL     1     -12.009  10.245  70.392  1.00  0.00    -0.391 A  
HETATM   10  C   UNL     1     -11.619  11.411  69.760  1.00  0.00    -0.407 A  
HETATM   11  C   UNL     1     -10.603  11.415  68.692  1.00  0.00    -0.229 C  
HETATM   12  C   UNL     1     -11.141  10.670  67.450  1.00  0.00    -0.341 C  
HETATM   13  C   UNL     1     -10.098   9.718  66.918  1.00  0.00    -0.226 C  
HETATM   14  N   UNL     1      -9.658   8.746  67.929  1.00  0.00    -0.142 NA 
HETATM   15  C   UNL     1      -8.323   8.280  67.532  1.00  0.00    -0.130 C  
HETATM   16  C   UNL     1      -9.740   9.237  69.337  1.00  0.00    -0.172 C  
HETATM   17  C   UNL     1     -11.231   8.975  70.007  1.00  0.00    -0.141 C  
HETATM   18  C   UNL     1      -9.435  10.749  69.451  1.00  0.00    -0.037 C  
HETATM   19  C   UNL     1      -8.055  11.334  69.153  1.00  0.00     0.019 C  
ENDROOT
BRANCH   4  20
HETATM   20  O   UNL     1     -13.195  14.094  71.718  1.00  0.00    -0.332 OA 
HETATM   21  C   UNL     1     -12.679  14.515  72.979  1.00  0.00    -0.396 C  
ENDBRANCH   4  20
BRANCH   6  22
HETATM   22  O   UNL     1      -9.226  13.204  66.488  1.00  0.00    -0.241 OA 
BRANCH  22  23
HETATM   23  C   UNL     1     -10.005  14.033  65.739  1.00  0.00    -0.298 C  
HETATM   24  O   UNL     1     -10.035  15.258  65.803  1.00  0.00    -0.309 OA 
BRANCH  23  25
HETATM   25  C   UNL     1     -10.880  13.251  64.816  1.00  0.00    -0.374 A  
HETATM   26  C   UNL     1     -12.260  13.269  65.076  1.00  0.00    -0.477 A  
HETATM   27  C   UNL     1     -13.147  12.505  64.308  1.00  0.00    -0.093 A  
HETATM   28  C   UNL     1     -12.661  11.723  63.264  1.00  0.00    -0.382 A  
HETATM   29  C   UNL     1     -11.295  11.712  62.976  1.00  0.00     0.035 A  
HETATM   30  C   UNL     1     -10.398  12.478  63.749  1.00  0.00    -0.418 A  
ENDBRANCH  23  25
ENDBRANCH  22  23
ENDBRANCH   6  22
TORSDOF 4
ENDMDL
MODEL       24
REMARK 921   NORMALIZED FREE ENERGY PREDICTED BY IDOCK:   -6.65 KCAL/MOL
REMARK 922        TOTAL FREE ENERGY PREDICTED BY IDOCK:   -8.76 KCAL/MOL
REMARK 923 INTER-LIGAND FREE ENERGY PREDICTED BY IDOCK:   -8.14 KCAL/MOL
REMARK 924 INTRA-LIGAND FREE ENERGY PREDICTED BY IDOCK:   -0.62 KCAL/MOL
REMARK 927      BINDING AFFINITY PREDICTED BY RF-SCORE:    0.00 PKD
ROOT
HETATM    1  C   UNL     1      -9.547   9.416  69.709  1.00  0.00    -0.201 C  
HETATM    2  O   UNL     1      -8.168   8.989  69.811  1.00  0.00    -0.108 OA 
HETATM    3  C   UNL     1      -7.993   8.860  71.178  1.00  0.00    -0.144 A  
HETATM    4  C   UNL     1      -6.834   8.775  71.903  1.00  0.00    -0.045 A  
HETATM    5  C   UNL     1      -6.974   8.376  73.252  1.00  0.00    -0.112 A  
HETATM    6  C   UNL     1     -10.251   9.061  68.422  1.00  0.00    -0.201 C  
HETATM    7  C   UNL     1     -10.644   7.778  68.224  1.00  0.00    -0.169 C  
HETATM    8  C   UNL     1      -8.226   7.986  73.818  1.00  0.00    -0.297 A  
HETATM    9  C   UNL     1      -9.380   8.069  73.052  1.00  0.00    -0.344 A  
HETATM   10  C   UNL     1      -9.208   8.659  71.814  1.00  0.00    -0.338 A  
HETATM   11  C   UNL     1     -10.324   8.814  70.863  1.00  0.00    -0.281 C  
HETATM   12  C   UNL     1     -11.363   9.807  71.429  1.00  0.00    -0.407 C  
HETATM   13  C   UNL     1     -12.758   9.254  71.267  1.00  0.00    -0.299 C  
HETATM   14  N   UNL     1     -12.920   7.944  71.913  1.00  0.00    -0.316 NA 
HETATM   15  C   UNL     1     -14.044   7.269  71.250  1.00  0.00    -0.223 C  
HETATM   16  C   UNL     1     -11.671   7.128  71.981  1.00  0.00    -0.289 C  
HETATM   17  C   UNL     1     -10.771   7.470  73.328  1.00  0.00    -0.437 C  
HETATM   18  C   UNL     1     -10.764   7.339  70.746  1.00  0.00    -0.248 C  
HETATM   19  C   UNL     1     -11.173   6.897  69.341  1.00  0.00    -0.215 C  
ENDROOT
BRANCH   4  20
HETATM   20  O   UNL     1      -5.568   9.051  71.478  1.00  0.00    -0.043 OA 
HETATM   21  C   UNL     1      -5.231  10.412  71.218  1.00  0.00    -0.088 C  
ENDBRANCH   4  20
BRANCH   6  22
HETATM   22  O   UNL     1     -11.182  10.139  68.132  1.00  0.00    -0.258 OA 
BRANCH  22  23
HETATM   23  C   UNL     1     -10.796  11.402  67.801  1.00  0.00    -0.231 C  
HETATM   24  O   UNL     1     -10.372  12.259  68.571  1.00  0.00    -0.226 OA 
BRANCH  23  25
HETATM   25  C   UNL     1     -10.982  11.650  66.340  1.00  0.00    -0.345 A  
HETATM   26  C   UNL     1     -11.861  12.684  65.976  1.00  0.00    -0.492 A  
HETATM   27  C   UNL     1     -12.155  12.938  64.631  1.00  0.00    -0.474 A  
HETATM   28  C   UNL     1     -11.561  12.166  63.636  1.00  0.00    -0.575 A  
HETATM   29  C   UNL     1     -10.667  11.151  63.979  1.00  0.00    -0.409 A  
HETATM   30  C   UNL     1     -10.371  10.890  65.333  1.00  0.00    -0.326 A  
ENDBRANCH  23  25
ENDBRANCH  22  23
ENDBRANCH   6  22
TORSDOF 4
ENDMDL
MODEL       25
REMARK 921   NORMALIZED FREE ENERGY PREDICTED BY IDOCK:   -6.64 KCAL/MOL
REMARK 922        TOTAL FREE ENERGY PREDICTED BY IDOCK:   -8.74 KCAL/MOL
REMARK 923 INTER-LIGAND FREE ENERGY PREDICTED BY IDOCK:   -7.89 KCAL/MOL
REMARK 924 INTRA-LIGAND FREE ENERGY PREDICTED BY IDOCK:   -0.86 KCAL/MOL
REMARK 927      BINDING AFFINITY PREDICTED BY RF-SCORE:    0.00 PKD
ROOT
HETATM    1  C   UNL     1     -11.167   7.062  70.411  1.00  0.00    -0.299 C  
HETATM    2  O   UNL     1     -11.523   6.143  69.352  1.00  0.00    -0.423 OA 
HETATM    3  C   UNL     1     -10.295   5.851  68.782  1.00  0.00    -0.219 A  
HETATM    4  C   UNL     1     -10.013   5.281  67.568  1.00  0.00    -0.171 A  
HETATM    5  C   UNL     1      -8.677   4.861  67.376  1.00  0.00    -0.103 A  
HETATM    6  C   UNL     1     -12.105   7.099  71.593  1.00  0.00    -0.336 C  
HETATM    7  C   UNL     1     -12.074   6.077  72.484  1.00  0.00    -0.111 C  
HETATM    8  C   UNL     1      -7.690   4.927  68.405  1.00  0.00    -0.082 A  
HETATM    9  C   UNL     1      -8.012   5.496  69.629  1.00  0.00    -0.093 A  
HETATM   10  C   UNL     1      -9.267   6.073  69.684  1.00  0.00    -0.148 A  
HETATM   11  C   UNL     1      -9.780   6.709  70.911  1.00  0.00    -0.190 C  
HETATM   12  C   UNL     1      -8.952   7.972  71.234  1.00  0.00    -0.166 C  
HETATM   13  C   UNL     1      -8.585   7.998  72.697  1.00  0.00    -0.179 C  
HETATM   14  N   UNL     1      -7.843   6.799  73.111  1.00  0.00    -0.097 NA 
HETATM   15  C   UNL     1      -8.032   6.649  74.559  1.00  0.00    -0.125 C  
HETATM   16  C   UNL     1      -8.162   5.571  72.322  1.00  0.00    -0.111 C  
HETATM   17  C   UNL     1      -7.235   5.444  70.957  1.00  0.00    -0.074 C  
HETATM   18  C   UNL     1      -9.645   5.521  71.887  1.00  0.00    -0.185 C  
HETATM   19  C   UNL     1     -10.791   5.375  72.888  1.00  0.00    -0.318 C  
ENDROOT
BRANCH   4  20
HETATM   20  O   UNL     1     -10.867   5.093  66.522  1.00  0.00    -0.258 OA 
HETATM   21  C   UNL     1     -10.392   4.367  65.391  1.00  0.00    -0.216 C  
ENDBRANCH   4  20
BRANCH   6  22
HETATM   22  O   UNL     1     -12.121   8.467  72.085  1.00  0.00    -0.336 OA 
BRANCH  22  23
HETATM   23  C   UNL     1     -13.231   9.255  72.088  1.00  0.00    -0.461 C  
HETATM   24  O   UNL     1     -14.352   8.933  72.473  1.00  0.00    -0.579 OA 
BRANCH  23  25
HETATM   25  C   UNL     1     -12.930  10.602  71.517  1.00  0.00    -0.566 A  
HETATM   26  C   UNL     1     -12.112  10.642  70.376  1.00  0.00    -0.430 A  
HETATM   27  C   UNL     1     -11.715  11.863  69.818  1.00  0.00    -0.403 A  
HETATM   28  C   UNL     1     -12.145  13.057  70.391  1.00  0.00    -0.391 A  
HETATM   29  C   UNL     1     -12.979  13.035  71.511  1.00  0.00    -0.398 A  
HETATM   30  C   UNL     1     -13.377  11.807  72.077  1.00  0.00    -0.417 A  
ENDBRANCH  23  25
ENDBRANCH  22  23
ENDBRANCH   6  22
TORSDOF 4
ENDMDL
MODEL       26
REMARK 921   NORMALIZED FREE ENERGY PREDICTED BY IDOCK:   -6.58 KCAL/MOL
REMARK 922        TOTAL FREE ENERGY PREDICTED BY IDOCK:   -8.67 KCAL/MOL
REMARK 923 INTER-LIGAND FREE ENERGY PREDICTED BY IDOCK:   -7.61 KCAL/MOL
REMARK 924 INTRA-LIGAND FREE ENERGY PREDICTED BY IDOCK:   -1.06 KCAL/MOL
REMARK 927      BINDING AFFINITY PREDICTED BY RF-SCORE:    0.00 PKD
ROOT
HETATM    1  C   UNL     1     -11.001  11.938  68.331  1.00  0.00    -0.232 C  
HETATM    2  O   UNL     1     -12.188  11.480  69.021  1.00  0.00    -0.368 OA 
HETATM    3  C   UNL     1     -12.278  12.364  70.083  1.00  0.00    -0.229 A  
HETATM    4  C   UNL     1     -13.009  12.266  71.238  1.00  0.00    -0.204 A  
HETATM    5  C   UNL     1     -13.111  13.446  72.010  1.00  0.00    -0.473 A  
HETATM    6  C   UNL     1     -10.946  11.642  66.852  1.00  0.00    -0.292 C  
HETATM    7  C   UNL     1     -11.710  12.380  66.008  1.00  0.00    -0.469 C  
HETATM    8  C   UNL     1     -12.577  14.699  71.581  1.00  0.00    -0.403 A  
HETATM    9  C   UNL     1     -11.857  14.769  70.397  1.00  0.00    -0.352 A  
HETATM   10  C   UNL     1     -11.616  13.547  69.797  1.00  0.00    -0.313 A  
HETATM   11  C   UNL     1     -10.879  13.436  68.525  1.00  0.00    -0.285 C  
HETATM   12  C   UNL     1      -9.409  13.865  68.729  1.00  0.00    -0.031 C  
HETATM   13  C   UNL     1      -8.975  14.794  67.622  1.00  0.00    -0.182 C  
HETATM   14  N   UNL     1      -9.831  15.985  67.523  1.00  0.00    -0.233 NA 
HETATM   15  C   UNL     1      -9.706  16.496  66.151  1.00  0.00    -0.317 C  
HETATM   16  C   UNL     1     -11.241  15.774  67.970  1.00  0.00    -0.338 C  
HETATM   17  C   UNL     1     -11.423  16.011  69.599  1.00  0.00    -0.326 C  
HETATM   18  C   UNL     1     -11.754  14.353  67.644  1.00  0.00    -0.421 C  
HETATM   19  C   UNL     1     -11.963  13.862  66.211  1.00  0.00    -0.462 C  
ENDROOT
BRANCH   4  20
HETATM   20  O   UNL     1     -13.626  11.157  71.736  1.00  0.00    -0.189 OA 
HETATM   21  C   UNL     1     -12.950   9.906  71.625  1.00  0.00    -0.434 C  
ENDBRANCH   4  20
BRANCH   6  22
HETATM   22  O   UNL     1      -9.554  11.397  66.515  1.00  0.00    -0.189 OA 
BRANCH  22  23
HETATM   23  C   UNL     1      -8.823  10.367  67.024  1.00  0.00    -0.136 C  
HETATM   24  O   UNL     1      -9.138   9.180  67.021  1.00  0.00    -0.121 OA 
BRANCH  23  25
HETATM   25  C   UNL     1      -7.558  10.865  67.641  1.00  0.00    -0.096 A  
HETATM   26  C   UNL     1      -7.537  10.990  69.040  1.00  0.00    -0.134 A  
HETATM   27  C   UNL     1      -6.421  11.520  69.698  1.00  0.00    -0.129 A  
HETATM   28  C   UNL     1      -5.309  11.919  68.961  1.00  0.00    -0.050 A  
HETATM   29  C   UNL     1      -5.303  11.779  67.572  1.00  0.00    -0.076 A  
HETATM   30  C   UNL     1      -6.427  11.248  66.906  1.00  0.00    -0.128 A  
ENDBRANCH  23  25
ENDBRANCH  22  23
ENDBRANCH   6  22
TORSDOF 4
ENDMDL
MODEL       27
REMARK 921   NORMALIZED FREE ENERGY PREDICTED BY IDOCK:   -6.56 KCAL/MOL
REMARK 922        TOTAL FREE ENERGY PREDICTED BY IDOCK:   -8.64 KCAL/MOL
REMARK 923 INTER-LIGAND FREE ENERGY PREDICTED BY IDOCK:   -7.39 KCAL/MOL
REMARK 924 INTRA-LIGAND FREE ENERGY PREDICTED BY IDOCK:   -1.25 KCAL/MOL
REMARK 927      BINDING AFFINITY PREDICTED BY RF-SCORE:    0.00 PKD
ROOT
HETATM    1  C   UNL     1     -11.376   8.619  72.274  1.00  0.00    -0.340 C  
HETATM    2  O   UNL     1     -12.551   9.461  72.198  1.00  0.00    -0.368 OA 
HETATM    3  C   UNL     1     -12.115  10.514  71.411  1.00  0.00    -0.282 A  
HETATM    4  C   UNL     1     -12.669  11.754  71.231  1.00  0.00    -0.316 A  
HETATM    5  C   UNL     1     -12.150  12.516  70.160  1.00  0.00    -0.368 A  
HETATM    6  C   UNL     1     -11.636   7.149  72.499  1.00  0.00    -0.226 C  
HETATM    7  C   UNL     1     -12.093   6.400  71.464  1.00  0.00    -0.289 C  
HETATM    8  C   UNL     1     -11.177  12.006  69.248  1.00  0.00    -0.291 A  
HETATM    9  C   UNL     1     -10.647  10.740  69.447  1.00  0.00    -0.254 A  
HETATM   10  C   UNL     1     -11.041  10.130  70.624  1.00  0.00    -0.397 A  
HETATM   11  C   UNL     1     -10.587   8.776  70.990  1.00  0.00    -0.293 C  
HETATM   12  C   UNL     1      -9.065   8.785  71.255  1.00  0.00    -0.300 C  
HETATM   13  C   UNL     1      -8.405   7.619  70.560  1.00  0.00    -0.126 C  
HETATM   14  N   UNL     1      -8.657   7.614  69.112  1.00  0.00    -0.138 NA 
HETATM   15  C   UNL     1      -8.487   6.231  68.648  1.00  0.00    -0.122 C  
HETATM   16  C   UNL     1      -9.950   8.240  68.706  1.00  0.00    -0.183 C  
HETATM   17  C   UNL     1      -9.812   9.875  68.486  1.00  0.00    -0.168 C  
HETATM   18  C   UNL     1     -11.070   8.001  69.744  1.00  0.00    -0.067 C  
HETATM   19  C   UNL     1     -11.644   6.613  70.031  1.00  0.00    -0.423 C  
ENDROOT
BRANCH   4  20
HETATM   20  O   UNL     1     -13.645  12.341  71.980  1.00  0.00    -0.400 OA 
HETATM   21  C   UNL     1     -13.485  13.714  72.333  1.00  0.00    -0.584 C  
ENDBRANCH   4  20
BRANCH   6  22
HETATM   22  O   UNL     1     -10.543   6.641  73.312  1.00  0.00    -0.249 OA 
BRANCH  22  23
HETATM   23  C   UNL     1     -10.325   5.316  73.541  1.00  0.00    -0.220 C  
HETATM   24  O   UNL     1     -10.923   4.609  74.346  1.00  0.00    -0.316 OA 
BRANCH  23  25
HETATM   25  C   UNL     1      -9.208   4.806  72.692  1.00  0.00    -0.143 A  
HETATM   26  C   UNL     1      -9.553   3.963  71.622  1.00  0.00    -0.232 A  
HETATM   27  C   UNL     1      -8.567   3.378  70.820  1.00  0.00    -0.114 A  
HETATM   28  C   UNL     1      -7.223   3.642  71.074  1.00  0.00    -0.033 A  
HETATM   29  C   UNL     1      -6.863   4.497  72.117  1.00  0.00    -0.050 A  
HETATM   30  C   UNL     1      -7.854   5.085  72.929  1.00  0.00    -0.098 A  
ENDBRANCH  23  25
ENDBRANCH  22  23
ENDBRANCH   6  22
TORSDOF 4
ENDMDL
MODEL       28
REMARK 921   NORMALIZED FREE ENERGY PREDICTED BY IDOCK:   -6.53 KCAL/MOL
REMARK 922        TOTAL FREE ENERGY PREDICTED BY IDOCK:   -8.62 KCAL/MOL
REMARK 923 INTER-LIGAND FREE ENERGY PREDICTED BY IDOCK:   -7.76 KCAL/MOL
REMARK 924 INTRA-LIGAND FREE ENERGY PREDICTED BY IDOCK:   -0.86 KCAL/MOL
REMARK 927      BINDING AFFINITY PREDICTED BY RF-SCORE:    0.00 PKD
ROOT
HETATM    1  C   UNL     1      -9.768  15.139  66.088  1.00  0.00    -0.310 C  
HETATM    2  O   UNL     1      -8.700  16.105  65.945  1.00  0.00    -0.328 OA 
HETATM    3  C   UNL     1      -9.162  17.177  66.690  1.00  0.00    -0.260 A  
HETATM    4  C   UNL     1      -8.740  18.480  66.694  1.00  0.00    -0.287 A  
HETATM    5  C   UNL     1      -9.218  19.284  67.754  1.00  0.00    -0.367 A  
HETATM    6  C   UNL     1      -9.366  13.690  65.956  1.00  0.00    -0.003 C  
HETATM    7  C   UNL     1      -8.708  13.098  66.984  1.00  0.00    -0.193 C  
HETATM    8  C   UNL     1     -10.014  18.765  68.820  1.00  0.00    -0.442 A  
HETATM    9  C   UNL     1     -10.412  17.436  68.795  1.00  0.00    -0.333 A  
HETATM   10  C   UNL     1     -10.086  16.759  67.634  1.00  0.00    -0.275 A  
HETATM   11  C   UNL     1     -10.418  15.336  67.443  1.00  0.00    -0.270 C  
HETATM   12  C   UNL     1     -11.951  15.158  67.370  1.00  0.00     0.036 C  
HETATM   13  C   UNL     1     -12.386  14.002  68.237  1.00  0.00     0.023 C  
HETATM   14  N   UNL     1     -11.971  14.164  69.638  1.00  0.00    -0.316 NA 
HETATM   15  C   UNL     1     -11.923  12.823  70.234  1.00  0.00    -0.280 C  
HETATM   16  C   UNL     1     -10.721  14.961  69.825  1.00  0.00    -0.204 C  
HETATM   17  C   UNL     1     -11.023  16.586  69.923  1.00  0.00    -0.273 C  
HETATM   18  C   UNL     1      -9.708  14.742  68.678  1.00  0.00    -0.225 C  
HETATM   19  C   UNL     1      -9.012  13.401  68.439  1.00  0.00    -0.136 C  
ENDROOT
BRANCH   4  20
HETATM   20  O   UNL     1      -7.931  19.092  65.782  1.00  0.00    -0.456 OA 
HETATM   21  C   UNL     1      -6.960  20.018  66.264  1.00  0.00    -0.245 C  
ENDBRANCH   4  20
BRANCH   6  22
HETATM   22  O   UNL     1     -10.478  12.992  65.331  1.00  0.00    -0.285 OA 
BRANCH  22  23
HETATM   23  C   UNL     1     -10.766  11.680  65.552  1.00  0.00    -0.281 C  
HETATM   24  O   UNL     1     -11.551  11.237  66.386  1.00  0.00    -0.300 OA 
BRANCH  23  25
HETATM   25  C   UNL     1      -9.963  10.800  64.653  1.00  0.00    -0.386 A  
HETATM   26  C   UNL     1      -9.997  11.092  63.279  1.00  0.00    -0.414 A  
HETATM   27  C   UNL     1      -9.336  10.275  62.353  1.00  0.00    -0.301 A  
HETATM   28  C   UNL     1      -8.623   9.165  62.797  1.00  0.00    -0.209 A  
HETATM   29  C   UNL     1      -8.558   8.875  64.161  1.00  0.00    -0.128 A  
HETATM   30  C   UNL     1      -9.226   9.693  65.095  1.00  0.00    -0.305 A  
ENDBRANCH  23  25
ENDBRANCH  22  23
ENDBRANCH   6  22
TORSDOF 4
ENDMDL
MODEL       29
REMARK 921   NORMALIZED FREE ENERGY PREDICTED BY IDOCK:   -6.53 KCAL/MOL
REMARK 922        TOTAL FREE ENERGY PREDICTED BY IDOCK:   -8.61 KCAL/MOL
REMARK 923 INTER-LIGAND FREE ENERGY PREDICTED BY IDOCK:   -7.24 KCAL/MOL
REMARK 924 INTRA-LIGAND FREE ENERGY PREDICTED BY IDOCK:   -1.37 KCAL/MOL
REMARK 927      BINDING AFFINITY PREDICTED BY RF-SCORE:    0.00 PKD
ROOT
HETATM    1  C   UNL     1      -9.930  12.688  68.289  1.00  0.00    -0.229 C  
HETATM    2  O   UNL     1     -10.823  11.573  68.526  1.00  0.00    -0.191 OA 
HETATM    3  C   UNL     1     -11.467  11.948  69.693  1.00  0.00    -0.266 A  
HETATM    4  C   UNL     1     -12.200  11.186  70.565  1.00  0.00    -0.384 A  
HETATM    5  C   UNL     1     -12.961  11.897  71.521  1.00  0.00    -0.427 A  
HETATM    6  C   UNL     1      -9.548  12.928  66.849  1.00  0.00    -0.240 C  
HETATM    7  C   UNL     1     -10.458  13.494  66.017  1.00  0.00    -0.299 C  
HETATM    8  C   UNL     1     -13.052  13.323  71.533  1.00  0.00    -0.414 A  
HETATM    9  C   UNL     1     -12.310  14.065  70.625  1.00  0.00    -0.446 A  
HETATM   10  C   UNL     1     -11.431  13.323  69.857  1.00  0.00    -0.170 A  
HETATM   11  C   UNL     1     -10.576  13.947  68.831  1.00  0.00    -0.228 C  
HETATM   12  C   UNL     1      -9.539  14.874  69.503  1.00  0.00    -0.027 C  
HETATM   13  C   UNL     1      -9.472  16.197  68.780  1.00  0.00    -0.230 C  
HETATM   14  N   UNL     1     -10.777  16.871  68.722  1.00  0.00    -0.341 NA 
HETATM   15  C   UNL     1     -10.739  17.790  67.577  1.00  0.00    -0.307 C  
HETATM   16  C   UNL     1     -11.951  15.948  68.726  1.00  0.00    -0.154 C  
HETATM   17  C   UNL     1     -12.434  15.555  70.260  1.00  0.00    -0.403 C  
HETATM   18  C   UNL     1     -11.664  14.628  67.973  1.00  0.00    -0.371 C  
HETATM   19  C   UNL     1     -11.421  14.577  66.465  1.00  0.00    -0.366 C  
ENDROOT
BRANCH   4  20
HETATM   20  O   UNL     1     -12.260   9.826  70.628  1.00  0.00    -0.269 OA 
HETATM   21  C   UNL     1     -11.317   9.151  71.458  1.00  0.00    -0.368 C  
ENDBRANCH   4  20
BRANCH   6  22
HETATM   22  O   UNL     1      -8.181  13.424  66.845  1.00  0.00    -0.092 OA 
BRANCH  22  23
HETATM   23  C   UNL     1      -7.143  12.780  67.447  1.00  0.00    -0.132 C  
HETATM   24  O   UNL     1      -6.795  11.619  67.253  1.00  0.00    -0.106 OA 
BRANCH  23  25
HETATM   25  C   UNL     1      -6.466  13.671  68.435  1.00  0.00    -0.095 A  
HETATM   26  C   UNL     1      -6.285  13.164  69.733  1.00  0.00    -0.108 A  
HETATM   27  C   UNL     1      -5.728  13.956  70.744  1.00  0.00    -0.199 A  
HETATM   28  C   UNL     1      -5.336  15.262  70.462  1.00  0.00    -0.134 A  
HETATM   29  C   UNL     1      -5.486  15.774  69.172  1.00  0.00    -0.102 A  
HETATM   30  C   UNL     1      -6.049  14.980  68.152  1.00  0.00    -0.144 A  
ENDBRANCH  23  25
ENDBRANCH  22  23
ENDBRANCH   6  22
TORSDOF 4
ENDMDL
MODEL       30
REMARK 921   NORMALIZED FREE ENERGY PREDICTED BY IDOCK:   -6.51 KCAL/MOL
REMARK 922        TOTAL FREE ENERGY PREDICTED BY IDOCK:   -8.58 KCAL/MOL
REMARK 923 INTER-LIGAND FREE ENERGY PREDICTED BY IDOCK:   -7.77 KCAL/MOL
REMARK 924 INTRA-LIGAND FREE ENERGY PREDICTED BY IDOCK:   -0.81 KCAL/MOL
REMARK 927      BINDING AFFINITY PREDICTED BY RF-SCORE:    0.00 PKD
ROOT
HETATM    1  C   UNL     1      -9.884  14.504  68.004  1.00  0.00    -0.222 C  
HETATM    2  O   UNL     1     -10.079  15.738  68.735  1.00  0.00    -0.203 OA 
HETATM    3  C   UNL     1      -9.997  16.694  67.736  1.00  0.00    -0.262 A  
HETATM    4  C   UNL     1      -9.808  18.048  67.841  1.00  0.00    -0.308 A  
HETATM    5  C   UNL     1     -10.040  18.799  66.666  1.00  0.00    -0.418 A  
HETATM    6  C   UNL     1     -10.510  13.274  68.614  1.00  0.00    -0.228 C  
HETATM    7  C   UNL     1     -11.853  13.107  68.517  1.00  0.00    -0.377 C  
HETATM    8  C   UNL     1     -10.536  18.216  65.461  1.00  0.00     0.049 A  
HETATM    9  C   UNL     1     -10.733  16.844  65.392  1.00  0.00    -0.161 A  
HETATM   10  C   UNL     1     -10.294  16.144  66.500  1.00  0.00    -0.311 A  
HETATM   11  C   UNL     1     -10.438  14.680  66.604  1.00  0.00    -0.278 C  
HETATM   12  C   UNL     1      -9.547  13.987  65.548  1.00  0.00    -0.032 C  
HETATM   13  C   UNL     1     -10.322  12.903  64.839  1.00  0.00    -0.308 C  
HETATM   14  N   UNL     1     -11.544  13.414  64.201  1.00  0.00    -0.396 NA 
HETATM   15  C   UNL     1     -12.463  12.278  64.055  1.00  0.00    -0.458 C  
HETATM   16  C   UNL     1     -12.144  14.604  64.875  1.00  0.00    -0.382 C  
HETATM   17  C   UNL     1     -11.493  16.026  64.333  1.00  0.00    -0.246 C  
HETATM   18  C   UNL     1     -11.965  14.562  66.410  1.00  0.00    -0.350 C  
HETATM   19  C   UNL     1     -12.647  13.514  67.290  1.00  0.00     0.266 C  
ENDROOT
BRANCH   4  20
HETATM   20  O   UNL     1      -9.402  18.745  68.940  1.00  0.00    -0.323 OA 
HETATM   21  C   UNL     1      -8.138  19.403  68.887  1.00  0.00    -0.309 C  
ENDBRANCH   4  20
BRANCH   6  22
HETATM   22  O   UNL     1      -9.634  12.153  68.313  1.00  0.00    -0.206 OA 
BRANCH  22  23
HETATM   23  C   UNL     1     -10.061  10.864  68.222  1.00  0.00    -0.174 C  
HETATM   24  O   UNL     1     -10.465  10.301  67.208  1.00  0.00    -0.221 OA 
BRANCH  23  25
HETATM   25  C   UNL     1     -10.013  10.192  69.554  1.00  0.00    -0.257 A  
HETATM   26  C   UNL     1      -8.805   9.568  69.910  1.00  0.00    -0.227 A  
HETATM   27  C   UNL     1      -8.692   8.850  71.107  1.00  0.00    -0.280 A  
HETATM   28  C   UNL     1      -9.786   8.759  71.964  1.00  0.00    -0.370 A  
HETATM   29  C   UNL     1     -10.985   9.394  71.638  1.00  0.00    -0.382 A  
HETATM   30  C   UNL     1     -11.103  10.115  70.432  1.00  0.00    -0.393 A  
ENDBRANCH  23  25
ENDBRANCH  22  23
ENDBRANCH   6  22
TORSDOF 4
ENDMDL
MODEL       31
REMARK 921   NORMALIZED FREE ENERGY PREDICTED BY IDOCK:   -6.47 KCAL/MOL
REMARK 922        TOTAL FREE ENERGY PREDICTED BY IDOCK:   -8.54 KCAL/MOL
REMARK 923 INTER-LIGAND FREE ENERGY PREDICTED BY IDOCK:   -7.52 KCAL/MOL
REMARK 924 INTRA-LIGAND FREE ENERGY PREDICTED BY IDOCK:   -1.02 KCAL/MOL
REMARK 927      BINDING AFFINITY PREDICTED BY RF-SCORE:    0.00 PKD
ROOT
HETATM    1  C   UNL     1     -11.256   6.528  71.072  1.00  0.00    -0.309 C  
HETATM    2  O   UNL     1     -10.867   5.347  71.812  1.00  0.00    -0.231 OA 
HETATM    3  C   UNL     1     -10.120   4.643  70.883  1.00  0.00    -0.187 A  
HETATM    4  C   UNL     1      -9.737   3.327  70.892  1.00  0.00    -0.117 A  
HETATM    5  C   UNL     1      -8.753   2.962  69.945  1.00  0.00    -0.126 A  
HETATM    6  C   UNL     1     -11.523   7.763  71.898  1.00  0.00    -0.275 C  
HETATM    7  C   UNL     1     -10.470   8.446  72.412  1.00  0.00    -0.402 C  
HETATM    8  C   UNL     1      -8.113   3.909  69.089  1.00  0.00    -0.065 A  
HETATM    9  C   UNL     1      -8.513   5.237  69.116  1.00  0.00    -0.098 A  
HETATM   10  C   UNL     1      -9.616   5.491  69.910  1.00  0.00    -0.217 A  
HETATM   11  C   UNL     1     -10.167   6.849  70.068  1.00  0.00    -0.211 C  
HETATM   12  C   UNL     1     -10.756   7.337  68.725  1.00  0.00    -0.168 C  
HETATM   13  C   UNL     1     -10.306   8.749  68.438  1.00  0.00    -0.204 C  
HETATM   14  N   UNL     1      -8.842   8.877  68.415  1.00  0.00    -0.134 NA 
HETATM   15  C   UNL     1      -8.525  10.283  68.695  1.00  0.00    -0.127 C  
HETATM   16  C   UNL     1      -8.121   7.902  69.286  1.00  0.00    -0.126 C  
HETATM   17  C   UNL     1      -7.820   6.470  68.510  1.00  0.00    -0.106 C  
HETATM   18  C   UNL     1      -8.905   7.577  70.578  1.00  0.00    -0.147 C  
HETATM   19  C   UNL     1      -9.158   8.616  71.670  1.00  0.00    -0.318 C  
ENDROOT
BRANCH   4  20
HETATM   20  O   UNL     1     -10.211   2.331  71.693  1.00  0.00    -0.098 OA 
HETATM   21  C   UNL     1      -9.679   2.221  73.011  1.00  0.00    -0.100 C  
ENDBRANCH   4  20
BRANCH   6  22
HETATM   22  O   UNL     1     -12.589   8.499  71.236  1.00  0.00    -0.298 OA 
BRANCH  22  23
HETATM   23  C   UNL     1     -13.412   9.374  71.876  1.00  0.00    -0.426 C  
HETATM   24  O   UNL     1     -14.314   9.087  72.658  1.00  0.00    -0.603 OA 
BRANCH  23  25
HETATM   25  C   UNL     1     -13.104  10.780  71.480  1.00  0.00    -0.517 A  
HETATM   26  C   UNL     1     -12.271  10.961  70.363  1.00  0.00    -0.453 A  
HETATM   27  C   UNL     1     -11.868  12.241  69.965  1.00  0.00    -0.372 A  
HETATM   28  C   UNL     1     -12.306  13.356  70.676  1.00  0.00    -0.423 A  
HETATM   29  C   UNL     1     -13.154  13.196  71.773  1.00  0.00    -0.478 A  
HETATM   30  C   UNL     1     -13.559  11.908  72.178  1.00  0.00    -0.188 A  
ENDBRANCH  23  25
ENDBRANCH  22  23
ENDBRANCH   6  22
TORSDOF 4
ENDMDL
MODEL       32
REMARK 921   NORMALIZED FREE ENERGY PREDICTED BY IDOCK:   -6.46 KCAL/MOL
REMARK 922        TOTAL FREE ENERGY PREDICTED BY IDOCK:   -8.53 KCAL/MOL
REMARK 923 INTER-LIGAND FREE ENERGY PREDICTED BY IDOCK:   -7.70 KCAL/MOL
REMARK 924 INTRA-LIGAND FREE ENERGY PREDICTED BY IDOCK:   -0.83 KCAL/MOL
REMARK 927      BINDING AFFINITY PREDICTED BY RF-SCORE:    0.00 PKD
ROOT
HETATM    1  C   UNL     1      -9.812   8.579  67.797  1.00  0.00    -0.175 C  
HETATM    2  O   UNL     1     -10.692   9.352  66.946  1.00  0.00    -0.205 OA 
HETATM    3  C   UNL     1      -9.907   9.576  65.827  1.00  0.00    -0.293 A  
HETATM    4  C   UNL     1     -10.074  10.486  64.816  1.00  0.00    -0.336 A  
HETATM    5  C   UNL     1      -9.264  10.297  63.673  1.00  0.00    -0.315 A  
HETATM    6  C   UNL     1     -10.491   7.654  68.777  1.00  0.00    -0.189 C  
HETATM    7  C   UNL     1     -11.040   6.502  68.315  1.00  0.00    -0.332 C  
HETATM    8  C   UNL     1      -8.390   9.178  63.520  1.00  0.00    -0.188 A  
HETATM    9  C   UNL     1      -8.256   8.266  64.556  1.00  0.00    -0.138 A  
HETATM   10  C   UNL     1      -8.914   8.616  65.721  1.00  0.00    -0.244 A  
HETATM   11  C   UNL     1      -8.892   7.756  66.917  1.00  0.00    -0.143 C  
HETATM   12  C   UNL     1      -7.460   7.692  67.494  1.00  0.00    -0.104 C  
HETATM   13  C   UNL     1      -7.089   6.266  67.819  1.00  0.00    -0.081 C  
HETATM   14  N   UNL     1      -7.194   5.379  66.651  1.00  0.00    -0.073 NA 
HETATM   15  C   UNL     1      -7.374   4.013  67.158  1.00  0.00    -0.068 C  
HETATM   16  C   UNL     1      -8.217   5.797  65.646  1.00  0.00    -0.128 C  
HETATM   17  C   UNL     1      -7.608   6.870  64.541  1.00  0.00    -0.107 C  
HETATM   18  C   UNL     1      -9.452   6.454  66.303  1.00  0.00    -0.133 C  
HETATM   19  C   UNL     1     -10.415   5.680  67.204  1.00  0.00    -0.334 C  
ENDROOT
BRANCH   4  20
HETATM   20  O   UNL     1     -10.914  11.559  64.797  1.00  0.00    -0.310 OA 
HETATM   21  C   UNL     1     -11.249  12.126  63.532  1.00  0.00    -0.458 C  
ENDBRANCH   4  20
BRANCH   6  22
HETATM   22  O   UNL     1      -9.666   7.616  69.973  1.00  0.00    -0.172 OA 
BRANCH  22  23
HETATM   23  C   UNL     1      -9.590   8.635  70.871  1.00  0.00    -0.203 C  
HETATM   24  O   UNL     1      -8.565   9.097  71.364  1.00  0.00    -0.314 OA 
BRANCH  23  25
HETATM   25  C   UNL     1     -10.953   9.129  71.231  1.00  0.00    -0.400 A  
HETATM   26  C   UNL     1     -11.348  10.364  70.690  1.00  0.00    -0.411 A  
HETATM   27  C   UNL     1     -12.577  10.940  71.032  1.00  0.00    -0.517 A  
HETATM   28  C   UNL     1     -13.429  10.278  71.913  1.00  0.00    -0.403 A  
HETATM   29  C   UNL     1     -13.063   9.038  72.440  1.00  0.00    -0.487 A  
HETATM   30  C   UNL     1     -11.824   8.457  72.100  1.00  0.00    -0.441 A  
ENDBRANCH  23  25
ENDBRANCH  22  23
ENDBRANCH   6  22
TORSDOF 4
ENDMDL
MODEL       33
REMARK 921   NORMALIZED FREE ENERGY PREDICTED BY IDOCK:   -6.42 KCAL/MOL
REMARK 922        TOTAL FREE ENERGY PREDICTED BY IDOCK:   -8.47 KCAL/MOL
REMARK 923 INTER-LIGAND FREE ENERGY PREDICTED BY IDOCK:   -7.65 KCAL/MOL
REMARK 924 INTRA-LIGAND FREE ENERGY PREDICTED BY IDOCK:   -0.82 KCAL/MOL
REMARK 927      BINDING AFFINITY PREDICTED BY RF-SCORE:    0.00 PKD
ROOT
HETATM    1  C   UNL     1      -9.870  16.219  68.355  1.00  0.00    -0.229 C  
HETATM    2  O   UNL     1     -10.285  17.258  67.436  1.00  0.00    -0.305 OA 
HETATM    3  C   UNL     1      -9.190  18.106  67.426  1.00  0.00    -0.257 A  
HETATM    4  C   UNL     1      -9.096  19.399  66.985  1.00  0.00    -0.309 A  
HETATM    5  C   UNL     1      -7.786  19.915  66.852  1.00  0.00    -0.330 A  
HETATM    6  C   UNL     1     -10.500  14.864  68.144  1.00  0.00    -0.242 C  
HETATM    7  C   UNL     1     -10.075  14.101  67.106  1.00  0.00    -0.258 C  
HETATM    8  C   UNL     1      -6.617  19.123  67.065  1.00  0.00    -0.200 A  
HETATM    9  C   UNL     1      -6.747  17.811  67.497  1.00  0.00    -0.185 A  
HETATM   10  C   UNL     1      -8.041  17.432  67.805  1.00  0.00    -0.216 A  
HETATM   11  C   UNL     1      -8.364  16.068  68.264  1.00  0.00    -0.164 C  
HETATM   12  C   UNL     1      -7.732  15.816  69.651  1.00  0.00    -0.060 C  
HETATM   13  C   UNL     1      -7.048  14.471  69.678  1.00  0.00    -0.090 C  
HETATM   14  N   UNL     1      -6.022  14.343  68.633  1.00  0.00    -0.081 NA 
HETATM   15  C   UNL     1      -5.840  12.908  68.378  1.00  0.00    -0.071 C  
HETATM   16  C   UNL     1      -6.282  15.154  67.407  1.00  0.00     0.073 C  
HETATM   17  C   UNL     1      -5.689  16.695  67.537  1.00  0.00    -0.177 C  
HETATM   18  C   UNL     1      -7.790  15.260  67.081  1.00  0.00    -0.249 C  
HETATM   19  C   UNL     1      -8.627  14.052  66.658  1.00  0.00     0.020 C  
ENDROOT
BRANCH   4  20
HETATM   20  O   UNL     1     -10.119  20.248  66.681  1.00  0.00    -0.443 OA 
HETATM   21  C   UNL     1     -10.831  20.031  65.465  1.00  0.00    -0.074 C  
ENDBRANCH   4  20
BRANCH   6  22
HETATM   22  O   UNL     1     -10.655  14.255  69.455  1.00  0.00    -0.192 OA 
BRANCH  22  23
HETATM   23  C   UNL     1     -11.820  13.710  69.901  1.00  0.00    -0.320 C  
HETATM   24  O   UNL     1     -12.351  12.685  69.484  1.00  0.00    -0.126 OA 
BRANCH  23  25
HETATM   25  C   UNL     1     -12.421  14.550  70.979  1.00  0.00    -0.412 A  
HETATM   26  C   UNL     1     -11.543  15.350  71.730  1.00  0.00    -0.501 A  
HETATM   27  C   UNL     1     -12.008  16.112  72.808  1.00  0.00    -0.638 A  
HETATM   28  C   UNL     1     -13.361  16.090  73.138  1.00  0.00    -0.624 A  
HETATM   29  C   UNL     1     -14.251  15.320  72.387  1.00  0.00    -0.579 A  
HETATM   30  C   UNL     1     -13.785  14.549  71.302  1.00  0.00    -0.407 A  
ENDBRANCH  23  25
ENDBRANCH  22  23
ENDBRANCH   6  22
TORSDOF 4
ENDMDL
MODEL       34
REMARK 921   NORMALIZED FREE ENERGY PREDICTED BY IDOCK:   -6.41 KCAL/MOL
REMARK 922        TOTAL FREE ENERGY PREDICTED BY IDOCK:   -8.46 KCAL/MOL
REMARK 923 INTER-LIGAND FREE ENERGY PREDICTED BY IDOCK:   -7.78 KCAL/MOL
REMARK 924 INTRA-LIGAND FREE ENERGY PREDICTED BY IDOCK:   -0.69 KCAL/MOL
REMARK 927      BINDING AFFINITY PREDICTED BY RF-SCORE:    0.00 PKD
ROOT
HETATM    1  C   UNL     1     -10.562  10.780  68.376  1.00  0.00    -0.197 C  
HETATM    2  O   UNL     1     -11.008  11.865  69.224  1.00  0.00    -0.220 OA 
HETATM    3  C   UNL     1     -11.818  11.217  70.141  1.00  0.00    -0.365 A  
HETATM    4  C   UNL     1     -12.749  11.738  71.001  1.00  0.00    -0.275 A  
HETATM    5  C   UNL     1     -13.223  10.863  72.005  1.00  0.00    -0.456 A  
HETATM    6  C   UNL     1      -9.233  10.985  67.692  1.00  0.00    -0.149 C  
HETATM    7  C   UNL     1      -8.096  10.866  68.424  1.00  0.00    -0.131 C  
HETATM    8  C   UNL     1     -12.706   9.545  72.191  1.00  0.00    -0.442 A  
HETATM    9  C   UNL     1     -11.751   9.053  71.312  1.00  0.00    -0.382 A  
HETATM   10  C   UNL     1     -11.482   9.876  70.235  1.00  0.00    -0.349 A  
HETATM   11  C   UNL     1     -10.484   9.517  69.211  1.00  0.00    -0.226 C  
HETATM   12  C   UNL     1     -10.963   8.281  68.418  1.00  0.00     0.171 C  
HETATM   13  C   UNL     1      -9.841   7.282  68.276  1.00  0.00    -0.154 C  
HETATM   14  N   UNL     1      -9.298   6.860  69.575  1.00  0.00    -0.148 NA 
HETATM   15  C   UNL     1      -7.930   6.382  69.338  1.00  0.00    -0.110 C  
HETATM   16  C   UNL     1      -9.409   7.885  70.656  1.00  0.00    -0.158 C  
HETATM   17  C   UNL     1     -10.860   7.806  71.448  1.00  0.00    -0.257 C  
HETATM   18  C   UNL     1      -9.249   9.326  70.117  1.00  0.00    -0.254 C  
HETATM   19  C   UNL     1      -7.934   9.845  69.534  1.00  0.00    -0.149 C  
ENDROOT
BRANCH   4  20
HETATM   20  O   UNL     1     -13.283  12.992  70.984  1.00  0.00    -0.096 OA 
HETATM   21  C   UNL     1     -13.668  13.574  72.228  1.00  0.00    -0.602 C  
ENDBRANCH   4  20
BRANCH   6  22
HETATM   22  O   UNL     1      -9.312  10.330  66.397  1.00  0.00    -0.158 OA 
BRANCH  22  23
HETATM   23  C   UNL     1      -8.974  10.933  65.224  1.00  0.00    -0.186 C  
HETATM   24  O   UNL     1      -7.914  10.802  64.617  1.00  0.00    -0.013 OA 
BRANCH  23  25
HETATM   25  C   UNL     1     -10.067  11.834  64.754  1.00  0.00    -0.302 A  
HETATM   26  C   UNL     1     -10.048  13.159  65.222  1.00  0.00    -0.250 A  
HETATM   27  C   UNL     1     -11.074  14.052  64.894  1.00  0.00    -0.378 A  
HETATM   28  C   UNL     1     -12.126  13.631  64.084  1.00  0.00    -0.484 A  
HETATM   29  C   UNL     1     -12.148  12.326  63.590  1.00  0.00    -0.648 A  
HETATM   30  C   UNL     1     -11.117  11.422  63.921  1.00  0.00    -0.410 A  
ENDBRANCH  23  25
ENDBRANCH  22  23
ENDBRANCH   6  22
TORSDOF 4
ENDMDL
MODEL       35
REMARK 921   NORMALIZED FREE ENERGY PREDICTED BY IDOCK:   -6.36 KCAL/MOL
REMARK 922        TOTAL FREE ENERGY PREDICTED BY IDOCK:   -8.40 KCAL/MOL
REMARK 923 INTER-LIGAND FREE ENERGY PREDICTED BY IDOCK:   -7.56 KCAL/MOL
REMARK 924 INTRA-LIGAND FREE ENERGY PREDICTED BY IDOCK:   -0.85 KCAL/MOL
REMARK 927      BINDING AFFINITY PREDICTED BY RF-SCORE:    0.00 PKD
ROOT
HETATM    1  C   UNL     1     -10.208  12.939  68.679  1.00  0.00    -0.160 C  
HETATM    2  O   UNL     1      -9.836  14.328  68.517  1.00  0.00    -0.223 OA 
HETATM    3  C   UNL     1      -8.455  14.263  68.455  1.00  0.00    -0.164 A  
HETATM    4  C   UNL     1      -7.529  15.264  68.603  1.00  0.00    -0.126 A  
HETATM    5  C   UNL     1      -6.206  14.946  68.219  1.00  0.00    -0.125 A  
HETATM    6  C   UNL     1     -11.578  12.561  68.169  1.00  0.00    -0.340 C  
HETATM    7  C   UNL     1     -11.768  12.444  66.831  1.00  0.00    -0.432 C  
HETATM    8  C   UNL     1      -5.853  13.699  67.620  1.00  0.00    -0.062 A  
HETATM    9  C   UNL     1      -6.817  12.712  67.469  1.00  0.00    -0.151 A  
HETATM   10  C   UNL     1      -8.037  13.006  68.050  1.00  0.00    -0.157 A  
HETATM   11  C   UNL     1      -9.179  12.078  67.974  1.00  0.00    -0.192 C  
HETATM   12  C   UNL     1      -8.868  10.793  68.773  1.00  0.00    -0.163 C  
HETATM   13  C   UNL     1      -9.244   9.572  67.969  1.00  0.00    -0.129 C  
HETATM   14  N   UNL     1      -8.562   9.526  66.668  1.00  0.00    -0.133 NA 
HETATM   15  C   UNL     1      -9.376   8.683  65.782  1.00  0.00    -0.158 C  
HETATM   16  C   UNL     1      -8.224  10.864  66.097  1.00  0.00    -0.168 C  
HETATM   17  C   UNL     1      -6.760  11.422  66.633  1.00  0.00    -0.112 C  
HETATM   18  C   UNL     1      -9.287  11.934  66.440  1.00  0.00    -0.233 C  
HETATM   19  C   UNL     1     -10.714  11.880  65.896  1.00  0.00    -0.326 C  
ENDROOT
BRANCH   4  20
HETATM   20  O   UNL     1      -7.737  16.518  69.096  1.00  0.00    -0.240 OA 
HETATM   21  C   UNL     1      -8.265  17.506  68.214  1.00  0.00    -0.263 C  
ENDBRANCH   4  20
BRANCH   6  22
HETATM   22  O   UNL     1     -12.093  11.526  69.050  1.00  0.00    -0.326 OA 
BRANCH  22  23
HETATM   23  C   UNL     1     -12.264  11.692  70.391  1.00  0.00    -0.347 C  
HETATM   24  O   UNL     1     -12.429  12.758  70.977  1.00  0.00    -0.376 OA 
BRANCH  23  25
HETATM   25  C   UNL     1     -12.195  10.381  71.102  1.00  0.00    -0.498 A  
HETATM   26  C   UNL     1     -10.918   9.833  71.307  1.00  0.00    -0.331 A  
HETATM   27  C   UNL     1     -10.762   8.573  71.897  1.00  0.00    -0.394 A  
HETATM   28  C   UNL     1     -11.885   7.854  72.300  1.00  0.00    -0.404 A  
HETATM   29  C   UNL     1     -13.160   8.395  72.127  1.00  0.00    -0.357 A  
HETATM   30  C   UNL     1     -13.321   9.662  71.529  1.00  0.00    -0.468 A  
ENDBRANCH  23  25
ENDBRANCH  22  23
ENDBRANCH   6  22
TORSDOF 4
ENDMDL
MODEL       36
REMARK 921   NORMALIZED FREE ENERGY PREDICTED BY IDOCK:   -6.33 KCAL/MOL
REMARK 922        TOTAL FREE ENERGY PREDICTED BY IDOCK:   -8.37 KCAL/MOL
REMARK 923 INTER-LIGAND FREE ENERGY PREDICTED BY IDOCK:   -7.67 KCAL/MOL
REMARK 924 INTRA-LIGAND FREE ENERGY PREDICTED BY IDOCK:   -0.70 KCAL/MOL
REMARK 927      BINDING AFFINITY PREDICTED BY RF-SCORE:    0.00 PKD
ROOT
HETATM    1  C   UNL     1     -10.089  16.538  68.370  1.00  0.00    -0.255 C  
HETATM    2  O   UNL     1     -10.482  17.547  67.409  1.00  0.00    -0.341 OA 
HETATM    3  C   UNL     1      -9.316  18.275  67.243  1.00  0.00    -0.256 A  
HETATM    4  C   UNL     1      -9.137  19.518  66.695  1.00  0.00    -0.351 A  
HETATM    5  C   UNL     1      -7.801  19.886  66.417  1.00  0.00    -0.335 A  
HETATM    6  C   UNL     1     -10.863  15.244  68.317  1.00  0.00    -0.262 C  
HETATM    7  C   UNL     1     -10.608  14.370  67.311  1.00  0.00    -0.279 C  
HETATM    8  C   UNL     1      -6.699  18.995  66.596  1.00  0.00    -0.207 A  
HETATM    9  C   UNL     1      -6.916  17.736  67.138  1.00  0.00    -0.196 A  
HETATM   10  C   UNL     1      -8.208  17.514  67.579  1.00  0.00    -0.213 A  
HETATM   11  C   UNL     1      -8.619  16.227  68.168  1.00  0.00    -0.183 C  
HETATM   12  C   UNL     1      -7.894  16.008  69.515  1.00  0.00    -0.065 C  
HETATM   13  C   UNL     1      -7.343  14.605  69.592  1.00  0.00    -0.064 C  
HETATM   14  N   UNL     1      -6.431  14.300  68.480  1.00  0.00    -0.088 NA 
HETATM   15  C   UNL     1      -6.412  12.840  68.324  1.00  0.00    -0.083 C  
HETATM   16  C   UNL     1      -6.719  15.046  67.219  1.00  0.00     0.050 C  
HETATM   17  C   UNL     1      -5.971  16.523  67.179  1.00  0.00    -0.186 C  
HETATM   18  C   UNL     1      -8.232  15.283  67.009  1.00  0.00    -0.267 C  
HETATM   19  C   UNL     1      -9.216  14.141  66.752  1.00  0.00    -0.282 C  
ENDROOT
BRANCH   4  20
HETATM   20  O   UNL     1     -10.096  20.444  66.411  1.00  0.00    -0.404 OA 
HETATM   21  C   UNL     1     -11.018  20.153  65.363  1.00  0.00     0.194 C  
ENDBRANCH   4  20
BRANCH   6  22
HETATM   22  O   UNL     1     -10.959  14.746  69.680  1.00  0.00    -0.265 OA 
BRANCH  22  23
HETATM   23  C   UNL     1     -12.138  14.556  70.333  1.00  0.00    -0.322 C  
HETATM   24  O   UNL     1     -12.916  15.431  70.703  1.00  0.00    -0.435 OA 
BRANCH  23  25
HETATM   25  C   UNL     1     -12.375  13.104  70.590  1.00  0.00    -0.405 A  
HETATM   26  C   UNL     1     -13.177  12.775  71.696  1.00  0.00    -0.410 A  
HETATM   27  C   UNL     1     -13.391  11.440  72.057  1.00  0.00    -0.388 A  
HETATM   28  C   UNL     1     -12.813  10.419  71.306  1.00  0.00    -0.533 A  
HETATM   29  C   UNL     1     -12.035  10.728  70.190  1.00  0.00    -0.432 A  
HETATM   30  C   UNL     1     -11.814  12.072  69.825  1.00  0.00    -0.401 A  
ENDBRANCH  23  25
ENDBRANCH  22  23
ENDBRANCH   6  22
TORSDOF 4
ENDMDL
MODEL       37
REMARK 921   NORMALIZED FREE ENERGY PREDICTED BY IDOCK:   -6.32 KCAL/MOL
REMARK 922        TOTAL FREE ENERGY PREDICTED BY IDOCK:   -8.36 KCAL/MOL
REMARK 923 INTER-LIGAND FREE ENERGY PREDICTED BY IDOCK:   -7.71 KCAL/MOL
REMARK 924 INTRA-LIGAND FREE ENERGY PREDICTED BY IDOCK:   -0.65 KCAL/MOL
REMARK 927      BINDING AFFINITY PREDICTED BY RF-SCORE:    0.00 PKD
ROOT
HETATM    1  C   UNL     1     -10.524   7.132  70.611  1.00  0.00    -0.210 C  
HETATM    2  O   UNL     1      -9.975   6.319  71.674  1.00  0.00    -0.178 OA 
HETATM    3  C   UNL     1      -9.879   5.072  71.080  1.00  0.00    -0.198 A  
HETATM    4  C   UNL     1      -9.712   3.841  71.660  1.00  0.00    -0.168 A  
HETATM    5  C   UNL     1      -9.378   2.783  70.784  1.00  0.00    -0.221 A  
HETATM    6  C   UNL     1     -10.191   8.603  70.669  1.00  0.00    -0.198 C  
HETATM    7  C   UNL     1      -8.943   9.005  70.318  1.00  0.00    -0.221 C  
HETATM    8  C   UNL     1      -9.128   2.980  69.392  1.00  0.00    -0.198 A  
HETATM    9  C   UNL     1      -9.290   4.242  68.838  1.00  0.00    -0.222 A  
HETATM   10  C   UNL     1      -9.816   5.186  69.700  1.00  0.00    -0.286 A  
HETATM   11  C   UNL     1     -10.040   6.583  69.284  1.00  0.00    -0.192 C  
HETATM   12  C   UNL     1     -11.147   6.639  68.207  1.00  0.00    -0.283 C  
HETATM   13  C   UNL     1     -10.722   7.531  67.065  1.00  0.00    -0.297 C  
HETATM   14  N   UNL     1      -9.456   7.096  66.456  1.00  0.00    -0.172 NA 
HETATM   15  C   UNL     1      -8.867   8.269  65.798  1.00  0.00    -0.155 C  
HETATM   16  C   UNL     1      -8.530   6.388  67.390  1.00  0.00    -0.108 C  
HETATM   17  C   UNL     1      -8.835   4.763  67.463  1.00  0.00    -0.108 C  
HETATM   18  C   UNL     1      -8.610   6.944  68.830  1.00  0.00    -0.131 C  
HETATM   19  C   UNL     1      -8.157   8.359  69.192  1.00  0.00    -0.119 C  
ENDROOT
BRANCH   4  20
HETATM   20  O   UNL     1      -9.852   3.521  72.977  1.00  0.00    -0.125 OA 
HETATM   21  C   UNL     1     -11.085   3.843  73.617  1.00  0.00    -0.240 C  
ENDBRANCH   4  20
BRANCH   6  22
HETATM   22  O   UNL     1     -11.340   9.324  70.148  1.00  0.00    -0.240 OA 
BRANCH  22  23
HETATM   23  C   UNL     1     -12.390   9.727  70.915  1.00  0.00    -0.290 C  
HETATM   24  O   UNL     1     -13.208   8.999  71.469  1.00  0.00    -0.334 OA 
BRANCH  23  25
HETATM   25  C   UNL     1     -12.458  11.217  70.983  1.00  0.00    -0.503 A  
HETATM   26  C   UNL     1     -13.179  11.775  72.053  1.00  0.00    -0.460 A  
HETATM   27  C   UNL     1     -13.359  13.159  72.155  1.00  0.00    -0.621 A  
HETATM   28  C   UNL     1     -12.809  14.001  71.192  1.00  0.00    -0.427 A  
HETATM   29  C   UNL     1     -12.069  13.465  70.136  1.00  0.00    -0.415 A  
HETATM   30  C   UNL     1     -11.888  12.071  70.028  1.00  0.00    -0.392 A  
ENDBRANCH  23  25
ENDBRANCH  22  23
ENDBRANCH   6  22
TORSDOF 4
ENDMDL
MODEL       38
REMARK 921   NORMALIZED FREE ENERGY PREDICTED BY IDOCK:   -6.32 KCAL/MOL
REMARK 922        TOTAL FREE ENERGY PREDICTED BY IDOCK:   -8.35 KCAL/MOL
REMARK 923 INTER-LIGAND FREE ENERGY PREDICTED BY IDOCK:   -7.69 KCAL/MOL
REMARK 924 INTRA-LIGAND FREE ENERGY PREDICTED BY IDOCK:   -0.66 KCAL/MOL
REMARK 927      BINDING AFFINITY PREDICTED BY RF-SCORE:    0.00 PKD
ROOT
HETATM    1  C   UNL     1     -10.232   9.110  69.111  1.00  0.00    -0.207 C  
HETATM    2  O   UNL     1     -10.532  10.323  69.842  1.00  0.00    -0.257 OA 
HETATM    3  C   UNL     1     -11.639   9.957  70.590  1.00  0.00    -0.335 A  
HETATM    4  C   UNL     1     -12.546  10.748  71.245  1.00  0.00    -0.426 A  
HETATM    5  C   UNL     1     -13.410  10.085  72.147  1.00  0.00    -0.469 A  
HETATM    6  C   UNL     1      -8.792   8.930  68.699  1.00  0.00    -0.137 C  
HETATM    7  C   UNL     1      -7.882   8.575  69.641  1.00  0.00    -0.095 C  
HETATM    8  C   UNL     1     -13.295   8.693  72.446  1.00  0.00    -0.383 A  
HETATM    9  C   UNL     1     -12.355   7.923  71.777  1.00  0.00    -0.352 A  
HETATM   10  C   UNL     1     -11.685   8.583  70.764  1.00  0.00    -0.228 A  
HETATM   11  C   UNL     1     -10.641   7.923  69.960  1.00  0.00    -0.242 C  
HETATM   12  C   UNL     1     -11.268   6.800  69.103  1.00  0.00    -0.236 C  
HETATM   13  C   UNL     1     -10.436   5.544  69.195  1.00  0.00    -0.244 C  
HETATM   14  N   UNL     1     -10.274   5.080  70.581  1.00  0.00    -0.245 NA 
HETATM   15  C   UNL     1      -9.057   4.259  70.622  1.00  0.00    -0.112 C  
HETATM   16  C   UNL     1     -10.315   6.165  71.606  1.00  0.00    -0.216 C  
HETATM   17  C   UNL     1     -11.859   6.502  72.100  1.00  0.00    -0.348 C  
HETATM   18  C   UNL     1      -9.689   7.482  71.093  1.00  0.00    -0.168 C  
HETATM   19  C   UNL     1      -8.200   7.616  70.773  1.00  0.00    -0.109 C  
ENDROOT
BRANCH   4  20
HETATM   20  O   UNL     1     -12.724  12.093  71.109  1.00  0.00    -0.358 OA 
HETATM   21  C   UNL     1     -13.415  12.786  72.146  1.00  0.00    -0.492 C  
ENDBRANCH   4  20
BRANCH   6  22
HETATM   22  O   UNL     1      -8.795   8.238  67.421  1.00  0.00    -0.129 OA 
BRANCH  22  23
HETATM   23  C   UNL     1      -7.952   8.541  66.396  1.00  0.00    -0.099 C  
HETATM   24  O   UNL     1      -6.757   8.266  66.331  1.00  0.00    -0.060 OA 
BRANCH  23  25
HETATM   25  C   UNL     1      -8.664   9.306  65.330  1.00  0.00    -0.214 A  
HETATM   26  C   UNL     1      -8.243   9.097  64.006  1.00  0.00    -0.168 A  
HETATM   27  C   UNL     1      -8.802   9.827  62.950  1.00  0.00    -0.255 A  
HETATM   28  C   UNL     1      -9.797  10.766  63.209  1.00  0.00    -0.394 A  
HETATM   29  C   UNL     1     -10.244  10.968  64.515  1.00  0.00    -0.406 A  
HETATM   30  C   UNL     1      -9.681  10.237  65.582  1.00  0.00    -0.308 A  
ENDBRANCH  23  25
ENDBRANCH  22  23
ENDBRANCH   6  22
TORSDOF 4
ENDMDL
MODEL       39
REMARK 921   NORMALIZED FREE ENERGY PREDICTED BY IDOCK:   -6.31 KCAL/MOL
REMARK 922        TOTAL FREE ENERGY PREDICTED BY IDOCK:   -8.34 KCAL/MOL
REMARK 923 INTER-LIGAND FREE ENERGY PREDICTED BY IDOCK:   -7.76 KCAL/MOL
REMARK 924 INTRA-LIGAND FREE ENERGY PREDICTED BY IDOCK:   -0.58 KCAL/MOL
REMARK 927      BINDING AFFINITY PREDICTED BY RF-SCORE:    0.00 PKD
ROOT
HETATM    1  C   UNL     1     -10.418  10.626  67.337  1.00  0.00    -0.235 C  
HETATM    2  O   UNL     1      -9.269   9.751  67.243  1.00  0.00    -0.134 OA 
HETATM    3  C   UNL     1      -9.237   9.441  65.894  1.00  0.00    -0.213 A  
HETATM    4  C   UNL     1      -8.569   8.433  65.248  1.00  0.00    -0.150 A  
HETATM    5  C   UNL     1      -8.510   8.532  63.839  1.00  0.00    -0.036 A  
HETATM    6  C   UNL     1     -10.395  11.623  68.469  1.00  0.00    -0.212 C  
HETATM    7  C   UNL     1      -9.589  12.710  68.367  1.00  0.00    -0.173 C  
HETATM    8  C   UNL     1      -9.022   9.654  63.120  1.00  0.00    -0.253 A  
HETATM    9  C   UNL     1      -9.680  10.666  63.805  1.00  0.00    -0.382 A  
HETATM   10  C   UNL     1      -9.886  10.412  65.148  1.00  0.00    -0.378 A  
HETATM   11  C   UNL     1     -10.554  11.385  66.032  1.00  0.00    -0.319 C  
HETATM   12  C   UNL     1     -12.034  11.542  65.616  1.00  0.00     0.568 C  
HETATM   13  C   UNL     1     -12.410  13.003  65.562  1.00  0.00    -0.472 C  
HETATM   14  N   UNL     1     -11.552  13.769  64.647  1.00  0.00    -0.362 NA 
HETATM   15  C   UNL     1     -11.606  15.173  65.075  1.00  0.00    -0.294 C  
HETATM   16  C   UNL     1     -10.168  13.228  64.496  1.00  0.00    -0.310 C  
HETATM   17  C   UNL     1     -10.073  12.071  63.316  1.00  0.00    -0.379 C  
HETATM   18  C   UNL     1      -9.635  12.605  65.806  1.00  0.00    -0.117 C  
HETATM   19  C   UNL     1      -9.351  13.437  67.057  1.00  0.00    -0.243 C  
ENDROOT
BRANCH   4  20
HETATM   20  O   UNL     1      -7.976   7.341  65.808  1.00  0.00    -0.108 OA 
HETATM   21  C   UNL     1      -8.815   6.272  66.241  1.00  0.00    -0.147 C  
ENDBRANCH   4  20
BRANCH   6  22
HETATM   22  O   UNL     1     -11.767  11.799  68.914  1.00  0.00    -0.276 OA 
BRANCH  22  23
HETATM   23  C   UNL     1     -12.126  11.932  70.221  1.00  0.00    -0.325 C  
HETATM   24  O   UNL     1     -12.328  12.986  70.817  1.00  0.00    -0.363 OA 
BRANCH  23  25
HETATM   25  C   UNL     1     -12.220  10.598  70.885  1.00  0.00    -0.497 A  
HETATM   26  C   UNL     1     -13.470  10.234  71.412  1.00  0.00    -0.303 A  
HETATM   27  C   UNL     1     -13.633   9.036  72.118  1.00  0.00    -0.523 A  
HETATM   28  C   UNL     1     -12.545   8.184  72.293  1.00  0.00    -0.314 A  
HETATM   29  C   UNL     1     -11.301   8.518  71.755  1.00  0.00    -0.377 A  
HETATM   30  C   UNL     1     -11.134   9.726  71.046  1.00  0.00    -0.431 A  
ENDBRANCH  23  25
ENDBRANCH  22  23
ENDBRANCH   6  22
TORSDOF 4
ENDMDL
MODEL       40
REMARK 921   NORMALIZED FREE ENERGY PREDICTED BY IDOCK:   -6.30 KCAL/MOL
REMARK 922        TOTAL FREE ENERGY PREDICTED BY IDOCK:   -8.33 KCAL/MOL
REMARK 923 INTER-LIGAND FREE ENERGY PREDICTED BY IDOCK:   -7.34 KCAL/MOL
REMARK 924 INTRA-LIGAND FREE ENERGY PREDICTED BY IDOCK:   -0.99 KCAL/MOL
REMARK 927      BINDING AFFINITY PREDICTED BY RF-SCORE:    0.00 PKD
ROOT
HETATM    1  C   UNL     1     -10.303   8.450  68.284  1.00  0.00    -0.199 C  
HETATM    2  O   UNL     1      -9.547   7.219  68.187  1.00  0.00    -0.139 OA 
HETATM    3  C   UNL     1      -9.184   7.195  66.851  1.00  0.00    -0.148 A  
HETATM    4  C   UNL     1      -8.718   6.151  66.095  1.00  0.00    -0.148 A  
HETATM    5  C   UNL     1      -8.175   6.492  64.835  1.00  0.00    -0.097 A  
HETATM    6  C   UNL     1     -10.317   9.106  69.643  1.00  0.00    -0.219 C  
HETATM    7  C   UNL     1      -9.208   9.766  70.062  1.00  0.00    -0.266 C  
HETATM    8  C   UNL     1      -8.022   7.844  64.399  1.00  0.00    -0.132 A  
HETATM    9  C   UNL     1      -8.488   8.879  65.195  1.00  0.00    -0.190 A  
HETATM   10  C   UNL     1      -9.192   8.472  66.314  1.00  0.00    -0.262 A  
HETATM   11  C   UNL     1      -9.746   9.439  67.280  1.00  0.00    -0.215 C  
HETATM   12  C   UNL     1     -10.868  10.265  66.612  1.00  0.00    -0.115 C  
HETATM   13  C   UNL     1     -10.697  11.731  66.926  1.00  0.00    -0.250 C  
HETATM   14  N   UNL     1      -9.385  12.244  66.506  1.00  0.00    -0.228 NA 
HETATM   15  C   UNL     1      -9.104  13.433  67.321  1.00  0.00    -0.222 C  
HETATM   16  C   UNL     1      -8.291  11.227  66.510  1.00  0.00    -0.168 C  
HETATM   17  C   UNL     1      -8.209  10.388  65.085  1.00  0.00    -0.158 C  
HETATM   18  C   UNL     1      -8.453  10.196  67.651  1.00  0.00    -0.118 C  
HETATM   19  C   UNL     1      -8.330  10.575  69.127  1.00  0.00    -0.154 C  
ENDROOT
BRANCH   4  20
HETATM   20  O   UNL     1      -8.740   4.825  66.410  1.00  0.00    -0.113 OA 
HETATM   21  C   UNL     1     -10.003   4.165  66.443  1.00  0.00    -0.155 C  
ENDBRANCH   4  20
BRANCH   6  22
HETATM   22  O   UNL     1     -11.618   9.735  69.802  1.00  0.00    -0.160 OA 
BRANCH  22  23
HETATM   23  C   UNL     1     -12.141  10.098  71.005  1.00  0.00    -0.377 C  
HETATM   24  O   UNL     1     -12.357   9.354  71.959  1.00  0.00    -0.366 OA 
BRANCH  23  25
HETATM   25  C   UNL     1     -12.466  11.554  71.028  1.00  0.00    -0.458 A  
HETATM   26  C   UNL     1     -11.887  12.353  70.027  1.00  0.00    -0.363 A  
HETATM   27  C   UNL     1     -12.075  13.740  70.015  1.00  0.00    -0.416 A  
HETATM   28  C   UNL     1     -12.856  14.340  70.999  1.00  0.00    -0.427 A  
HETATM   29  C   UNL     1     -13.459  13.559  71.987  1.00  0.00    -0.584 A  
HETATM   30  C   UNL     1     -13.268  12.162  72.004  1.00  0.00    -0.496 A  
ENDBRANCH  23  25
ENDBRANCH  22  23
ENDBRANCH   6  22
TORSDOF 4
ENDMDL
MODEL       41
REMARK 921   NORMALIZED FREE ENERGY PREDICTED BY IDOCK:   -6.30 KCAL/MOL
REMARK 922        TOTAL FREE ENERGY PREDICTED BY IDOCK:   -8.33 KCAL/MOL
REMARK 923 INTER-LIGAND FREE ENERGY PREDICTED BY IDOCK:   -7.78 KCAL/MOL
REMARK 924 INTRA-LIGAND FREE ENERGY PREDICTED BY IDOCK:   -0.55 KCAL/MOL
REMARK 927      BINDING AFFINITY PREDICTED BY RF-SCORE:    0.00 PKD
ROOT
HETATM    1  C   UNL     1      -9.463  11.103  67.185  1.00  0.00    -0.172 C  
HETATM    2  O   UNL     1      -8.889  10.970  65.863  1.00  0.00    -0.188 OA 
HETATM    3  C   UNL     1      -9.935  11.357  65.042  1.00  0.00    -0.266 A  
HETATM    4  C   UNL     1     -10.102  11.162  63.696  1.00  0.00    -0.379 A  
HETATM    5  C   UNL     1     -11.138  11.906  63.085  1.00  0.00    -0.267 A  
HETATM    6  C   UNL     1      -8.484  11.372  68.302  1.00  0.00    -0.154 C  
HETATM    7  C   UNL     1      -7.951  12.614  68.420  1.00  0.00    -0.134 C  
HETATM    8  C   UNL     1     -11.910  12.879  63.789  1.00  0.00    -0.571 A  
HETATM    9  C   UNL     1     -11.705  13.065  65.149  1.00  0.00    -0.379 A  
HETATM   10  C   UNL     1     -10.827  12.167  65.727  1.00  0.00    -0.319 A  
HETATM   11  C   UNL     1     -10.480  12.227  67.158  1.00  0.00    -0.238 C  
HETATM   12  C   UNL     1     -11.722  11.891  68.015  1.00  0.00    -0.382 C  
HETATM   13  C   UNL     1     -11.865  12.884  69.142  1.00  0.00    -0.303 C  
HETATM   14  N   UNL     1     -11.953  14.270  68.661  1.00  0.00    -0.332 NA 
HETATM   15  C   UNL     1     -11.526  15.140  69.764  1.00  0.00    -0.297 C  
HETATM   16  C   UNL     1     -11.243  14.524  67.371  1.00  0.00    -0.327 C  
HETATM   17  C   UNL     1     -12.198  14.205  66.057  1.00  0.00    -0.464 C  
HETATM   18  C   UNL     1      -9.957  13.678  67.232  1.00  0.00    -0.240 C  
HETATM   19  C   UNL     1      -8.738  13.878  68.132  1.00  0.00    -0.182 C  
ENDROOT
BRANCH   4  20
HETATM   20  O   UNL     1      -9.399  10.319  62.887  1.00  0.00    -0.274 OA 
HETATM   21  C   UNL     1      -8.694   9.240  63.496  1.00  0.00    -0.169 C  
ENDBRANCH   4  20
BRANCH   6  22
HETATM   22  O   UNL     1      -8.995  10.705  69.489  1.00  0.00    -0.104 OA 
BRANCH  22  23
HETATM   23  C   UNL     1      -8.337   9.704  70.135  1.00  0.00    -0.198 C  
HETATM   24  O   UNL     1      -7.398   9.834  70.916  1.00  0.00    -0.321 OA 
BRANCH  23  25
HETATM   25  C   UNL     1      -8.885   8.370  69.747  1.00  0.00    -0.134 A  
HETATM   26  C   UNL     1     -10.258   8.159  69.956  1.00  0.00    -0.202 A  
HETATM   27  C   UNL     1     -10.843   6.915  69.692  1.00  0.00    -0.294 A  
HETATM   28  C   UNL     1     -10.059   5.872  69.204  1.00  0.00    -0.244 A  
HETATM   29  C   UNL     1      -8.698   6.072  68.967  1.00  0.00    -0.122 A  
HETATM   30  C   UNL     1      -8.105   7.323  69.235  1.00  0.00    -0.124 A  
ENDBRANCH  23  25
ENDBRANCH  22  23
ENDBRANCH   6  22
TORSDOF 4
ENDMDL
MODEL       42
REMARK 921   NORMALIZED FREE ENERGY PREDICTED BY IDOCK:   -6.29 KCAL/MOL
REMARK 922        TOTAL FREE ENERGY PREDICTED BY IDOCK:   -8.32 KCAL/MOL
REMARK 923 INTER-LIGAND FREE ENERGY PREDICTED BY IDOCK:   -7.56 KCAL/MOL
REMARK 924 INTRA-LIGAND FREE ENERGY PREDICTED BY IDOCK:   -0.76 KCAL/MOL
REMARK 927      BINDING AFFINITY PREDICTED BY RF-SCORE:    0.00 PKD
ROOT
HETATM    1  C   UNL     1     -10.823  11.489  68.226  1.00  0.00    -0.216 C  
HETATM    2  O   UNL     1     -11.015  11.363  69.656  1.00  0.00    -0.207 OA 
HETATM    3  C   UNL     1     -11.200  10.000  69.814  1.00  0.00    -0.258 A  
HETATM    4  C   UNL     1     -11.716   9.310  70.881  1.00  0.00    -0.296 A  
HETATM    5  C   UNL     1     -11.529   7.909  70.862  1.00  0.00    -0.294 A  
HETATM    6  C   UNL     1     -10.001  12.672  67.776  1.00  0.00    -0.218 C  
HETATM    7  C   UNL     1      -8.655  12.635  67.943  1.00  0.00    -0.181 C  
HETATM    8  C   UNL     1     -10.768   7.244  69.853  1.00  0.00    -0.257 A  
HETATM    9  C   UNL     1     -10.246   7.973  68.795  1.00  0.00    -0.220 A  
HETATM   10  C   UNL     1     -10.636   9.299  68.761  1.00  0.00    -0.220 A  
HETATM   11  C   UNL     1     -10.163  10.224  67.715  1.00  0.00    -0.225 C  
HETATM   12  C   UNL     1     -10.731   9.800  66.342  1.00  0.00    -0.013 C  
HETATM   13  C   UNL     1      -9.642   9.818  65.297  1.00  0.00    -0.300 C  
HETATM   14  N   UNL     1      -8.509   8.953  65.654  1.00  0.00    -0.147 NA 
HETATM   15  C   UNL     1      -7.336   9.454  64.925  1.00  0.00    -0.106 C  
HETATM   16  C   UNL     1      -8.292   8.790  67.123  1.00  0.00    -0.103 C  
HETATM   17  C   UNL     1      -9.192   7.553  67.755  1.00  0.00    -0.139 C  
HETATM   18  C   UNL     1      -8.639  10.072  67.914  1.00  0.00    -0.121 C  
HETATM   19  C   UNL     1      -7.839  11.368  67.773  1.00  0.00    -0.117 C  
ENDROOT
BRANCH   4  20
HETATM   20  O   UNL     1     -12.404   9.819  71.942  1.00  0.00    -0.377 OA 
HETATM   21  C   UNL     1     -13.619   9.177  72.323  1.00  0.00    -0.489 C  
ENDBRANCH   4  20
BRANCH   6  22
HETATM   22  O   UNL     1     -10.545  13.110  66.501  1.00  0.00    -0.279 OA 
BRANCH  22  23
HETATM   23  C   UNL     1     -11.517  14.056  66.379  1.00  0.00    -0.352 C  
HETATM   24  O   UNL     1     -12.649  13.883  65.937  1.00  0.00    -0.478 OA 
BRANCH  23  25
HETATM   25  C   UNL     1     -11.021  15.390  66.830  1.00  0.00    -0.282 A  
HETATM   26  C   UNL     1     -10.287  16.145  65.900  1.00  0.00    -0.384 A  
HETATM   27  C   UNL     1      -9.720  17.374  66.259  1.00  0.00    -0.276 A  
HETATM   28  C   UNL     1      -9.892  17.863  67.551  1.00  0.00    -0.309 A  
HETATM   29  C   UNL     1     -10.639  17.137  68.480  1.00  0.00    -0.361 A  
HETATM   30  C   UNL     1     -11.210  15.898  68.122  1.00  0.00    -0.339 A  
ENDBRANCH  23  25
ENDBRANCH  22  23
ENDBRANCH   6  22
TORSDOF 4
ENDMDL
MODEL       43
REMARK 921   NORMALIZED FREE ENERGY PREDICTED BY IDOCK:   -6.29 KCAL/MOL
REMARK 922        TOTAL FREE ENERGY PREDICTED BY IDOCK:   -8.31 KCAL/MOL
REMARK 923 INTER-LIGAND FREE ENERGY PREDICTED BY IDOCK:   -7.24 KCAL/MOL
REMARK 924 INTRA-LIGAND FREE ENERGY PREDICTED BY IDOCK:   -1.08 KCAL/MOL
REMARK 927      BINDING AFFINITY PREDICTED BY RF-SCORE:    0.00 PKD
ROOT
HETATM    1  C   UNL     1     -10.121   9.849  66.602  1.00  0.00    -0.233 C  
HETATM    2  O   UNL     1     -10.819  10.495  65.511  1.00  0.00    -0.048 OA 
HETATM    3  C   UNL     1     -11.133  11.733  66.046  1.00  0.00    -0.312 A  
HETATM    4  C   UNL     1     -12.038  12.665  65.610  1.00  0.00    -0.443 A  
HETATM    5  C   UNL     1     -11.944  13.945  66.203  1.00  0.00    -0.449 A  
HETATM    6  C   UNL     1      -9.120   8.790  66.208  1.00  0.00    -0.193 C  
HETATM    7  C   UNL     1      -7.928   9.178  65.689  1.00  0.00    -0.107 C  
HETATM    8  C   UNL     1     -10.916  14.294  67.131  1.00  0.00    -0.305 A  
HETATM    9  C   UNL     1     -10.005  13.331  67.541  1.00  0.00    -0.223 A  
HETATM   10  C   UNL     1     -10.274  12.054  67.085  1.00  0.00    -0.221 A  
HETATM   11  C   UNL     1      -9.402  10.911  67.411  1.00  0.00    -0.166 C  
HETATM   12  C   UNL     1      -9.467  10.614  68.926  1.00  0.00    -0.199 C  
HETATM   13  C   UNL     1      -8.078  10.411  69.480  1.00  0.00    -0.136 C  
HETATM   14  N   UNL     1      -7.203  11.567  69.236  1.00  0.00    -0.088 NA 
HETATM   15  C   UNL     1      -5.818  11.079  69.281  1.00  0.00    -0.043 C  
HETATM   16  C   UNL     1      -7.536  12.349  68.009  1.00  0.00    -0.128 C  
HETATM   17  C   UNL     1      -8.678  13.513  68.298  1.00  0.00    -0.172 C  
HETATM   18  C   UNL     1      -8.062  11.451  66.865  1.00  0.00    -0.158 C  
HETATM   19  C   UNL     1      -7.186  10.413  66.165  1.00  0.00    -0.131 C  
ENDROOT
BRANCH   4  20
HETATM   20  O   UNL     1     -13.026  12.492  64.687  1.00  0.00    -0.803 OA 
HETATM   21  C   UNL     1     -12.646  12.193  63.346  1.00  0.00    -0.463 C  
ENDBRANCH   4  20
BRANCH   6  22
HETATM   22  O   UNL     1      -9.144   7.771  67.244  1.00  0.00    -0.128 OA 
BRANCH  22  23
HETATM   23  C   UNL     1     -10.262   7.083  67.601  1.00  0.00    -0.193 C  
HETATM   24  O   UNL     1     -11.122   6.646  66.841  1.00  0.00    -0.400 OA 
BRANCH  23  25
HETATM   25  C   UNL     1     -10.348   6.939  69.085  1.00  0.00    -0.207 A  
HETATM   26  C   UNL     1     -11.621   6.702  69.631  1.00  0.00    -0.305 A  
HETATM   27  C   UNL     1     -11.807   6.630  71.016  1.00  0.00    -0.427 A  
HETATM   28  C   UNL     1     -10.717   6.782  71.869  1.00  0.00    -0.250 A  
HETATM   29  C   UNL     1      -9.442   6.993  71.343  1.00  0.00    -0.159 A  
HETATM   30  C   UNL     1      -9.251   7.070  69.948  1.00  0.00    -0.144 A  
ENDBRANCH  23  25
ENDBRANCH  22  23
ENDBRANCH   6  22
TORSDOF 4
ENDMDL
MODEL       44
REMARK 921   NORMALIZED FREE ENERGY PREDICTED BY IDOCK:   -6.29 KCAL/MOL
REMARK 922        TOTAL FREE ENERGY PREDICTED BY IDOCK:   -8.31 KCAL/MOL
REMARK 923 INTER-LIGAND FREE ENERGY PREDICTED BY IDOCK:   -7.45 KCAL/MOL
REMARK 924 INTRA-LIGAND FREE ENERGY PREDICTED BY IDOCK:   -0.86 KCAL/MOL
REMARK 927      BINDING AFFINITY PREDICTED BY RF-SCORE:    0.00 PKD
ROOT
HETATM    1  C   UNL     1     -10.360   8.282  69.991  1.00  0.00    -0.212 C  
HETATM    2  O   UNL     1     -11.591   8.850  70.498  1.00  0.00    -0.249 OA 
HETATM    3  C   UNL     1     -11.475  10.184  70.145  1.00  0.00    -0.296 A  
HETATM    4  C   UNL     1     -12.174  11.270  70.603  1.00  0.00    -0.393 A  
HETATM    5  C   UNL     1     -12.021  12.464  69.862  1.00  0.00    -0.369 A  
HETATM    6  C   UNL     1     -10.410   6.816  69.637  1.00  0.00    -0.198 C  
HETATM    7  C   UNL     1     -11.041   6.440  68.496  1.00  0.00    -0.385 C  
HETATM    8  C   UNL     1     -11.267  12.531  68.651  1.00  0.00    -0.319 A  
HETATM    9  C   UNL     1     -10.584  11.410  68.205  1.00  0.00    -0.220 A  
HETATM   10  C   UNL     1     -10.604  10.338  69.078  1.00  0.00    -0.247 A  
HETATM   11  C   UNL     1      -9.943   9.060  68.758  1.00  0.00    -0.194 C  
HETATM   12  C   UNL     1      -8.412   9.259  68.703  1.00  0.00    -0.123 C  
HETATM   13  C   UNL     1      -7.840   8.591  67.476  1.00  0.00    -0.099 C  
HETATM   14  N   UNL     1      -8.451   9.084  66.233  1.00  0.00    -0.122 NA 
HETATM   15  C   UNL     1      -8.271   8.038  65.218  1.00  0.00    -0.146 C  
HETATM   16  C   UNL     1      -9.860   9.557  66.381  1.00  0.00    -0.253 C  
HETATM   17  C   UNL     1      -9.942  11.149  66.831  1.00  0.00    -0.230 C  
HETATM   18  C   UNL     1     -10.650   8.735  67.425  1.00  0.00    -0.304 C  
HETATM   19  C   UNL     1     -10.994   7.259  67.220  1.00  0.00    -0.284 C  
ENDROOT
BRANCH   4  20
HETATM   20  O   UNL     1     -12.980  11.333  71.701  1.00  0.00    -0.448 OA 
HETATM   21  C   UNL     1     -13.440  12.615  72.122  1.00  0.00    -0.460 C  
ENDBRANCH   4  20
BRANCH   6  22
HETATM   22  O   UNL     1      -9.102   6.258  69.939  1.00  0.00    -0.142 OA 
BRANCH  22  23
HETATM   23  C   UNL     1      -8.646   6.044  71.204  1.00  0.00    -0.129 C  
HETATM   24  O   UNL     1      -7.702   6.614  71.743  1.00  0.00    -0.095 OA 
BRANCH  23  25
HETATM   25  C   UNL     1      -9.435   4.972  71.880  1.00  0.00    -0.189 A  
HETATM   26  C   UNL     1     -10.303   5.372  72.911  1.00  0.00    -0.231 A  
HETATM   27  C   UNL     1     -11.025   4.428  73.650  1.00  0.00    -0.374 A  
HETATM   28  C   UNL     1     -10.894   3.073  73.356  1.00  0.00    -0.307 A  
HETATM   29  C   UNL     1     -10.055   2.660  72.320  1.00  0.00    -0.230 A  
HETATM   30  C   UNL     1      -9.324   3.608  71.575  1.00  0.00    -0.207 A  
ENDBRANCH  23  25
ENDBRANCH  22  23
ENDBRANCH   6  22
TORSDOF 4
ENDMDL
MODEL       45
REMARK 921   NORMALIZED FREE ENERGY PREDICTED BY IDOCK:   -6.25 KCAL/MOL
REMARK 922        TOTAL FREE ENERGY PREDICTED BY IDOCK:   -8.27 KCAL/MOL
REMARK 923 INTER-LIGAND FREE ENERGY PREDICTED BY IDOCK:   -7.51 KCAL/MOL
REMARK 924 INTRA-LIGAND FREE ENERGY PREDICTED BY IDOCK:   -0.76 KCAL/MOL
REMARK 927      BINDING AFFINITY PREDICTED BY RF-SCORE:    0.00 PKD
ROOT
HETATM    1  C   UNL     1     -10.037   8.987  69.036  1.00  0.00    -0.195 C  
HETATM    2  O   UNL     1     -10.179  10.402  69.305  1.00  0.00    -0.207 OA 
HETATM    3  C   UNL     1     -11.307  10.443  70.107  1.00  0.00    -0.323 A  
HETATM    4  C   UNL     1     -12.104  11.509  70.434  1.00  0.00    -0.382 A  
HETATM    5  C   UNL     1     -13.022  11.297  71.487  1.00  0.00    -0.520 A  
HETATM    6  C   UNL     1      -8.635   8.512  68.742  1.00  0.00    -0.131 C  
HETATM    7  C   UNL     1      -7.756   8.395  69.769  1.00  0.00    -0.093 C  
HETATM    8  C   UNL     1     -13.066  10.086  72.243  1.00  0.00    -0.385 A  
HETATM    9  C   UNL     1     -12.234   9.031  71.898  1.00  0.00    -0.451 A  
HETATM   10  C   UNL     1     -11.510   9.225  70.735  1.00  0.00    -0.351 A  
HETATM   11  C   UNL     1     -10.565   8.214  70.227  1.00  0.00    -0.228 C  
HETATM   12  C   UNL     1     -11.335   6.948  69.789  1.00  0.00    -0.288 C  
HETATM   13  C   UNL     1     -10.654   5.711  70.321  1.00  0.00    -0.300 C  
HETATM   14  N   UNL     1     -10.521   5.729  71.784  1.00  0.00    -0.221 NA 
HETATM   15  C   UNL     1      -9.408   4.836  72.130  1.00  0.00    -0.136 C  
HETATM   16  C   UNL     1     -10.417   7.095  72.380  1.00  0.00    -0.218 C  
HETATM   17  C   UNL     1     -11.901   7.757  72.694  1.00  0.00    -0.317 C  
HETATM   18  C   UNL     1      -9.651   8.078  71.464  1.00  0.00    -0.209 C  
HETATM   19  C   UNL     1      -8.163   7.921  71.151  1.00  0.00    -0.109 C  
ENDROOT
BRANCH   4  20
HETATM   20  O   UNL     1     -12.125  12.739  69.845  1.00  0.00    -0.308 OA 
HETATM   21  C   UNL     1     -12.312  13.879  70.682  1.00  0.00    -0.381 C  
ENDBRANCH   4  20
BRANCH   6  22
HETATM   22  O   UNL     1      -8.742   7.432  67.775  1.00  0.00    -0.126 OA 
BRANCH  22  23
HETATM   23  C   UNL     1      -9.581   7.459  66.703  1.00  0.00    -0.190 C  
HETATM   24  O   UNL     1     -10.583   6.766  66.545  1.00  0.00    -0.157 OA 
BRANCH  23  25
HETATM   25  C   UNL     1      -9.110   8.441  65.683  1.00  0.00    -0.155 A  
HETATM   26  C   UNL     1      -9.857   9.622  65.541  1.00  0.00    -0.352 A  
HETATM   27  C   UNL     1      -9.534  10.565  64.558  1.00  0.00    -0.329 A  
HETATM   28  C   UNL     1      -8.449  10.340  63.714  1.00  0.00    -0.179 A  
HETATM   29  C   UNL     1      -7.681   9.183  63.857  1.00  0.00    -0.122 A  
HETATM   30  C   UNL     1      -8.006   8.230  64.844  1.00  0.00    -0.144 A  
ENDBRANCH  23  25
ENDBRANCH  22  23
ENDBRANCH   6  22
TORSDOF 4
ENDMDL
MODEL       46
REMARK 921   NORMALIZED FREE ENERGY PREDICTED BY IDOCK:   -6.24 KCAL/MOL
REMARK 922        TOTAL FREE ENERGY PREDICTED BY IDOCK:   -8.25 KCAL/MOL
REMARK 923 INTER-LIGAND FREE ENERGY PREDICTED BY IDOCK:   -7.35 KCAL/MOL
REMARK 924 INTRA-LIGAND FREE ENERGY PREDICTED BY IDOCK:   -0.90 KCAL/MOL
REMARK 927      BINDING AFFINITY PREDICTED BY RF-SCORE:    0.00 PKD
ROOT
HETATM    1  C   UNL     1      -9.605  13.110  67.604  1.00  0.00    -0.210 C  
HETATM    2  O   UNL     1      -8.179  12.958  67.800  1.00  0.00    -0.147 OA 
HETATM    3  C   UNL     1      -7.919  11.744  67.187  1.00  0.00    -0.166 A  
HETATM    4  C   UNL     1      -6.822  10.930  67.298  1.00  0.00    -0.084 A  
HETATM    5  C   UNL     1      -6.722   9.891  66.345  1.00  0.00    -0.085 A  
HETATM    6  C   UNL     1     -10.117  14.529  67.572  1.00  0.00    -0.228 C  
HETATM    7  C   UNL     1      -9.895  15.279  66.463  1.00  0.00    -0.283 C  
HETATM    8  C   UNL     1      -7.644   9.740  65.265  1.00  0.00    -0.119 A  
HETATM    9  C   UNL     1      -8.736  10.591  65.171  1.00  0.00    -0.197 A  
HETATM   10  C   UNL     1      -8.890  11.449  66.244  1.00  0.00    -0.196 A  
HETATM   11  C   UNL     1      -9.988  12.432  66.303  1.00  0.00    -0.259 C  
HETATM   12  C   UNL     1     -11.344  11.700  66.420  1.00  0.00    -0.312 C  
HETATM   13  C   UNL     1     -12.344  12.295  65.459  1.00  0.00    -0.024 C  
HETATM   14  N   UNL     1     -11.875  12.254  64.066  1.00  0.00    -0.407 NA 
HETATM   15  C   UNL     1     -12.596  13.305  63.335  1.00  0.00    -0.039 C  
HETATM   16  C   UNL     1     -10.391  12.308  63.910  1.00  0.00    -0.429 C  
HETATM   17  C   UNL     1      -9.697  10.807  63.989  1.00  0.00    -0.367 C  
HETATM   18  C   UNL     1      -9.719  13.192  64.986  1.00  0.00     0.062 C  
HETATM   19  C   UNL     1      -9.932  14.704  65.060  1.00  0.00    -0.206 C  
ENDROOT
BRANCH   4  20
HETATM   20  O   UNL     1      -5.832  10.997  68.233  1.00  0.00    -0.046 OA 
HETATM   21  C   UNL     1      -6.139  10.586  69.564  1.00  0.00    -0.050 C  
ENDBRANCH   4  20
BRANCH   6  22
HETATM   22  O   UNL     1     -11.443  14.520  68.167  1.00  0.00    -0.282 OA 
BRANCH  22  23
HETATM   23  C   UNL     1     -11.774  15.224  69.284  1.00  0.00    -0.338 C  
HETATM   24  O   UNL     1     -11.629  16.431  69.454  1.00  0.00    -0.225 OA 
BRANCH  23  25
HETATM   25  C   UNL     1     -12.326  14.321  70.338  1.00  0.00    -0.419 A  
HETATM   26  C   UNL     1     -12.179  12.939  70.134  1.00  0.00    -0.336 A  
HETATM   27  C   UNL     1     -12.731  12.017  71.031  1.00  0.00    -0.337 A  
HETATM   28  C   UNL     1     -13.427  12.471  72.148  1.00  0.00    -0.523 A  
HETATM   29  C   UNL     1     -13.561  13.841  72.379  1.00  0.00    -0.690 A  
HETATM   30  C   UNL     1     -13.009  14.773  71.476  1.00  0.00    -0.410 A  
ENDBRANCH  23  25
ENDBRANCH  22  23
ENDBRANCH   6  22
TORSDOF 4
ENDMDL
MODEL       47
REMARK 921   NORMALIZED FREE ENERGY PREDICTED BY IDOCK:   -6.22 KCAL/MOL
REMARK 922        TOTAL FREE ENERGY PREDICTED BY IDOCK:   -8.23 KCAL/MOL
REMARK 923 INTER-LIGAND FREE ENERGY PREDICTED BY IDOCK:   -7.39 KCAL/MOL
REMARK 924 INTRA-LIGAND FREE ENERGY PREDICTED BY IDOCK:   -0.84 KCAL/MOL
REMARK 927      BINDING AFFINITY PREDICTED BY RF-SCORE:    0.00 PKD
ROOT
HETATM    1  C   UNL     1     -10.411   8.760  69.344  1.00  0.00    -0.222 C  
HETATM    2  O   UNL     1     -11.399   9.692  68.844  1.00  0.00    -0.044 OA 
HETATM    3  C   UNL     1     -10.758  10.252  67.751  1.00  0.00    -0.275 A  
HETATM    4  C   UNL     1     -11.060  11.394  67.057  1.00  0.00    -0.303 A  
HETATM    5  C   UNL     1     -10.389  11.565  65.824  1.00  0.00    -0.295 A  
HETATM    6  C   UNL     1     -10.953   7.570  70.098  1.00  0.00    -0.254 C  
HETATM    7  C   UNL     1     -11.534   6.563  69.399  1.00  0.00    -0.346 C  
HETATM    8  C   UNL     1      -9.523  10.574  65.270  1.00  0.00    -0.281 A  
HETATM    9  C   UNL     1      -9.250   9.420  65.992  1.00  0.00    -0.253 A  
HETATM   10  C   UNL     1      -9.770   9.407  67.273  1.00  0.00    -0.215 A  
HETATM   11  C   UNL     1      -9.590   8.254  68.174  1.00  0.00    -0.163 C  
HETATM   12  C   UNL     1      -8.099   8.105  68.548  1.00  0.00    -0.124 C  
HETATM   13  C   UNL     1      -7.669   6.664  68.421  1.00  0.00    -0.105 C  
HETATM   14  N   UNL     1      -7.899   6.126  67.072  1.00  0.00    -0.101 NA 
HETATM   15  C   UNL     1      -7.995   4.666  67.198  1.00  0.00    -0.102 C  
HETATM   16  C   UNL     1      -9.042   6.753  66.343  1.00  0.00    -0.152 C  
HETATM   17  C   UNL     1      -8.587   8.115  65.518  1.00  0.00    -0.173 C  
HETATM   18  C   UNL     1     -10.200   7.145  67.290  1.00  0.00    -0.315 C  
HETATM   19  C   UNL     1     -11.034   6.107  68.041  1.00  0.00    -0.399 C  
ENDROOT
BRANCH   4  20
HETATM   20  O   UNL     1     -11.913  12.390  67.430  1.00  0.00    -0.498 OA 
HETATM   21  C   UNL     1     -11.830  13.636  66.741  1.00  0.00    -0.413 C  
ENDBRANCH   4  20
BRANCH   6  22
HETATM   22  O   UNL     1      -9.989   7.246  71.137  1.00  0.00    -0.186 OA 
BRANCH  22  23
HETATM   23  C   UNL     1     -10.336   6.811  72.379  1.00  0.00    -0.195 C  
HETATM   24  O   UNL     1     -10.596   7.515  73.351  1.00  0.00    -0.375 OA 
BRANCH  23  25
HETATM   25  C   UNL     1     -10.334   5.319  72.440  1.00  0.00    -0.259 A  
HETATM   26  C   UNL     1     -11.254   4.715  73.313  1.00  0.00    -0.411 A  
HETATM   27  C   UNL     1     -11.271   3.327  73.492  1.00  0.00    -0.280 A  
HETATM   28  C   UNL     1     -10.374   2.528  72.787  1.00  0.00    -0.239 A  
HETATM   29  C   UNL     1      -9.470   3.110  71.897  1.00  0.00    -0.210 A  
HETATM   30  C   UNL     1      -9.447   4.508  71.718  1.00  0.00    -0.206 A  
ENDBRANCH  23  25
ENDBRANCH  22  23
ENDBRANCH   6  22
TORSDOF 4
ENDMDL
MODEL       48
REMARK 921   NORMALIZED FREE ENERGY PREDICTED BY IDOCK:   -6.22 KCAL/MOL
REMARK 922        TOTAL FREE ENERGY PREDICTED BY IDOCK:   -8.23 KCAL/MOL
REMARK 923 INTER-LIGAND FREE ENERGY PREDICTED BY IDOCK:   -7.71 KCAL/MOL
REMARK 924 INTRA-LIGAND FREE ENERGY PREDICTED BY IDOCK:   -0.52 KCAL/MOL
REMARK 927      BINDING AFFINITY PREDICTED BY RF-SCORE:    0.00 PKD
ROOT
HETATM    1  C   UNL     1     -10.837  13.048  68.361  1.00  0.00    -0.258 C  
HETATM    2  O   UNL     1     -11.083  13.786  69.582  1.00  0.00    -0.166 OA 
HETATM    3  C   UNL     1     -11.972  12.965  70.255  1.00  0.00    -0.283 A  
HETATM    4  C   UNL     1     -12.789  13.252  71.317  1.00  0.00    -0.312 A  
HETATM    5  C   UNL     1     -13.382  12.143  71.961  1.00  0.00    -0.470 A  
HETATM    6  C   UNL     1      -9.504  13.299  67.699  1.00  0.00    -0.211 C  
HETATM    7  C   UNL     1      -8.390  12.749  68.243  1.00  0.00    -0.161 C  
HETATM    8  C   UNL     1     -13.086  10.792  71.605  1.00  0.00    -0.551 A  
HETATM    9  C   UNL     1     -12.242  10.534  70.534  1.00  0.00    -0.435 A  
HETATM   10  C   UNL     1     -11.860  11.654  69.820  1.00  0.00    -0.428 A  
HETATM   11  C   UNL     1     -10.953  11.567  68.661  1.00  0.00    -0.270 C  
HETATM   12  C   UNL     1     -11.643  10.805  67.508  1.00  0.00    -0.011 C  
HETATM   13  C   UNL     1     -10.704   9.782  66.918  1.00  0.00    -0.122 C  
HETATM   14  N   UNL     1     -10.215   8.826  67.923  1.00  0.00    -0.207 NA 
HETATM   15  C   UNL     1      -8.948   8.279  67.419  1.00  0.00    -0.134 C  
HETATM   16  C   UNL     1     -10.136   9.372  69.311  1.00  0.00    -0.196 C  
HETATM   17  C   UNL     1     -11.566   9.212  70.129  1.00  0.00    -0.041 C  
HETATM   18  C   UNL     1      -9.750  10.869  69.332  1.00  0.00    -0.019 C  
HETATM   19  C   UNL     1      -8.379  11.372  68.880  1.00  0.00    -0.042 C  
ENDROOT
BRANCH   4  20
HETATM   20  O   UNL     1     -13.108  14.484  71.807  1.00  0.00    -0.314 OA 
HETATM   21  C   UNL     1     -14.328  15.082  71.372  1.00  0.00    -0.497 C  
ENDBRANCH   4  20
BRANCH   6  22
HETATM   22  O   UNL     1      -9.713  13.201  66.264  1.00  0.00    -0.271 OA 
BRANCH  22  23
HETATM   23  C   UNL     1     -10.202  14.217  65.500  1.00  0.00    -0.357 C  
HETATM   24  O   UNL     1     -10.741  14.109  64.403  1.00  0.00    -0.352 OA 
BRANCH  23  25
HETATM   25  C   UNL     1      -9.970  15.537  66.160  1.00  0.00    -0.332 A  
HETATM   26  C   UNL     1      -8.700  16.115  66.000  1.00  0.00    -0.282 A  
HETATM   27  C   UNL     1      -8.369  17.313  66.644  1.00  0.00    -0.291 A  
HETATM   28  C   UNL     1      -9.312  17.950  67.446  1.00  0.00    -0.257 A  
HETATM   29  C   UNL     1     -10.587  17.402  67.596  1.00  0.00    -0.350 A  
HETATM   30  C   UNL     1     -10.922  16.194  66.951  1.00  0.00    -0.094 A  
ENDBRANCH  23  25
ENDBRANCH  22  23
ENDBRANCH   6  22
TORSDOF 4
ENDMDL
MODEL       49
REMARK 921   NORMALIZED FREE ENERGY PREDICTED BY IDOCK:   -6.19 KCAL/MOL
REMARK 922        TOTAL FREE ENERGY PREDICTED BY IDOCK:   -8.19 KCAL/MOL
REMARK 923 INTER-LIGAND FREE ENERGY PREDICTED BY IDOCK:   -6.95 KCAL/MOL
REMARK 924 INTRA-LIGAND FREE ENERGY PREDICTED BY IDOCK:   -1.24 KCAL/MOL
REMARK 927      BINDING AFFINITY PREDICTED BY RF-SCORE:    0.00 PKD
ROOT
HETATM    1  C   UNL     1     -11.002   8.267  71.450  1.00  0.00    -0.249 C  
HETATM    2  O   UNL     1     -12.228   9.033  71.534  1.00  0.00    -0.301 OA 
HETATM    3  C   UNL     1     -11.860  10.249  70.984  1.00  0.00    -0.377 A  
HETATM    4  C   UNL     1     -12.491  11.463  71.055  1.00  0.00    -0.383 A  
HETATM    5  C   UNL     1     -12.022  12.459  70.168  1.00  0.00    -0.376 A  
HETATM    6  C   UNL     1     -11.168   6.769  71.367  1.00  0.00    -0.268 C  
HETATM    7  C   UNL     1     -11.580   6.221  70.196  1.00  0.00    -0.385 C  
HETATM    8  C   UNL     1     -11.020  12.208  69.182  1.00  0.00    -0.215 A  
HETATM    9  C   UNL     1     -10.411  10.962  69.125  1.00  0.00    -0.248 A  
HETATM   10  C   UNL     1     -10.765  10.101  70.147  1.00  0.00    -0.355 A  
HETATM   11  C   UNL     1     -10.226   8.732  70.234  1.00  0.00    -0.220 C  
HETATM   12  C   UNL     1      -8.707   8.781  70.513  1.00  0.00    -0.196 C  
HETATM   13  C   UNL     1      -7.976   7.825  69.602  1.00  0.00    -0.116 C  
HETATM   14  N   UNL     1      -8.229   8.100  68.181  1.00  0.00    -0.128 NA 
HETATM   15  C   UNL     1      -7.973   6.855  67.446  1.00  0.00    -0.112 C  
HETATM   16  C   UNL     1      -9.560   8.716  67.897  1.00  0.00    -0.149 C  
HETATM   17  C   UNL     1      -9.526  10.367  68.017  1.00  0.00    -0.152 C  
HETATM   18  C   UNL     1     -10.662   8.200  68.851  1.00  0.00    -0.090 C  
HETATM   19  C   UNL     1     -11.146   6.750  68.842  1.00  0.00    -0.243 C  
ENDROOT
BRANCH   4  20
HETATM   20  O   UNL     1     -13.502  11.823  71.897  1.00  0.00    -0.371 OA 
HETATM   21  C   UNL     1     -13.571  13.184  72.316  1.00  0.00    -0.581 C  
ENDBRANCH   4  20
BRANCH   6  22
HETATM   22  O   UNL     1     -10.045   6.174  72.071  1.00  0.00    -0.179 OA 
BRANCH  22  23
HETATM   23  C   UNL     1      -9.730   6.455  73.365  1.00  0.00    -0.165 C  
HETATM   24  O   UNL     1     -10.460   6.307  74.341  1.00  0.00    -0.293 OA 
BRANCH  23  25
HETATM   25  C   UNL     1      -8.351   7.020  73.467  1.00  0.00    -0.139 A  
HETATM   26  C   UNL     1      -7.329   6.333  72.790  1.00  0.00    -0.092 A  
HETATM   27  C   UNL     1      -5.996   6.746  72.891  1.00  0.00    -0.042 A  
HETATM   28  C   UNL     1      -5.674   7.860  73.662  1.00  0.00    -0.058 A  
HETATM   29  C   UNL     1      -6.680   8.569  74.321  1.00  0.00    -0.159 A  
HETATM   30  C   UNL     1      -8.024   8.153  74.224  1.00  0.00    -0.310 A  
ENDBRANCH  23  25
ENDBRANCH  22  23
ENDBRANCH   6  22
TORSDOF 4
ENDMDL
MODEL       50
REMARK 921   NORMALIZED FREE ENERGY PREDICTED BY IDOCK:   -6.19 KCAL/MOL
REMARK 922        TOTAL FREE ENERGY PREDICTED BY IDOCK:   -8.19 KCAL/MOL
REMARK 923 INTER-LIGAND FREE ENERGY PREDICTED BY IDOCK:   -7.45 KCAL/MOL
REMARK 924 INTRA-LIGAND FREE ENERGY PREDICTED BY IDOCK:   -0.74 KCAL/MOL
REMARK 927      BINDING AFFINITY PREDICTED BY RF-SCORE:    0.00 PKD
ROOT
HETATM    1  C   UNL     1     -11.070  10.262  68.840  1.00  0.00    -0.231 C  
HETATM    2  O   UNL     1     -11.316  10.364  70.263  1.00  0.00    -0.284 OA 
HETATM    3  C   UNL     1     -11.273   9.041  70.670  1.00  0.00    -0.270 A  
HETATM    4  C   UNL     1     -11.720   8.475  71.835  1.00  0.00    -0.341 A  
HETATM    5  C   UNL     1     -11.294   7.149  72.084  1.00  0.00    -0.301 A  
HETATM    6  C   UNL     1     -10.440  11.472  68.194  1.00  0.00    -0.193 C  
HETATM    7  C   UNL     1      -9.119  11.707  68.395  1.00  0.00    -0.180 C  
HETATM    8  C   UNL     1     -10.376   6.460  71.235  1.00  0.00    -0.244 A  
HETATM    9  C   UNL     1      -9.929   7.067  70.071  1.00  0.00    -0.188 A  
HETATM   10  C   UNL     1     -10.539   8.274  69.780  1.00  0.00    -0.228 A  
HETATM   11  C   UNL     1     -10.175   9.064  68.590  1.00  0.00    -0.226 C  
HETATM   12  C   UNL     1     -10.584   8.305  67.308  1.00  0.00    -0.335 C  
HETATM   13  C   UNL     1      -9.459   8.328  66.303  1.00  0.00    -0.203 C  
HETATM   14  N   UNL     1      -8.215   7.760  66.841  1.00  0.00    -0.115 NA 
HETATM   15  C   UNL     1      -7.107   8.322  66.058  1.00  0.00    -0.069 C  
HETATM   16  C   UNL     1      -8.055   7.906  68.319  1.00  0.00    -0.123 C  
HETATM   17  C   UNL     1      -8.762   6.662  69.152  1.00  0.00    -0.130 C  
HETATM   18  C   UNL     1      -8.661   9.227  68.847  1.00  0.00    -0.130 C  
HETATM   19  C   UNL     1      -8.089  10.597  68.484  1.00  0.00    -0.125 C  
ENDROOT
BRANCH   4  20
HETATM   20  O   UNL     1     -12.543   9.035  72.767  1.00  0.00    -0.275 OA 
HETATM   21  C   UNL     1     -13.893   9.300  72.394  1.00  0.00    -0.416 C  
ENDBRANCH   4  20
BRANCH   6  22
HETATM   22  O   UNL     1     -10.979  11.568  66.847  1.00  0.00    -0.269 OA 
BRANCH  22  23
HETATM   23  C   UNL     1     -10.249  11.961  65.768  1.00  0.00    -0.242 C  
HETATM   24  O   UNL     1      -9.407  11.292  65.175  1.00  0.00    -0.219 OA 
BRANCH  23  25
HETATM   25  C   UNL     1     -10.576  13.367  65.388  1.00  0.00    -0.310 A  
HETATM   26  C   UNL     1      -9.724  14.374  65.873  1.00  0.00    -0.305 A  
HETATM   27  C   UNL     1      -9.996  15.725  65.631  1.00  0.00    -0.378 A  
HETATM   28  C   UNL     1     -11.119  16.082  64.888  1.00  0.00    -0.381 A  
HETATM   29  C   UNL     1     -11.962  15.094  64.377  1.00  0.00    -0.321 A  
HETATM   30  C   UNL     1     -11.693  13.732  64.622  1.00  0.00    -0.417 A  
ENDBRANCH  23  25
ENDBRANCH  22  23
ENDBRANCH   6  22
TORSDOF 4
ENDMDL
MODEL       51
REMARK 921   NORMALIZED FREE ENERGY PREDICTED BY IDOCK:   -6.17 KCAL/MOL
REMARK 922        TOTAL FREE ENERGY PREDICTED BY IDOCK:   -8.17 KCAL/MOL
REMARK 923 INTER-LIGAND FREE ENERGY PREDICTED BY IDOCK:   -7.48 KCAL/MOL
REMARK 924 INTRA-LIGAND FREE ENERGY PREDICTED BY IDOCK:   -0.68 KCAL/MOL
REMARK 927      BINDING AFFINITY PREDICTED BY RF-SCORE:    0.00 PKD
ROOT
HETATM    1  C   UNL     1      -9.798  13.520  67.836  1.00  0.00    -0.235 C  
HETATM    2  O   UNL     1      -8.609  12.713  68.008  1.00  0.00    -0.172 OA 
HETATM    3  C   UNL     1      -8.976  11.510  67.429  1.00  0.00    -0.156 A  
HETATM    4  C   UNL     1      -8.393  10.275  67.543  1.00  0.00    -0.114 A  
HETATM    5  C   UNL     1      -8.830   9.296  66.622  1.00  0.00    -0.146 A  
HETATM    6  C   UNL     1      -9.576  15.011  67.769  1.00  0.00    -0.203 C  
HETATM    7  C   UNL     1      -9.062  15.545  66.633  1.00  0.00    -0.310 C  
HETATM    8  C   UNL     1      -9.749   9.581  65.567  1.00  0.00    -0.344 A  
HETATM    9  C   UNL     1     -10.309  10.846  65.468  1.00  0.00    -0.316 A  
HETATM   10  C   UNL     1     -10.002  11.695  66.516  1.00  0.00    -0.230 A  
HETATM   11  C   UNL     1     -10.499  13.082  66.566  1.00  0.00    -0.284 C  
HETATM   12  C   UNL     1     -12.035  13.084  66.734  1.00  0.00    -0.434 C  
HETATM   13  C   UNL     1     -12.665  14.065  65.775  1.00  0.00    -0.450 C  
HETATM   14  N   UNL     1     -12.319  13.781  64.375  1.00  0.00    -0.605 NA 
HETATM   15  C   UNL     1     -12.478  15.034  63.626  1.00  0.00     0.702 C  
HETATM   16  C   UNL     1     -10.993  13.120  64.187  1.00  0.00    -0.390 C  
HETATM   17  C   UNL     1     -11.091  11.472  64.300  1.00  0.00    -0.385 C  
HETATM   18  C   UNL     1      -9.946  13.598  65.220  1.00  0.00    -0.229 C  
HETATM   19  C   UNL     1      -9.414  15.031  65.250  1.00  0.00     0.201 C  
ENDROOT
BRANCH   4  20
HETATM   20  O   UNL     1      -7.460   9.881  68.455  1.00  0.00    -0.081 OA 
HETATM   21  C   UNL     1      -7.823   9.894  69.834  1.00  0.00    -0.173 C  
ENDBRANCH   4  20
BRANCH   6  22
HETATM   22  O   UNL     1     -10.727  15.645  68.392  1.00  0.00    -0.252 OA 
BRANCH  22  23
HETATM   23  C   UNL     1     -10.636  16.677  69.274  1.00  0.00    -0.343 C  
HETATM   24  O   UNL     1     -10.995  16.666  70.448  1.00  0.00    -0.267 OA 
BRANCH  23  25
HETATM   25  C   UNL     1     -10.056  17.887  68.619  1.00  0.00    -0.394 A  
HETATM   26  C   UNL     1     -10.821  18.496  67.611  1.00  0.00    -0.319 A  
HETATM   27  C   UNL     1     -10.325  19.588  66.890  1.00  0.00    -0.566 A  
HETATM   28  C   UNL     1      -9.059  20.091  67.182  1.00  0.00    -0.468 A  
HETATM   29  C   UNL     1      -8.295  19.514  68.198  1.00  0.00    -0.359 A  
HETATM   30  C   UNL     1      -8.791  18.411  68.923  1.00  0.00    -0.162 A  
ENDBRANCH  23  25
ENDBRANCH  22  23
ENDBRANCH   6  22
TORSDOF 4
ENDMDL
MODEL       52
REMARK 921   NORMALIZED FREE ENERGY PREDICTED BY IDOCK:   -6.14 KCAL/MOL
REMARK 922        TOTAL FREE ENERGY PREDICTED BY IDOCK:   -8.14 KCAL/MOL
REMARK 923 INTER-LIGAND FREE ENERGY PREDICTED BY IDOCK:   -7.43 KCAL/MOL
REMARK 924 INTRA-LIGAND FREE ENERGY PREDICTED BY IDOCK:   -0.71 KCAL/MOL
REMARK 927      BINDING AFFINITY PREDICTED BY RF-SCORE:    0.00 PKD
ROOT
HETATM    1  C   UNL     1     -11.006  11.190  67.608  1.00  0.00    -0.269 C  
HETATM    2  O   UNL     1     -11.721  11.030  66.360  1.00  0.00    -0.062 OA 
HETATM    3  C   UNL     1     -10.718  11.180  65.417  1.00  0.00    -0.192 A  
HETATM    4  C   UNL     1     -10.817  11.425  64.073  1.00  0.00    -0.383 A  
HETATM    5  C   UNL     1      -9.631  11.259  63.323  1.00  0.00    -0.373 A  
HETATM    6  C   UNL     1     -11.608  10.495  68.805  1.00  0.00    -0.182 C  
HETATM    7  C   UNL     1     -11.475   9.149  68.914  1.00  0.00     0.523 C  
HETATM    8  C   UNL     1      -8.416  10.771  63.894  1.00  0.00     0.016 A  
HETATM    9  C   UNL     1      -8.353  10.516  65.257  1.00  0.00    -0.155 A  
HETATM   10  C   UNL     1      -9.478  10.894  65.966  1.00  0.00    -0.235 A  
HETATM   11  C   UNL     1      -9.590  10.683  67.421  1.00  0.00    -0.180 C  
HETATM   12  C   UNL     1      -8.565  11.571  68.161  1.00  0.00    -0.156 C  
HETATM   13  C   UNL     1      -7.843  10.770  69.217  1.00  0.00    -0.122 C  
HETATM   14  N   UNL     1      -7.167   9.589  68.660  1.00  0.00    -0.073 NA 
HETATM   15  C   UNL     1      -7.005   8.625  69.756  1.00  0.00    -0.046 C  
HETATM   16  C   UNL     1      -7.815   9.023  67.439  1.00  0.00    -0.100 C  
HETATM   17  C   UNL     1      -7.280   9.750  66.051  1.00  0.00    -0.101 C  
HETATM   18  C   UNL     1      -9.355   9.158  67.474  1.00  0.00    -0.157 C  
HETATM   19  C   UNL     1     -10.224   8.408  68.484  1.00  0.00    -0.228 C  
ENDROOT
BRANCH   4  20
HETATM   20  O   UNL     1     -11.922  11.831  63.384  1.00  0.00    -0.474 OA 
HETATM   21  C   UNL     1     -12.263  13.215  63.420  1.00  0.00    -0.444 C  
ENDBRANCH   4  20
BRANCH   6  22
HETATM   22  O   UNL     1     -11.340  11.329  69.965  1.00  0.00    -0.269 OA 
BRANCH  22  23
HETATM   23  C   UNL     1     -12.213  11.490  70.997  1.00  0.00    -0.263 C  
HETATM   24  O   UNL     1     -12.683  10.598  71.698  1.00  0.00    -0.406 OA 
BRANCH  23  25
HETATM   25  C   UNL     1     -12.575  12.928  71.170  1.00  0.00    -0.373 A  
HETATM   26  C   UNL     1     -13.413  13.249  72.250  1.00  0.00    -0.679 A  
HETATM   27  C   UNL     1     -13.865  14.560  72.445  1.00  0.00    -0.587 A  
HETATM   28  C   UNL     1     -13.472  15.565  71.565  1.00  0.00    -0.582 A  
HETATM   29  C   UNL     1     -12.620  15.267  70.500  1.00  0.00    -0.450 A  
HETATM   30  C   UNL     1     -12.165  13.947  70.299  1.00  0.00    -0.428 A  
ENDBRANCH  23  25
ENDBRANCH  22  23
ENDBRANCH   6  22
TORSDOF 4
ENDMDL
MODEL       53
REMARK 921   NORMALIZED FREE ENERGY PREDICTED BY IDOCK:   -6.13 KCAL/MOL
REMARK 922        TOTAL FREE ENERGY PREDICTED BY IDOCK:   -8.11 KCAL/MOL
REMARK 923 INTER-LIGAND FREE ENERGY PREDICTED BY IDOCK:   -7.13 KCAL/MOL
REMARK 924 INTRA-LIGAND FREE ENERGY PREDICTED BY IDOCK:   -0.99 KCAL/MOL
REMARK 927      BINDING AFFINITY PREDICTED BY RF-SCORE:    0.00 PKD
ROOT
HETATM    1  C   UNL     1      -9.679   9.264  69.219  1.00  0.00    -0.169 C  
HETATM    2  O   UNL     1      -9.810  10.700  69.350  1.00  0.00    -0.210 OA 
HETATM    3  C   UNL     1     -11.041  10.833  69.970  1.00  0.00    -0.255 A  
HETATM    4  C   UNL     1     -11.840  11.941  70.089  1.00  0.00    -0.308 A  
HETATM    5  C   UNL     1     -12.909  11.838  71.008  1.00  0.00    -0.309 A  
HETATM    6  C   UNL     1      -8.266   8.735  69.175  1.00  0.00    -0.119 C  
HETATM    7  C   UNL     1      -7.551   8.684  70.327  1.00  0.00    -0.074 C  
HETATM    8  C   UNL     1     -13.104  10.696  71.843  1.00  0.00    -0.563 A  
HETATM    9  C   UNL     1     -12.268   9.597  71.710  1.00  0.00    -0.464 A  
HETATM   10  C   UNL     1     -11.376   9.677  70.656  1.00  0.00    -0.379 A  
HETATM   11  C   UNL     1     -10.403   8.606  70.376  1.00  0.00    -0.225 C  
HETATM   12  C   UNL     1     -11.143   7.326  69.930  1.00  0.00    -0.233 C  
HETATM   13  C   UNL     1     -10.591   6.122  70.654  1.00  0.00    -0.249 C  
HETATM   14  N   UNL     1     -10.673   6.260  72.115  1.00  0.00    -0.223 NA 
HETATM   15  C   UNL     1      -9.653   5.374  72.692  1.00  0.00    -0.150 C  
HETATM   16  C   UNL     1     -10.609   7.668  72.609  1.00  0.00    -0.299 C  
HETATM   17  C   UNL     1     -12.100   8.387  72.646  1.00  0.00    -0.324 C  
HETATM   18  C   UNL     1      -9.684   8.554  71.742  1.00  0.00    -0.337 C  
HETATM   19  C   UNL     1      -8.172   8.338  71.667  1.00  0.00    -0.174 C  
ENDROOT
BRANCH   4  20
HETATM   20  O   UNL     1     -11.732  13.117  69.408  1.00  0.00    -0.294 OA 
HETATM   21  C   UNL     1     -12.008  13.109  68.009  1.00  0.00    -0.304 C  
ENDBRANCH   4  20
BRANCH   6  22
HETATM   22  O   UNL     1      -8.268   7.581  68.292  1.00  0.00    -0.123 OA 
BRANCH  22  23
HETATM   23  C   UNL     1      -8.232   7.669  66.934  1.00  0.00    -0.120 C  
HETATM   24  O   UNL     1      -7.791   8.607  66.277  1.00  0.00    -0.098 OA 
BRANCH  23  25
HETATM   25  C   UNL     1      -8.843   6.460  66.306  1.00  0.00    -0.152 A  
HETATM   26  C   UNL     1      -8.107   5.828  65.290  1.00  0.00    -0.130 A  
HETATM   27  C   UNL     1      -8.634   4.734  64.594  1.00  0.00    -0.147 A  
HETATM   28  C   UNL     1      -9.902   4.255  64.916  1.00  0.00    -0.184 A  
HETATM   29  C   UNL     1     -10.636   4.856  65.940  1.00  0.00    -0.280 A  
HETATM   30  C   UNL     1     -10.109   5.960  66.641  1.00  0.00    -0.229 A  
ENDBRANCH  23  25
ENDBRANCH  22  23
ENDBRANCH   6  22
TORSDOF 4
ENDMDL
MODEL       54
REMARK 921   NORMALIZED FREE ENERGY PREDICTED BY IDOCK:   -6.12 KCAL/MOL
REMARK 922        TOTAL FREE ENERGY PREDICTED BY IDOCK:   -8.11 KCAL/MOL
REMARK 923 INTER-LIGAND FREE ENERGY PREDICTED BY IDOCK:   -6.77 KCAL/MOL
REMARK 924 INTRA-LIGAND FREE ENERGY PREDICTED BY IDOCK:   -1.34 KCAL/MOL
REMARK 927      BINDING AFFINITY PREDICTED BY RF-SCORE:    0.00 PKD
ROOT
HETATM    1  C   UNL     1     -10.413  10.696  67.825  1.00  0.00    -0.221 C  
HETATM    2  O   UNL     1     -11.641  11.148  67.206  1.00  0.00    -0.514 OA 
HETATM    3  C   UNL     1     -11.220  11.518  65.940  1.00  0.00    -0.177 A  
HETATM    4  C   UNL     1     -11.856  12.289  65.002  1.00  0.00    -0.357 A  
HETATM    5  C   UNL     1     -11.300  12.269  63.702  1.00  0.00    -0.547 A  
HETATM    6  C   UNL     1     -10.570   9.674  68.925  1.00  0.00    -0.217 C  
HETATM    7  C   UNL     1     -10.860   8.392  68.590  1.00  0.00     0.027 C  
HETATM    8  C   UNL     1     -10.203  11.427  63.343  1.00  0.00    -0.457 A  
HETATM    9  C   UNL     1      -9.591  10.646  64.312  1.00  0.00    -0.350 A  
HETATM   10  C   UNL     1     -10.046  10.865  65.599  1.00  0.00    -0.318 A  
HETATM   11  C   UNL     1      -9.518  10.111  66.751  1.00  0.00    -0.205 C  
HETATM   12  C   UNL     1      -8.035  10.476  66.984  1.00  0.00    -0.118 C  
HETATM   13  C   UNL     1      -7.216   9.228  67.201  1.00  0.00    -0.087 C  
HETATM   14  N   UNL     1      -7.324   8.284  66.080  1.00  0.00    -0.079 NA 
HETATM   15  C   UNL     1      -6.995   6.951  66.601  1.00  0.00    -0.063 C  
HETATM   16  C   UNL     1      -8.620   8.348  65.339  1.00  0.00    -0.167 C  
HETATM   17  C   UNL     1      -8.598   9.484  64.135  1.00  0.00    -0.217 C  
HETATM   18  C   UNL     1      -9.812   8.674  66.268  1.00  0.00    -0.320 C  
HETATM   19  C   UNL     1     -10.293   7.714  67.357  1.00  0.00    -0.347 C  
ENDROOT
BRANCH   4  20
HETATM   20  O   UNL     1     -12.946  13.087  65.186  1.00  0.00    -0.729 OA 
HETATM   21  C   UNL     1     -12.733  14.489  65.332  1.00  0.00    -0.180 C  
ENDBRANCH   4  20
BRANCH   6  22
HETATM   22  O   UNL     1      -9.523   9.931  69.900  1.00  0.00    -0.220 OA 
BRANCH  22  23
HETATM   23  C   UNL     1      -9.178   9.058  70.887  1.00  0.00    -0.259 C  
HETATM   24  O   UNL     1      -9.871   8.737  71.849  1.00  0.00    -0.287 OA 
BRANCH  23  25
HETATM   25  C   UNL     1      -7.795   8.537  70.678  1.00  0.00    -0.091 A  
HETATM   26  C   UNL     1      -7.664   7.165  70.406  1.00  0.00    -0.095 A  
HETATM   27  C   UNL     1      -6.401   6.576  70.271  1.00  0.00    -0.039 A  
HETATM   28  C   UNL     1      -5.256   7.358  70.395  1.00  0.00    -0.023 A  
HETATM   29  C   UNL     1      -5.369   8.728  70.640  1.00  0.00    -0.027 A  
HETATM   30  C   UNL     1      -6.639   9.324  70.780  1.00  0.00    -0.084 A  
ENDBRANCH  23  25
ENDBRANCH  22  23
ENDBRANCH   6  22
TORSDOF 4
ENDMDL
MODEL       55
REMARK 921   NORMALIZED FREE ENERGY PREDICTED BY IDOCK:   -6.12 KCAL/MOL
REMARK 922        TOTAL FREE ENERGY PREDICTED BY IDOCK:   -8.11 KCAL/MOL
REMARK 923 INTER-LIGAND FREE ENERGY PREDICTED BY IDOCK:   -7.23 KCAL/MOL
REMARK 924 INTRA-LIGAND FREE ENERGY PREDICTED BY IDOCK:   -0.88 KCAL/MOL
REMARK 927      BINDING AFFINITY PREDICTED BY RF-SCORE:    0.00 PKD
ROOT
HETATM    1  C   UNL     1      -9.172  14.307  67.989  1.00  0.00    -0.192 C  
HETATM    2  O   UNL     1      -7.766  13.968  68.062  1.00  0.00    -0.121 OA 
HETATM    3  C   UNL     1      -7.797  12.595  68.238  1.00  0.00    -0.144 A  
HETATM    4  C   UNL     1      -6.806  11.750  68.666  1.00  0.00    -0.081 A  
HETATM    5  C   UNL     1      -7.049  10.369  68.486  1.00  0.00    -0.074 A  
HETATM    6  C   UNL     1      -9.508  15.551  67.204  1.00  0.00    -0.215 C  
HETATM    7  C   UNL     1      -9.459  15.502  65.849  1.00  0.00    -0.377 C  
HETATM    8  C   UNL     1      -8.204   9.868  67.813  1.00  0.00    -0.114 A  
HETATM    9  C   UNL     1      -9.182  10.751  67.377  1.00  0.00    -0.156 A  
HETATM   10  C   UNL     1      -8.986  12.063  67.765  1.00  0.00    -0.176 A  
HETATM   11  C   UNL     1      -9.918  13.138  67.377  1.00  0.00    -0.229 C  
HETATM   12  C   UNL     1     -11.287  12.917  68.058  1.00  0.00    -0.333 C  
HETATM   13  C   UNL     1     -12.404  13.100  67.060  1.00  0.00    -0.057 C  
HETATM   14  N   UNL     1     -12.275  12.203  65.903  1.00  0.00    -0.536 NA 
HETATM   15  C   UNL     1     -13.015  12.817  64.793  1.00  0.00    -0.143 C  
HETATM   16  C   UNL     1     -10.869  11.825  65.566  1.00  0.00    -0.297 C  
HETATM   17  C   UNL     1     -10.356  10.499  66.414  1.00  0.00    -0.283 C  
HETATM   18  C   UNL     1      -9.871  12.973  65.843  1.00  0.00    -0.243 C  
HETATM   19  C   UNL     1      -9.882  14.282  65.054  1.00  0.00    -0.058 C  
ENDROOT
BRANCH   4  20
HETATM   20  O   UNL     1      -5.628  12.089  69.262  1.00  0.00    -0.062 OA 
HETATM   21  C   UNL     1      -5.680  12.685  70.556  1.00  0.00    -0.169 C  
ENDBRANCH   4  20
BRANCH   6  22
HETATM   22  O   UNL     1     -10.654  16.169  67.850  1.00  0.00    -0.290 OA 
BRANCH  22  23
HETATM   23  C   UNL     1     -10.554  17.092  68.845  1.00  0.00    -0.328 C  
HETATM   24  O   UNL     1     -10.971  16.972  69.994  1.00  0.00    -0.082 OA 
BRANCH  23  25
HETATM   25  C   UNL     1      -9.881  18.331  68.356  1.00  0.00    -0.386 A  
HETATM   26  C   UNL     1     -10.542  19.063  67.355  1.00  0.00    -0.559 A  
HETATM   27  C   UNL     1      -9.951  20.196  66.783  1.00  0.00    -0.604 A  
HETATM   28  C   UNL     1      -8.695  20.614  67.217  1.00  0.00    -0.322 A  
HETATM   29  C   UNL     1      -8.036  19.913  68.228  1.00  0.00    -0.282 A  
HETATM   30  C   UNL     1      -8.627  18.770  68.804  1.00  0.00    -0.316 A  
ENDBRANCH  23  25
ENDBRANCH  22  23
ENDBRANCH   6  22
TORSDOF 4
ENDMDL
MODEL       56
REMARK 921   NORMALIZED FREE ENERGY PREDICTED BY IDOCK:   -6.12 KCAL/MOL
REMARK 922        TOTAL FREE ENERGY PREDICTED BY IDOCK:   -8.10 KCAL/MOL
REMARK 923 INTER-LIGAND FREE ENERGY PREDICTED BY IDOCK:   -7.26 KCAL/MOL
REMARK 924 INTRA-LIGAND FREE ENERGY PREDICTED BY IDOCK:   -0.84 KCAL/MOL
REMARK 927      BINDING AFFINITY PREDICTED BY RF-SCORE:    0.00 PKD
ROOT
HETATM    1  C   UNL     1      -9.356  13.367  67.058  1.00  0.00    -0.243 C  
HETATM    2  O   UNL     1      -9.228  14.412  68.053  1.00  0.00    -0.181 OA 
HETATM    3  C   UNL     1      -9.367  15.564  67.298  1.00  0.00    -0.212 A  
HETATM    4  C   UNL     1      -9.049  16.858  67.618  1.00  0.00    -0.223 A  
HETATM    5  C   UNL     1      -9.555  17.854  66.751  1.00  0.00    -0.305 A  
HETATM    6  C   UNL     1      -9.871  12.041  67.561  1.00  0.00    -0.186 C  
HETATM    7  C   UNL     1     -11.192  11.918  67.845  1.00  0.00    -0.325 C  
HETATM    8  C   UNL     1     -10.428  17.559  65.661  1.00  0.00    -0.156 A  
HETATM    9  C   UNL     1     -10.745  16.239  65.372  1.00  0.00    -0.342 A  
HETATM   10  C   UNL     1     -10.057  15.305  66.124  1.00  0.00    -0.315 A  
HETATM   11  C   UNL     1     -10.281  13.857  65.962  1.00  0.00    -0.317 C  
HETATM   12  C   UNL     1      -9.798  13.403  64.566  1.00  0.00     0.108 C  
HETATM   13  C   UNL     1     -10.831  12.514  63.918  1.00  0.00    -0.431 C  
HETATM   14  N   UNL     1     -12.142  13.169  63.802  1.00  0.00    -0.552 NA 
HETATM   15  C   UNL     1     -13.151  12.106  63.710  1.00  0.00    -0.069 C  
HETATM   16  C   UNL     1     -12.421  14.188  64.858  1.00  0.00    -0.401 C  
HETATM   17  C   UNL     1     -11.846  15.686  64.450  1.00  0.00    -0.183 C  
HETATM   18  C   UNL     1     -11.802  13.805  66.222  1.00  0.00    -0.426 C  
HETATM   19  C   UNL     1     -12.276  12.597  67.030  1.00  0.00    -0.008 C  
ENDROOT
BRANCH   4  20
HETATM   20  O   UNL     1      -8.284  17.289  68.661  1.00  0.00    -0.258 OA 
HETATM   21  C   UNL     1      -7.898  18.662  68.686  1.00  0.00    -0.321 C  
ENDBRANCH   4  20
BRANCH   6  22
HETATM   22  O   UNL     1      -9.215  11.004  66.783  1.00  0.00    -0.157 OA 
BRANCH  22  23
HETATM   23  C   UNL     1      -8.450  10.018  67.329  1.00  0.00    -0.122 C  
HETATM   24  O   UNL     1      -7.229  10.027  67.451  1.00  0.00    -0.084 OA 
BRANCH  23  25
HETATM   25  C   UNL     1      -9.295   8.863  67.754  1.00  0.00    -0.157 A  
HETATM   26  C   UNL     1      -9.846   8.067  66.736  1.00  0.00    -0.327 A  
HETATM   27  C   UNL     1     -10.711   7.009  67.038  1.00  0.00    -0.423 A  
HETATM   28  C   UNL     1     -11.025   6.730  68.365  1.00  0.00    -0.257 A  
HETATM   29  C   UNL     1     -10.467   7.496  69.391  1.00  0.00    -0.222 A  
HETATM   30  C   UNL     1      -9.598   8.564  69.090  1.00  0.00    -0.167 A  
ENDBRANCH  23  25
ENDBRANCH  22  23
ENDBRANCH   6  22
TORSDOF 4
ENDMDL
MODEL       57
REMARK 921   NORMALIZED FREE ENERGY PREDICTED BY IDOCK:   -6.09 KCAL/MOL
REMARK 922        TOTAL FREE ENERGY PREDICTED BY IDOCK:   -8.07 KCAL/MOL
REMARK 923 INTER-LIGAND FREE ENERGY PREDICTED BY IDOCK:   -6.69 KCAL/MOL
REMARK 924 INTRA-LIGAND FREE ENERGY PREDICTED BY IDOCK:   -1.39 KCAL/MOL
REMARK 927      BINDING AFFINITY PREDICTED BY RF-SCORE:    0.00 PKD
ROOT
HETATM    1  C   UNL     1      -9.922   8.828  68.991  1.00  0.00    -0.191 C  
HETATM    2  O   UNL     1     -10.051  10.253  69.214  1.00  0.00    -0.203 OA 
HETATM    3  C   UNL     1     -11.200  10.333  69.983  1.00  0.00    -0.311 A  
HETATM    4  C   UNL     1     -11.990  11.419  70.256  1.00  0.00    -0.373 A  
HETATM    5  C   UNL     1     -12.940  11.251  71.289  1.00  0.00    -0.427 A  
HETATM    6  C   UNL     1      -8.519   8.326  68.750  1.00  0.00    -0.125 C  
HETATM    7  C   UNL     1      -7.671   8.227  69.804  1.00  0.00    -0.098 C  
HETATM    8  C   UNL     1     -13.022  10.064  72.079  1.00  0.00    -0.514 A  
HETATM    9  C   UNL     1     -12.196   8.987  71.788  1.00  0.00    -0.434 A  
HETATM   10  C   UNL     1     -11.438   9.137  70.641  1.00  0.00    -0.310 A  
HETATM   11  C   UNL     1     -10.494   8.099  70.190  1.00  0.00    -0.225 C  
HETATM   12  C   UNL     1     -11.270   6.831  69.767  1.00  0.00    -0.368 C  
HETATM   13  C   UNL     1     -10.622   5.601  70.354  1.00  0.00    -0.294 C  
HETATM   14  N   UNL     1     -10.529   5.661  71.820  1.00  0.00    -0.222 NA 
HETATM   15  C   UNL     1      -9.439   4.763  72.222  1.00  0.00    -0.136 C  
HETATM   16  C   UNL     1     -10.421   7.042  72.377  1.00  0.00    -0.209 C  
HETATM   17  C   UNL     1     -11.904   7.734  72.631  1.00  0.00    -0.317 C  
HETATM   18  C   UNL     1      -9.617   7.987  71.455  1.00  0.00    -0.195 C  
HETATM   19  C   UNL     1      -8.123   7.800  71.188  1.00  0.00    -0.095 C  
ENDROOT
BRANCH   4  20
HETATM   20  O   UNL     1     -11.977  12.631  69.631  1.00  0.00    -0.315 OA 
HETATM   21  C   UNL     1     -12.173  13.797  70.428  1.00  0.00    -0.363 C  
ENDBRANCH   4  20
BRANCH   6  22
HETATM   22  O   UNL     1      -8.616   7.219  67.813  1.00  0.00    -0.120 OA 
BRANCH  22  23
HETATM   23  C   UNL     1      -7.586   6.373  67.534  1.00  0.00    -0.100 C  
HETATM   24  O   UNL     1      -6.542   6.663  66.956  1.00  0.00    -0.044 OA 
BRANCH  23  25
HETATM   25  C   UNL     1      -7.893   4.989  68.000  1.00  0.00    -0.087 A  
HETATM   26  C   UNL     1      -8.914   4.300  67.324  1.00  0.00    -0.135 A  
HETATM   27  C   UNL     1      -9.320   3.027  67.740  1.00  0.00    -0.251 A  
HETATM   28  C   UNL     1      -8.699   2.425  68.831  1.00  0.00    -0.130 A  
HETATM   29  C   UNL     1      -7.666   3.085  69.499  1.00  0.00    -0.045 A  
HETATM   30  C   UNL     1      -7.256   4.369  69.085  1.00  0.00    -0.052 A  
ENDBRANCH  23  25
ENDBRANCH  22  23
ENDBRANCH   6  22
TORSDOF 4
ENDMDL
MODEL       58
REMARK 921   NORMALIZED FREE ENERGY PREDICTED BY IDOCK:   -6.09 KCAL/MOL
REMARK 922        TOTAL FREE ENERGY PREDICTED BY IDOCK:   -8.07 KCAL/MOL
REMARK 923 INTER-LIGAND FREE ENERGY PREDICTED BY IDOCK:   -7.26 KCAL/MOL
REMARK 924 INTRA-LIGAND FREE ENERGY PREDICTED BY IDOCK:   -0.81 KCAL/MOL
REMARK 927      BINDING AFFINITY PREDICTED BY RF-SCORE:    0.00 PKD
ROOT
HETATM    1  C   UNL     1     -10.164   9.279  68.541  1.00  0.00    -0.201 C  
HETATM    2  O   UNL     1     -10.406   8.712  69.851  1.00  0.00    -0.199 OA 
HETATM    3  C   UNL     1     -10.419   7.352  69.591  1.00  0.00    -0.232 A  
HETATM    4  C   UNL     1     -10.890   6.323  70.364  1.00  0.00    -0.299 A  
HETATM    5  C   UNL     1     -10.521   5.021  69.955  1.00  0.00    -0.226 A  
HETATM    6  C   UNL     1      -9.484  10.627  68.525  1.00  0.00    -0.176 C  
HETATM    7  C   UNL     1      -8.154  10.691  68.787  1.00  0.00    -0.139 C  
HETATM    8  C   UNL     1      -9.632   4.776  68.865  1.00  0.00    -0.229 A  
HETATM    9  C   UNL     1      -9.159   5.840  68.112  1.00  0.00    -0.110 A  
HETATM   10  C   UNL     1      -9.718   7.064  68.432  1.00  0.00    -0.139 A  
HETATM   11  C   UNL     1      -9.320   8.306  67.743  1.00  0.00    -0.153 C  
HETATM   12  C   UNL     1      -9.761   8.251  66.263  1.00  0.00    -0.253 C  
HETATM   13  C   UNL     1      -8.635   8.700  65.364  1.00  0.00    -0.181 C  
HETATM   14  N   UNL     1      -7.416   7.900  65.550  1.00  0.00    -0.076 NA 
HETATM   15  C   UNL     1      -6.285   8.721  65.099  1.00  0.00    -0.060 C  
HETATM   16  C   UNL     1      -7.251   7.331  66.921  1.00  0.00    -0.088 C  
HETATM   17  C   UNL     1      -8.010   5.869  67.088  1.00  0.00    -0.102 C  
HETATM   18  C   UNL     1      -7.801   8.272  68.017  1.00  0.00    -0.118 C  
HETATM   19  C   UNL     1      -7.172   9.631  68.327  1.00  0.00    -0.079 C  
ENDROOT
BRANCH   4  20
HETATM   20  O   UNL     1     -11.689   6.413  71.465  1.00  0.00    -0.308 OA 
HETATM   21  C   UNL     1     -11.383   5.584  72.584  1.00  0.00    -0.291 C  
ENDBRANCH   4  20
BRANCH   6  22
HETATM   22  O   UNL     1     -10.018  11.362  67.390  1.00  0.00    -0.184 OA 
BRANCH  22  23
HETATM   23  C   UNL     1     -11.310  11.781  67.302  1.00  0.00    -0.315 C  
HETATM   24  O   UNL     1     -12.151  11.740  68.196  1.00  0.00    -0.556 OA 
BRANCH  23  25
HETATM   25  C   UNL     1     -11.613  12.289  65.931  1.00  0.00    -0.450 A  
HETATM   26  C   UNL     1     -11.088  11.560  64.851  1.00  0.00    -0.282 A  
HETATM   27  C   UNL     1     -11.258  12.003  63.534  1.00  0.00    -0.526 A  
HETATM   28  C   UNL     1     -11.967  13.176  63.285  1.00  0.00    -0.445 A  
HETATM   29  C   UNL     1     -12.516  13.899  64.345  1.00  0.00    -0.321 A  
HETATM   30  C   UNL     1     -12.344  13.457  65.673  1.00  0.00    -0.521 A  
ENDBRANCH  23  25
ENDBRANCH  22  23
ENDBRANCH   6  22
TORSDOF 4
ENDMDL
MODEL       59
REMARK 921   NORMALIZED FREE ENERGY PREDICTED BY IDOCK:   -6.03 KCAL/MOL
REMARK 922        TOTAL FREE ENERGY PREDICTED BY IDOCK:   -8.00 KCAL/MOL
REMARK 923 INTER-LIGAND FREE ENERGY PREDICTED BY IDOCK:   -6.66 KCAL/MOL
REMARK 924 INTRA-LIGAND FREE ENERGY PREDICTED BY IDOCK:   -1.34 KCAL/MOL
REMARK 927      BINDING AFFINITY PREDICTED BY RF-SCORE:    0.00 PKD
ROOT
HETATM    1  C   UNL     1      -9.640   8.724  69.453  1.00  0.00    -0.163 C  
HETATM    2  O   UNL     1      -9.621  10.171  69.422  1.00  0.00    -0.210 OA 
HETATM    3  C   UNL     1     -10.891  10.497  69.865  1.00  0.00    -0.276 A  
HETATM    4  C   UNL     1     -11.567  11.686  69.771  1.00  0.00    -0.315 A  
HETATM    5  C   UNL     1     -12.739  11.797  70.553  1.00  0.00    -0.132 A  
HETATM    6  C   UNL     1      -8.302   8.052  69.641  1.00  0.00    -0.126 C  
HETATM    7  C   UNL     1      -7.734   8.060  70.873  1.00  0.00    -0.084 C  
HETATM    8  C   UNL     1     -13.158  10.782  71.467  1.00  0.00    -0.517 A  
HETATM    9  C   UNL     1     -12.443   9.596  71.551  1.00  0.00    -0.476 A  
HETATM   10  C   UNL     1     -11.433   9.466  70.616  1.00  0.00    -0.344 A  
HETATM   11  C   UNL     1     -10.563   8.277  70.570  1.00  0.00    -0.233 C  
HETATM   12  C   UNL     1     -11.388   7.036  70.164  1.00  0.00    -0.321 C  
HETATM   13  C   UNL     1     -11.064   5.872  71.068  1.00  0.00    -0.245 C  
HETATM   14  N   UNL     1     -11.296   6.182  72.486  1.00  0.00    -0.283 NA 
HETATM   15  C   UNL     1     -10.458   5.269  73.273  1.00  0.00    -0.224 C  
HETATM   16  C   UNL     1     -11.129   7.624  72.841  1.00  0.00    -0.393 C  
HETATM   17  C   UNL     1     -12.523   8.490  72.617  1.00  0.00    -0.276 C  
HETATM   18  C   UNL     1     -10.016   8.307  72.013  1.00  0.00    -0.327 C  
HETATM   19  C   UNL     1      -8.540   7.932  72.152  1.00  0.00    -0.185 C  
ENDROOT
BRANCH   4  20
HETATM   20  O   UNL     1     -11.248  12.761  68.995  1.00  0.00    -0.254 OA 
HETATM   21  C   UNL     1     -11.774  12.810  67.670  1.00  0.00    -0.367 C  
ENDBRANCH   4  20
BRANCH   6  22
HETATM   22  O   UNL     1      -8.334   6.811  68.884  1.00  0.00    -0.119 OA 
BRANCH  22  23
HETATM   23  C   UNL     1      -7.430   5.806  69.043  1.00  0.00    -0.084 C  
HETATM   24  O   UNL     1      -6.240   5.843  68.740  1.00  0.00    -0.029 OA 
BRANCH  23  25
HETATM   25  C   UNL     1      -8.079   4.592  69.619  1.00  0.00    -0.064 A  
HETATM   26  C   UNL     1      -7.712   4.232  70.927  1.00  0.00    -0.059 A  
HETATM   27  C   UNL     1      -8.213   3.067  71.520  1.00  0.00    -0.069 A  
HETATM   28  C   UNL     1      -9.096   2.256  70.812  1.00  0.00    -0.169 A  
HETATM   29  C   UNL     1      -9.491   2.612  69.521  1.00  0.00    -0.134 A  
HETATM   30  C   UNL     1      -8.985   3.783  68.920  1.00  0.00    -0.178 A  
ENDBRANCH  23  25
ENDBRANCH  22  23
ENDBRANCH   6  22
TORSDOF 4
ENDMDL
MODEL       60
REMARK 921   NORMALIZED FREE ENERGY PREDICTED BY IDOCK:   -5.99 KCAL/MOL
REMARK 922        TOTAL FREE ENERGY PREDICTED BY IDOCK:   -7.95 KCAL/MOL
REMARK 923 INTER-LIGAND FREE ENERGY PREDICTED BY IDOCK:   -7.14 KCAL/MOL
REMARK 924 INTRA-LIGAND FREE ENERGY PREDICTED BY IDOCK:   -0.81 KCAL/MOL
REMARK 927      BINDING AFFINITY PREDICTED BY RF-SCORE:    0.00 PKD
ROOT
HETATM    1  C   UNL     1      -8.806   7.486  69.782  1.00  0.00    -0.141 C  
HETATM    2  O   UNL     1      -7.935   6.331  69.836  1.00  0.00    -0.110 OA 
HETATM    3  C   UNL     1      -7.655   6.229  71.188  1.00  0.00    -0.094 A  
HETATM    4  C   UNL     1      -6.663   5.526  71.821  1.00  0.00    -0.061 A  
HETATM    5  C   UNL     1      -6.793   5.395  73.222  1.00  0.00    -0.079 A  
HETATM    6  C   UNL     1      -9.778   7.522  68.628  1.00  0.00    -0.154 C  
HETATM    7  C   UNL     1     -10.868   6.715  68.665  1.00  0.00    -0.319 C  
HETATM    8  C   UNL     1      -7.930   5.873  73.942  1.00  0.00    -0.102 A  
HETATM    9  C   UNL     1      -8.925   6.567  73.270  1.00  0.00    -0.138 A  
HETATM   10  C   UNL     1      -8.641   6.841  71.944  1.00  0.00    -0.120 A  
HETATM   11  C   UNL     1      -9.593   7.556  71.075  1.00  0.00    -0.162 C  
HETATM   12  C   UNL     1      -9.758   9.013  71.562  1.00  0.00    -0.365 C  
HETATM   13  C   UNL     1     -11.219   9.390  71.603  1.00  0.00    -0.361 C  
HETATM   14  N   UNL     1     -12.007   8.488  72.457  1.00  0.00    -0.373 NA 
HETATM   15  C   UNL     1     -13.400   8.567  72.001  1.00  0.00    -0.369 C  
HETATM   16  C   UNL     1     -11.471   7.097  72.548  1.00  0.00    -0.258 C  
HETATM   17  C   UNL     1     -10.340   6.938  73.747  1.00  0.00    -0.409 C  
HETATM   18  C   UNL     1     -10.819   6.630  71.226  1.00  0.00    -0.279 C  
HETATM   19  C   UNL     1     -11.624   6.412  69.945  1.00  0.00    -0.422 C  
ENDROOT
BRANCH   4  20
HETATM   20  O   UNL     1      -5.559   4.960  71.256  1.00  0.00    -0.011 OA 
HETATM   21  C   UNL     1      -5.638   3.595  70.850  1.00  0.00    -0.012 C  
ENDBRANCH   4  20
BRANCH   6  22
HETATM   22  O   UNL     1      -9.942   8.916  68.250  1.00  0.00    -0.163 OA 
BRANCH  22  23
HETATM   23  C   UNL     1     -10.038   9.343  66.961  1.00  0.00    -0.240 C  
HETATM   24  O   UNL     1      -9.652   8.740  65.963  1.00  0.00    -0.245 OA 
BRANCH  23  25
HETATM   25  C   UNL     1     -10.662  10.698  66.894  1.00  0.00    -0.297 A  
HETATM   26  C   UNL     1     -11.192  11.216  68.087  1.00  0.00    -0.356 A  
HETATM   27  C   UNL     1     -11.862  12.445  68.103  1.00  0.00    -0.372 A  
HETATM   28  C   UNL     1     -11.997  13.174  66.924  1.00  0.00    -0.421 A  
HETATM   29  C   UNL     1     -11.454  12.686  65.734  1.00  0.00    -0.399 A  
HETATM   30  C   UNL     1     -10.782  11.446  65.714  1.00  0.00    -0.309 A  
ENDBRANCH  23  25
ENDBRANCH  22  23
ENDBRANCH   6  22
TORSDOF 4
ENDMDL
MODEL       61
REMARK 921   NORMALIZED FREE ENERGY PREDICTED BY IDOCK:   -5.97 KCAL/MOL
REMARK 922        TOTAL FREE ENERGY PREDICTED BY IDOCK:   -7.93 KCAL/MOL
REMARK 923 INTER-LIGAND FREE ENERGY PREDICTED BY IDOCK:   -7.10 KCAL/MOL
REMARK 924 INTRA-LIGAND FREE ENERGY PREDICTED BY IDOCK:   -0.83 KCAL/MOL
REMARK 927      BINDING AFFINITY PREDICTED BY RF-SCORE:    0.00 PKD
ROOT
HETATM    1  C   UNL     1      -9.902  10.405  69.025  1.00  0.00    -0.212 C  
HETATM    2  O   UNL     1     -11.140  11.105  69.297  1.00  0.00    -0.225 OA 
HETATM    3  C   UNL     1     -11.133  12.109  68.343  1.00  0.00    -0.245 A  
HETATM    4  C   UNL     1     -11.879  13.257  68.283  1.00  0.00    -0.354 A  
HETATM    5  C   UNL     1     -11.848  13.953  67.053  1.00  0.00    -0.447 A  
HETATM    6  C   UNL     1      -9.871   8.948  69.418  1.00  0.00    -0.183 C  
HETATM    7  C   UNL     1     -10.536   8.050  68.648  1.00  0.00    -0.196 C  
HETATM    8  C   UNL     1     -11.166  13.457  65.901  1.00  0.00    -0.314 A  
HETATM    9  C   UNL     1     -10.433  12.282  65.989  1.00  0.00    -0.284 A  
HETATM   10  C   UNL     1     -10.334  11.761  67.266  1.00  0.00    -0.231 A  
HETATM   11  C   UNL     1      -9.605  10.510  67.543  1.00  0.00    -0.181 C  
HETATM   12  C   UNL     1      -8.096  10.710  67.277  1.00  0.00    -0.116 C  
HETATM   13  C   UNL     1      -7.547   9.555  66.477  1.00  0.00    -0.094 C  
HETATM   14  N   UNL     1      -8.256   9.370  65.202  1.00  0.00    -0.128 NA 
HETATM   15  C   UNL     1      -8.060   7.972  64.796  1.00  0.00    -0.143 C  
HETATM   16  C   UNL     1      -9.683   9.808  65.217  1.00  0.00    -0.300 C  
HETATM   17  C   UNL     1      -9.849  11.416  64.860  1.00  0.00    -0.301 C  
HETATM   18  C   UNL     1     -10.359   9.561  66.586  1.00  0.00    -0.280 C  
HETATM   19  C   UNL     1     -10.613   8.158  67.137  1.00  0.00    -0.355 C  
ENDROOT
BRANCH   4  20
HETATM   20  O   UNL     1     -12.628  13.812  69.278  1.00  0.00    -0.116 OA 
HETATM   21  C   UNL     1     -11.964  14.195  70.481  1.00  0.00    -0.323 C  
ENDBRANCH   4  20
BRANCH   6  22
HETATM   22  O   UNL     1      -8.515   8.649  69.845  1.00  0.00    -0.122 OA 
BRANCH  22  23
HETATM   23  C   UNL     1      -8.119   8.632  71.147  1.00  0.00    -0.146 C  
HETATM   24  O   UNL     1      -7.203   9.285  71.638  1.00  0.00    -0.321 OA 
BRANCH  23  25
HETATM   25  C   UNL     1      -8.936   7.665  71.939  1.00  0.00    -0.149 A  
HETATM   26  C   UNL     1      -8.767   6.301  71.651  1.00  0.00    -0.134 A  
HETATM   27  C   UNL     1      -9.545   5.328  72.290  1.00  0.00    -0.180 A  
HETATM   28  C   UNL     1     -10.494   5.713  73.234  1.00  0.00    -0.256 A  
HETATM   29  C   UNL     1     -10.658   7.063  73.550  1.00  0.00    -0.405 A  
HETATM   30  C   UNL     1      -9.878   8.045  72.906  1.00  0.00    -0.357 A  
ENDBRANCH  23  25
ENDBRANCH  22  23
ENDBRANCH   6  22
TORSDOF 4
ENDMDL
MODEL       62
REMARK 921   NORMALIZED FREE ENERGY PREDICTED BY IDOCK:   -5.89 KCAL/MOL
REMARK 922        TOTAL FREE ENERGY PREDICTED BY IDOCK:   -7.82 KCAL/MOL
REMARK 923 INTER-LIGAND FREE ENERGY PREDICTED BY IDOCK:   -7.08 KCAL/MOL
REMARK 924 INTRA-LIGAND FREE ENERGY PREDICTED BY IDOCK:   -0.75 KCAL/MOL
REMARK 927      BINDING AFFINITY PREDICTED BY RF-SCORE:    0.00 PKD
ROOT
HETATM    1  C   UNL     1     -10.604   7.859  69.216  1.00  0.00    -0.188 C  
HETATM    2  O   UNL     1     -11.149   6.775  68.426  1.00  0.00    -0.210 OA 
HETATM    3  C   UNL     1     -10.053   5.945  68.259  1.00  0.00    -0.166 A  
HETATM    4  C   UNL     1      -9.864   4.923  67.366  1.00  0.00    -0.178 A  
HETATM    5  C   UNL     1      -8.755   4.081  67.613  1.00  0.00    -0.118 A  
HETATM    6  C   UNL     1     -11.590   8.595  70.091  1.00  0.00     0.087 C  
HETATM    7  C   UNL     1     -12.026   7.998  71.229  1.00  0.00    -0.321 C  
HETATM    8  C   UNL     1      -7.929   4.210  68.771  1.00  0.00    -0.072 A  
HETATM    9  C   UNL     1      -8.157   5.245  69.665  1.00  0.00    -0.091 A  
HETATM   10  C   UNL     1      -9.120   6.153  69.262  1.00  0.00    -0.129 A  
HETATM   11  C   UNL     1      -9.501   7.306  70.097  1.00  0.00    -0.165 C  
HETATM   12  C   UNL     1      -8.315   8.290  70.208  1.00  0.00    -0.123 C  
HETATM   13  C   UNL     1      -8.126   8.724  71.641  1.00  0.00    -0.096 C  
HETATM   14  N   UNL     1      -7.914   7.586  72.547  1.00  0.00    -0.099 NA 
HETATM   15  C   UNL     1      -8.302   8.027  73.893  1.00  0.00    -0.260 C  
HETATM   16  C   UNL     1      -8.565   6.315  72.109  1.00  0.00    -0.126 C  
HETATM   17  C   UNL     1      -7.601   5.438  71.087  1.00  0.00    -0.097 C  
HETATM   18  C   UNL     1      -9.909   6.562  71.386  1.00  0.00    -0.191 C  
HETATM   19  C   UNL     1     -11.134   7.135  72.100  1.00  0.00    -0.282 C  
ENDROOT
BRANCH   4  20
HETATM   20  O   UNL     1     -10.608   4.642  66.259  1.00  0.00    -0.278 OA 
HETATM   21  C   UNL     1      -9.935   4.124  65.113  1.00  0.00    -0.210 C  
ENDBRANCH   4  20
BRANCH   6  22
HETATM   22  O   UNL     1     -11.167   9.985  70.137  1.00  0.00    -0.263 OA 
BRANCH  22  23
HETATM   23  C   UNL     1     -11.784  10.985  69.450  1.00  0.00    -0.323 C  
HETATM   24  O   UNL     1     -11.957  11.034  68.235  1.00  0.00    -0.593 OA 
BRANCH  23  25
HETATM   25  C   UNL     1     -12.214  12.078  70.371  1.00  0.00    -0.379 A  
HETATM   26  C   UNL     1     -13.010  11.710  71.470  1.00  0.00    -0.463 A  
HETATM   27  C   UNL     1     -13.522  12.676  72.343  1.00  0.00    -0.450 A  
HETATM   28  C   UNL     1     -13.232  14.022  72.132  1.00  0.00    -0.526 A  
HETATM   29  C   UNL     1     -12.422  14.403  71.060  1.00  0.00    -0.425 A  
HETATM   30  C   UNL     1     -11.908  13.432  70.176  1.00  0.00    -0.342 A  
ENDBRANCH  23  25
ENDBRANCH  22  23
ENDBRANCH   6  22
TORSDOF 4
ENDMDL
MODEL       63
REMARK 921   NORMALIZED FREE ENERGY PREDICTED BY IDOCK:   -5.89 KCAL/MOL
REMARK 922        TOTAL FREE ENERGY PREDICTED BY IDOCK:   -7.82 KCAL/MOL
REMARK 923 INTER-LIGAND FREE ENERGY PREDICTED BY IDOCK:   -7.07 KCAL/MOL
REMARK 924 INTRA-LIGAND FREE ENERGY PREDICTED BY IDOCK:   -0.76 KCAL/MOL
REMARK 927      BINDING AFFINITY PREDICTED BY RF-SCORE:    0.00 PKD
ROOT
HETATM    1  C   UNL     1     -10.320   8.354  69.354  1.00  0.00    -0.215 C  
HETATM    2  O   UNL     1      -9.904   8.374  70.740  1.00  0.00    -0.175 OA 
HETATM    3  C   UNL     1     -10.112   7.063  71.136  1.00  0.00    -0.187 A  
HETATM    4  C   UNL     1     -10.185   6.536  72.399  1.00  0.00    -0.185 A  
HETATM    5  C   UNL     1     -10.134   5.126  72.486  1.00  0.00    -0.226 A  
HETATM    6  C   UNL     1      -9.674   9.382  68.459  1.00  0.00    -0.149 C  
HETATM    7  C   UNL     1      -8.389   9.191  68.065  1.00  0.00    -0.120 C  
HETATM    8  C   UNL     1      -9.922   4.288  71.350  1.00  0.00    -0.238 A  
HETATM    9  C   UNL     1      -9.836   4.853  70.086  1.00  0.00    -0.309 A  
HETATM   10  C   UNL     1     -10.099   6.210  70.044  1.00  0.00    -0.228 A  
HETATM   11  C   UNL     1     -10.038   6.977  68.786  1.00  0.00    -0.170 C  
HETATM   12  C   UNL     1     -11.161   6.513  67.832  1.00  0.00    -0.352 C  
HETATM   13  C   UNL     1     -10.614   6.306  66.441  1.00  0.00     0.013 C  
HETATM   14  N   UNL     1      -9.507   5.339  66.412  1.00  0.00    -0.146 NA 
HETATM   15  C   UNL     1      -8.713   5.625  65.210  1.00  0.00    -0.118 C  
HETATM   16  C   UNL     1      -8.707   5.275  67.672  1.00  0.00    -0.106 C  
HETATM   17  C   UNL     1      -9.353   4.218  68.770  1.00  0.00    -0.216 C  
HETATM   18  C   UNL     1      -8.588   6.653  68.363  1.00  0.00    -0.124 C  
HETATM   19  C   UNL     1      -7.822   7.822  67.742  1.00  0.00    -0.123 C  
ENDROOT
BRANCH   4  20
HETATM   20  O   UNL     1     -10.322   7.215  73.573  1.00  0.00    -0.304 OA 
HETATM   21  C   UNL     1      -9.286   7.089  74.545  1.00  0.00    -0.169 C  
ENDBRANCH   4  20
BRANCH   6  22
HETATM   22  O   UNL     1     -10.666   9.775  67.472  1.00  0.00    -0.264 OA 
BRANCH  22  23
HETATM   23  C   UNL     1     -11.396  10.921  67.550  1.00  0.00    -0.232 C  
HETATM   24  O   UNL     1     -12.069  11.292  68.508  1.00  0.00    -0.573 OA 
BRANCH  23  25
HETATM   25  C   UNL     1     -11.311  11.695  66.276  1.00  0.00    -0.293 A  
HETATM   26  C   UNL     1     -10.316  11.311  65.362  1.00  0.00    -0.328 A  
HETATM   27  C   UNL     1     -10.114  12.026  64.176  1.00  0.00    -0.340 A  
HETATM   28  C   UNL     1     -10.914  13.129  63.888  1.00  0.00    -0.308 A  
HETATM   29  C   UNL     1     -11.924  13.510  64.774  1.00  0.00    -0.424 A  
HETATM   30  C   UNL     1     -12.128  12.793  65.971  1.00  0.00    -0.458 A  
ENDBRANCH  23  25
ENDBRANCH  22  23
ENDBRANCH   6  22
TORSDOF 4
ENDMDL
MODEL       64
REMARK 921   NORMALIZED FREE ENERGY PREDICTED BY IDOCK:   -5.89 KCAL/MOL
REMARK 922        TOTAL FREE ENERGY PREDICTED BY IDOCK:   -7.82 KCAL/MOL
REMARK 923 INTER-LIGAND FREE ENERGY PREDICTED BY IDOCK:   -7.07 KCAL/MOL
REMARK 924 INTRA-LIGAND FREE ENERGY PREDICTED BY IDOCK:   -0.75 KCAL/MOL
REMARK 927      BINDING AFFINITY PREDICTED BY RF-SCORE:    0.00 PKD
ROOT
HETATM    1  C   UNL     1     -10.182   8.119  70.065  1.00  0.00    -0.202 C  
HETATM    2  O   UNL     1     -11.529   8.109  70.595  1.00  0.00    -0.278 OA 
HETATM    3  C   UNL     1     -11.776   9.454  70.813  1.00  0.00    -0.282 A  
HETATM    4  C   UNL     1     -12.752  10.049  71.569  1.00  0.00    -0.429 A  
HETATM    5  C   UNL     1     -12.919  11.440  71.384  1.00  0.00    -0.468 A  
HETATM    6  C   UNL     1      -9.825   6.965  69.160  1.00  0.00    -0.156 C  
HETATM    7  C   UNL     1     -10.311   6.953  67.893  1.00  0.00    -0.239 C  
HETATM    8  C   UNL     1     -12.193  12.182  70.403  1.00  0.00    -0.378 A  
HETATM    9  C   UNL     1     -11.223  11.548  69.641  1.00  0.00    -0.276 A  
HETATM   10  C   UNL     1     -10.964  10.241  70.012  1.00  0.00    -0.371 A  
HETATM   11  C   UNL     1      -9.974   9.411  69.302  1.00  0.00    -0.182 C  
HETATM   12  C   UNL     1      -8.554   9.980  69.523  1.00  0.00    -0.197 C  
HETATM   13  C   UNL     1      -7.803  10.038  68.215  1.00  0.00    -0.089 C  
HETATM   14  N   UNL     1      -8.506  10.836  67.200  1.00  0.00    -0.125 NA 
HETATM   15  C   UNL     1      -8.032  10.381  65.887  1.00  0.00    -0.151 C  
HETATM   16  C   UNL     1      -9.992  10.850  67.343  1.00  0.00    -0.186 C  
HETATM   17  C   UNL     1     -10.512  12.041  68.368  1.00  0.00    -0.231 C  
HETATM   18  C   UNL     1     -10.545   9.505  67.870  1.00  0.00    -0.299 C  
HETATM   19  C   UNL     1     -10.470   8.211  67.060  1.00  0.00    -0.396 C  
ENDROOT
BRANCH   4  20
HETATM   20  O   UNL     1     -13.561   9.456  72.492  1.00  0.00    -0.459 OA 
HETATM   21  C   UNL     1     -14.410   8.396  72.056  1.00  0.00    -0.464 C  
ENDBRANCH   4  20
BRANCH   6  22
HETATM   22  O   UNL     1      -8.419   6.667  69.381  1.00  0.00    -0.129 OA 
BRANCH  22  23
HETATM   23  C   UNL     1      -7.922   5.404  69.484  1.00  0.00    -0.089 C  
HETATM   24  O   UNL     1      -7.165   4.852  68.690  1.00  0.00    -0.056 OA 
BRANCH  23  25
HETATM   25  C   UNL     1      -8.449   4.723  70.704  1.00  0.00    -0.106 A  
HETATM   26  C   UNL     1      -9.095   3.490  70.518  1.00  0.00    -0.192 A  
HETATM   27  C   UNL     1      -9.686   2.817  71.594  1.00  0.00    -0.226 A  
HETATM   28  C   UNL     1      -9.624   3.368  72.872  1.00  0.00    -0.167 A  
HETATM   29  C   UNL     1      -8.964   4.581  73.079  1.00  0.00    -0.122 A  
HETATM   30  C   UNL     1      -8.371   5.262  71.996  1.00  0.00    -0.122 A  
ENDBRANCH  23  25
ENDBRANCH  22  23
ENDBRANCH   6  22
TORSDOF 4
ENDMDL
MODEL       65
REMARK 921   NORMALIZED FREE ENERGY PREDICTED BY IDOCK:   -5.85 KCAL/MOL
REMARK 922        TOTAL FREE ENERGY PREDICTED BY IDOCK:   -7.78 KCAL/MOL
REMARK 923 INTER-LIGAND FREE ENERGY PREDICTED BY IDOCK:   -7.25 KCAL/MOL
REMARK 924 INTRA-LIGAND FREE ENERGY PREDICTED BY IDOCK:   -0.53 KCAL/MOL
REMARK 927      BINDING AFFINITY PREDICTED BY RF-SCORE:    0.00 PKD
ROOT
HETATM    1  C   UNL     1     -10.721  15.719  68.166  1.00  0.00    -0.285 C  
HETATM    2  O   UNL     1     -10.765  17.125  67.824  1.00  0.00    -0.361 OA 
HETATM    3  C   UNL     1      -9.551  17.588  68.303  1.00  0.00    -0.299 A  
HETATM    4  C   UNL     1      -9.143  18.875  68.541  1.00  0.00    -0.352 A  
HETATM    5  C   UNL     1      -7.760  19.055  68.771  1.00  0.00    -0.382 A  
HETATM    6  C   UNL     1     -11.537  14.804  67.286  1.00  0.00    -0.369 C  
HETATM    7  C   UNL     1     -11.076  14.506  66.046  1.00  0.00    -0.329 C  
HETATM    8  C   UNL     1      -6.814  17.990  68.668  1.00  0.00    -0.249 A  
HETATM    9  C   UNL     1      -7.257  16.701  68.410  1.00  0.00    -0.173 A  
HETATM   10  C   UNL     1      -8.632  16.556  68.401  1.00  0.00    -0.213 A  
HETATM   11  C   UNL     1      -9.277  15.259  68.128  1.00  0.00    -0.183 C  
HETATM   12  C   UNL     1      -8.967  14.266  69.270  1.00  0.00     0.272 C  
HETATM   13  C   UNL     1      -8.556  12.928  68.704  1.00  0.00     0.053 C  
HETATM   14  N   UNL     1      -7.396  13.032  67.807  1.00  0.00    -0.123 NA 
HETATM   15  C   UNL     1      -7.435  11.868  66.912  1.00  0.00    -0.079 C  
HETATM   16  C   UNL     1      -7.275  14.342  67.100  1.00  0.00     0.197 C  
HETATM   17  C   UNL     1      -6.445  15.462  67.994  1.00  0.00    -0.148 C  
HETATM   18  C   UNL     1      -8.652  14.951  66.750  1.00  0.00    -0.256 C  
HETATM   19  C   UNL     1      -9.604  14.307  65.741  1.00  0.00    -0.188 C  
ENDROOT
BRANCH   4  20
HETATM   20  O   UNL     1      -9.922  19.993  68.602  1.00  0.00    -0.391 OA 
HETATM   21  C   UNL     1     -10.067  20.774  67.418  1.00  0.00    -0.100 C  
ENDBRANCH   4  20
BRANCH   6  22
HETATM   22  O   UNL     1     -12.038  13.732  68.132  1.00  0.00    -0.364 OA 
BRANCH  22  23
HETATM   23  C   UNL     1     -12.024  12.419  67.774  1.00  0.00    -0.186 C  
HETATM   24  O   UNL     1     -12.154  11.972  66.637  1.00  0.00    -0.615 OA 
BRANCH  23  25
HETATM   25  C   UNL     1     -11.858  11.543  68.971  1.00  0.00    -0.408 A  
HETATM   26  C   UNL     1     -11.148  10.343  68.791  1.00  0.00    -0.298 A  
HETATM   27  C   UNL     1     -11.009   9.425  69.839  1.00  0.00    -0.251 A  
HETATM   28  C   UNL     1     -11.568   9.706  71.082  1.00  0.00    -0.456 A  
HETATM   29  C   UNL     1     -12.255  10.904  71.286  1.00  0.00    -0.395 A  
HETATM   30  C   UNL     1     -12.400  11.829  70.232  1.00  0.00    -0.320 A  
ENDBRANCH  23  25
ENDBRANCH  22  23
ENDBRANCH   6  22
TORSDOF 4
ENDMDL
MODEL       66
REMARK 921   NORMALIZED FREE ENERGY PREDICTED BY IDOCK:   -5.83 KCAL/MOL
REMARK 922        TOTAL FREE ENERGY PREDICTED BY IDOCK:   -7.75 KCAL/MOL
REMARK 923 INTER-LIGAND FREE ENERGY PREDICTED BY IDOCK:   -7.09 KCAL/MOL
REMARK 924 INTRA-LIGAND FREE ENERGY PREDICTED BY IDOCK:   -0.66 KCAL/MOL
REMARK 927      BINDING AFFINITY PREDICTED BY RF-SCORE:    0.00 PKD
ROOT
HETATM    1  C   UNL     1     -10.259  10.597  68.762  1.00  0.00    -0.190 C  
HETATM    2  O   UNL     1     -10.350  10.060  70.102  1.00  0.00    -0.263 OA 
HETATM    3  C   UNL     1     -10.808   8.773  69.880  1.00  0.00    -0.206 A  
HETATM    4  C   UNL     1     -11.365   7.883  70.760  1.00  0.00    -0.274 A  
HETATM    5  C   UNL     1     -11.486   6.550  70.303  1.00  0.00    -0.474 A  
HETATM    6  C   UNL     1      -9.245  11.697  68.562  1.00  0.00    -0.163 C  
HETATM    7  C   UNL     1      -7.929  11.372  68.509  1.00  0.00    -0.143 C  
HETATM    8  C   UNL     1     -10.975   6.116  69.042  1.00  0.00    -0.436 A  
HETATM    9  C   UNL     1     -10.401   7.039  68.179  1.00  0.00    -0.226 A  
HETATM   10  C   UNL     1     -10.500   8.354  68.595  1.00  0.00    -0.197 A  
HETATM   11  C   UNL     1      -9.932   9.464  67.809  1.00  0.00    -0.228 C  
HETATM   12  C   UNL     1     -10.694   9.607  66.473  1.00  0.00    -0.044 C  
HETATM   13  C   UNL     1      -9.721   9.763  65.329  1.00  0.00    -0.300 C  
HETATM   14  N   UNL     1      -8.772   8.643  65.244  1.00  0.00    -0.183 NA 
HETATM   15  C   UNL     1      -7.587   9.133  64.529  1.00  0.00    -0.107 C  
HETATM   16  C   UNL     1      -8.470   7.986  66.551  1.00  0.00    -0.136 C  
HETATM   17  C   UNL     1      -9.556   6.792  66.918  1.00  0.00    -0.200 C  
HETATM   18  C   UNL     1      -8.465   8.991  67.726  1.00  0.00    -0.117 C  
HETATM   19  C   UNL     1      -7.421  10.101  67.855  1.00  0.00    -0.088 C  
ENDROOT
BRANCH   4  20
HETATM   20  O   UNL     1     -11.834   8.141  72.014  1.00  0.00    -0.298 OA 
HETATM   21  C   UNL     1     -11.134   7.576  73.121  1.00  0.00    -0.326 C  
ENDBRANCH   4  20
BRANCH   6  22
HETATM   22  O   UNL     1      -9.790  12.607  67.567  1.00  0.00    -0.198 OA 
BRANCH  22  23
HETATM   23  C   UNL     1     -10.646  13.624  67.862  1.00  0.00    -0.249 C  
HETATM   24  O   UNL     1     -11.748  13.517  68.393  1.00  0.00    -0.315 OA 
BRANCH  23  25
HETATM   25  C   UNL     1     -10.087  14.935  67.419  1.00  0.00    -0.228 A  
HETATM   26  C   UNL     1      -8.766  14.937  66.941  1.00  0.00    -0.276 A  
HETATM   27  C   UNL     1      -8.134  16.131  66.575  1.00  0.00    -0.331 A  
HETATM   28  C   UNL     1      -8.825  17.336  66.673  1.00  0.00    -0.280 A  
HETATM   29  C   UNL     1     -10.147  17.350  67.122  1.00  0.00    -0.307 A  
HETATM   30  C   UNL     1     -10.785  16.149  67.495  1.00  0.00    -0.304 A  
ENDBRANCH  23  25
ENDBRANCH  22  23
ENDBRANCH   6  22
TORSDOF 4
ENDMDL
MODEL       67
REMARK 921   NORMALIZED FREE ENERGY PREDICTED BY IDOCK:   -5.83 KCAL/MOL
REMARK 922        TOTAL FREE ENERGY PREDICTED BY IDOCK:   -7.74 KCAL/MOL
REMARK 923 INTER-LIGAND FREE ENERGY PREDICTED BY IDOCK:   -6.94 KCAL/MOL
REMARK 924 INTRA-LIGAND FREE ENERGY PREDICTED BY IDOCK:   -0.80 KCAL/MOL
REMARK 927      BINDING AFFINITY PREDICTED BY RF-SCORE:    0.00 PKD
ROOT
HETATM    1  C   UNL     1      -9.193  12.934  67.980  1.00  0.00    -0.212 C  
HETATM    2  O   UNL     1      -8.787  13.996  68.877  1.00  0.00    -0.082 OA 
HETATM    3  C   UNL     1      -8.508  15.034  68.005  1.00  0.00    -0.149 A  
HETATM    4  C   UNL     1      -7.806  16.191  68.225  1.00  0.00    -0.153 A  
HETATM    5  C   UNL     1      -7.918  17.184  67.226  1.00  0.00    -0.200 A  
HETATM    6  C   UNL     1     -10.133  11.907  68.562  1.00  0.00    -0.206 C  
HETATM    7  C   UNL     1     -11.436  12.240  68.739  1.00  0.00    -0.360 C  
HETATM    8  C   UNL     1      -8.782  17.051  66.096  1.00  0.00    -0.254 A  
HETATM    9  C   UNL     1      -9.492  15.874  65.910  1.00  0.00    -0.372 A  
HETATM   10  C   UNL     1      -9.182  14.867  66.806  1.00  0.00    -0.281 A  
HETATM   11  C   UNL     1      -9.852  13.555  66.765  1.00  0.00    -0.267 C  
HETATM   12  C   UNL     1      -9.469  12.809  65.467  1.00  0.00     0.098 C  
HETATM   13  C   UNL     1     -10.698  12.219  64.820  1.00  0.00    -0.300 C  
HETATM   14  N   UNL     1     -11.719  13.234  64.527  1.00  0.00    -0.360 NA 
HETATM   15  C   UNL     1     -13.011  12.540  64.450  1.00  0.00    -0.153 C  
HETATM   16  C   UNL     1     -11.710  14.407  65.451  1.00  0.00    -0.362 C  
HETATM   17  C   UNL     1     -10.662  15.589  64.952  1.00  0.00    -0.415 C  
HETATM   18  C   UNL     1     -11.320  14.015  66.894  1.00  0.00    -0.343 C  
HETATM   19  C   UNL     1     -12.200  13.123  67.771  1.00  0.00    -0.124 C  
ENDROOT
BRANCH   4  20
HETATM   20  O   UNL     1      -6.998  16.481  69.284  1.00  0.00    -0.215 OA 
HETATM   21  C   UNL     1      -6.345  17.748  69.302  1.00  0.00    -0.246 C  
ENDBRANCH   4  20
BRANCH   6  22
HETATM   22  O   UNL     1      -9.806  10.630  67.947  1.00  0.00    -0.158 OA 
BRANCH  22  23
HETATM   23  C   UNL     1      -8.991   9.703  68.521  1.00  0.00    -0.124 C  
HETATM   24  O   UNL     1      -7.846   9.427  68.176  1.00  0.00    -0.087 OA 
BRANCH  23  25
HETATM   25  C   UNL     1      -9.687   9.005  69.643  1.00  0.00    -0.177 A  
HETATM   26  C   UNL     1     -10.605   7.999  69.297  1.00  0.00    -0.193 A  
HETATM   27  C   UNL     1     -11.357   7.344  70.279  1.00  0.00    -0.244 A  
HETATM   28  C   UNL     1     -11.189   7.682  71.619  1.00  0.00    -0.282 A  
HETATM   29  C   UNL     1     -10.264   8.662  71.982  1.00  0.00    -0.407 A  
HETATM   30  C   UNL     1      -9.506   9.326  70.996  1.00  0.00    -0.313 A  
ENDBRANCH  23  25
ENDBRANCH  22  23
ENDBRANCH   6  22
TORSDOF 4
ENDMDL
MODEL       68
REMARK 921   NORMALIZED FREE ENERGY PREDICTED BY IDOCK:   -5.82 KCAL/MOL
REMARK 922        TOTAL FREE ENERGY PREDICTED BY IDOCK:   -7.74 KCAL/MOL
REMARK 923 INTER-LIGAND FREE ENERGY PREDICTED BY IDOCK:   -7.48 KCAL/MOL
REMARK 924 INTRA-LIGAND FREE ENERGY PREDICTED BY IDOCK:   -0.26 KCAL/MOL
REMARK 927      BINDING AFFINITY PREDICTED BY RF-SCORE:    0.00 PKD
ROOT
HETATM    1  C   UNL     1      -9.513  15.103  66.970  1.00  0.00    -0.226 C  
HETATM    2  O   UNL     1      -8.739  14.011  67.519  1.00  0.00    -0.176 OA 
HETATM    3  C   UNL     1      -7.456  14.532  67.540  1.00  0.00    -0.194 A  
HETATM    4  C   UNL     1      -6.256  13.884  67.674  1.00  0.00    -0.095 A  
HETATM    5  C   UNL     1      -5.134  14.704  67.932  1.00  0.00    -0.059 A  
HETATM    6  C   UNL     1     -10.968  15.144  67.369  1.00  0.00    -0.314 C  
HETATM    7  C   UNL     1     -11.291  15.558  68.620  1.00  0.00    -0.348 C  
HETATM    8  C   UNL     1      -5.237  16.113  68.142  1.00  0.00    -0.110 A  
HETATM    9  C   UNL     1      -6.470  16.737  68.017  1.00  0.00    -0.152 A  
HETATM   10  C   UNL     1      -7.487  15.917  67.562  1.00  0.00    -0.194 A  
HETATM   11  C   UNL     1      -8.865  16.409  67.385  1.00  0.00    -0.194 C  
HETATM   12  C   UNL     1      -8.908  17.453  66.246  1.00  0.00    -0.236 C  
HETATM   13  C   UNL     1      -9.710  18.659  66.671  1.00  0.00    -0.341 C  
HETATM   14  N   UNL     1      -9.184  19.280  67.895  1.00  0.00    -0.307 NA 
HETATM   15  C   UNL     1     -10.288  20.025  68.512  1.00  0.00    -0.294 C  
HETATM   16  C   UNL     1      -8.491  18.334  68.820  1.00  0.00    -0.221 C  
HETATM   17  C   UNL     1      -6.888  18.154  68.447  1.00  0.00    -0.231 C  
HETATM   18  C   UNL     1      -9.134  16.928  68.814  1.00  0.00    -0.254 C  
HETATM   19  C   UNL     1     -10.546  16.667  69.339  1.00  0.00    -0.333 C  
ENDROOT
BRANCH   4  20
HETATM   20  O   UNL     1      -6.020  12.545  67.564  1.00  0.00    -0.125 OA 
HETATM   21  C   UNL     1      -6.413  11.705  68.646  1.00  0.00    -0.059 C  
ENDBRANCH   4  20
BRANCH   6  22
HETATM   22  O   UNL     1     -11.708  15.672  66.235  1.00  0.00     0.175 OA 
BRANCH  22  23
HETATM   23  C   UNL     1     -11.338  15.487  64.938  1.00  0.00    -0.335 C  
HETATM   24  O   UNL     1     -10.996  16.361  64.147  1.00  0.00    -0.717 OA 
BRANCH  23  25
HETATM   25  C   UNL     1     -11.427  14.045  64.560  1.00  0.00    -0.380 A  
HETATM   26  C   UNL     1     -10.217  13.368  64.336  1.00  0.00    -0.262 A  
HETATM   27  C   UNL     1     -10.206  12.037  63.904  1.00  0.00    -0.424 A  
HETATM   28  C   UNL     1     -11.410  11.365  63.705  1.00  0.00    -0.299 A  
HETATM   29  C   UNL     1     -12.621  12.015  63.947  1.00  0.00    -0.517 A  
HETATM   30  C   UNL     1     -12.635  13.358  64.378  1.00  0.00    -0.254 A  
ENDBRANCH  23  25
ENDBRANCH  22  23
ENDBRANCH   6  22
TORSDOF 4
ENDMDL
MODEL       69
REMARK 921   NORMALIZED FREE ENERGY PREDICTED BY IDOCK:   -5.78 KCAL/MOL
REMARK 922        TOTAL FREE ENERGY PREDICTED BY IDOCK:   -7.68 KCAL/MOL
REMARK 923 INTER-LIGAND FREE ENERGY PREDICTED BY IDOCK:   -6.73 KCAL/MOL
REMARK 924 INTRA-LIGAND FREE ENERGY PREDICTED BY IDOCK:   -0.96 KCAL/MOL
REMARK 927      BINDING AFFINITY PREDICTED BY RF-SCORE:    0.00 PKD
ROOT
HETATM    1  C   UNL     1     -10.502  10.102  66.719  1.00  0.00    -0.204 C  
HETATM    2  O   UNL     1     -10.512  11.027  65.606  1.00  0.00    -0.254 OA 
HETATM    3  C   UNL     1     -10.103  12.211  66.195  1.00  0.00    -0.228 A  
HETATM    4  C   UNL     1     -10.200  13.495  65.726  1.00  0.00    -0.297 A  
HETATM    5  C   UNL     1      -9.452  14.469  66.427  1.00  0.00    -0.316 A  
HETATM    6  C   UNL     1     -10.283   8.651  66.367  1.00  0.00    -0.154 C  
HETATM    7  C   UNL     1      -9.034   8.242  66.030  1.00  0.00    -0.224 C  
HETATM    8  C   UNL     1      -8.566  14.142  67.498  1.00  0.00    -0.196 A  
HETATM    9  C   UNL     1      -8.478  12.829  67.938  1.00  0.00    -0.173 A  
HETATM   10  C   UNL     1      -9.383  11.963  67.353  1.00  0.00    -0.176 A  
HETATM   11  C   UNL     1      -9.420  10.529  67.691  1.00  0.00    -0.164 C  
HETATM   12  C   UNL     1      -9.868  10.345  69.158  1.00  0.00    -0.237 C  
HETATM   13  C   UNL     1      -8.971   9.355  69.860  1.00  0.00    -0.200 C  
HETATM   14  N   UNL     1      -7.556   9.753  69.818  1.00  0.00    -0.119 NA 
HETATM   15  C   UNL     1      -6.757   8.533  69.993  1.00  0.00    -0.042 C  
HETATM   16  C   UNL     1      -7.177  10.567  68.625  1.00  0.00    -0.087 C  
HETATM   17  C   UNL     1      -7.430  12.186  68.864  1.00  0.00    -0.027 C  
HETATM   18  C   UNL     1      -7.960  10.153  67.358  1.00  0.00    -0.110 C  
HETATM   19  C   UNL     1      -7.782   8.789  66.690  1.00  0.00    -0.093 C  
ENDROOT
BRANCH   4  20
HETATM   20  O   UNL     1     -10.951  13.940  64.679  1.00  0.00    -0.376 OA 
HETATM   21  C   UNL     1     -12.357  14.080  64.874  1.00  0.00    -0.427 C  
ENDBRANCH   4  20
BRANCH   6  22
HETATM   22  O   UNL     1     -11.058   7.860  67.309  1.00  0.00    -0.079 OA 
BRANCH  22  23
HETATM   23  C   UNL     1     -10.917   6.514  67.459  1.00  0.00    -0.359 C  
HETATM   24  O   UNL     1     -10.902   5.679  66.560  1.00  0.00    -0.284 OA 
BRANCH  23  25
HETATM   25  C   UNL     1     -10.812   6.148  68.903  1.00  0.00    -0.406 A  
HETATM   26  C   UNL     1      -9.826   5.210  69.253  1.00  0.00    -0.260 A  
HETATM   27  C   UNL     1      -9.705   4.751  70.570  1.00  0.00    -0.281 A  
HETATM   28  C   UNL     1     -10.563   5.238  71.553  1.00  0.00    -0.254 A  
HETATM   29  C   UNL     1     -11.532   6.189  71.227  1.00  0.00    -0.311 A  
HETATM   30  C   UNL     1     -11.659   6.650  69.901  1.00  0.00    -0.393 A  
ENDBRANCH  23  25
ENDBRANCH  22  23
ENDBRANCH   6  22
TORSDOF 4
ENDMDL
MODEL       70
REMARK 921   NORMALIZED FREE ENERGY PREDICTED BY IDOCK:   -5.75 KCAL/MOL
REMARK 922        TOTAL FREE ENERGY PREDICTED BY IDOCK:   -7.64 KCAL/MOL
REMARK 923 INTER-LIGAND FREE ENERGY PREDICTED BY IDOCK:   -7.11 KCAL/MOL
REMARK 924 INTRA-LIGAND FREE ENERGY PREDICTED BY IDOCK:   -0.54 KCAL/MOL
REMARK 927      BINDING AFFINITY PREDICTED BY RF-SCORE:    0.00 PKD
ROOT
HETATM    1  C   UNL     1     -10.085   9.306  69.247  1.00  0.00    -0.200 C  
HETATM    2  O   UNL     1     -10.219   8.647  70.529  1.00  0.00    -0.188 OA 
HETATM    3  C   UNL     1     -10.383   7.320  70.168  1.00  0.00    -0.212 A  
HETATM    4  C   UNL     1     -10.848   6.267  70.912  1.00  0.00    -0.272 A  
HETATM    5  C   UNL     1     -10.647   4.981  70.361  1.00  0.00    -0.142 A  
HETATM    6  C   UNL     1      -9.296  10.592  69.249  1.00  0.00    -0.160 C  
HETATM    7  C   UNL     1      -7.944  10.529  69.346  1.00  0.00    -0.146 C  
HETATM    8  C   UNL     1      -9.919   4.763  69.151  1.00  0.00    -0.233 A  
HETATM    9  C   UNL     1      -9.447   5.850  68.429  1.00  0.00    -0.130 A  
HETATM   10  C   UNL     1      -9.853   7.081  68.911  1.00  0.00    -0.150 A  
HETATM   11  C   UNL     1      -9.432   8.343  68.276  1.00  0.00    -0.147 C  
HETATM   12  C   UNL     1     -10.049   8.453  66.864  1.00  0.00    -0.364 C  
HETATM   13  C   UNL     1      -9.003   8.890  65.867  1.00  0.00    -0.200 C  
HETATM   14  N   UNL     1      -7.846   7.983  65.835  1.00  0.00    -0.095 NA 
HETATM   15  C   UNL     1      -6.709   8.750  65.311  1.00  0.00    -0.068 C  
HETATM   16  C   UNL     1      -7.570   7.285  67.126  1.00  0.00    -0.103 C  
HETATM   17  C   UNL     1      -8.431   5.878  67.274  1.00  0.00    -0.103 C  
HETATM   18  C   UNL     1      -7.900   8.167  68.353  1.00  0.00    -0.118 C  
HETATM   19  C   UNL     1      -7.121   9.440  68.685  1.00  0.00    -0.070 C  
ENDROOT
BRANCH   4  20
HETATM   20  O   UNL     1     -11.499   6.322  72.109  1.00  0.00    -0.279 OA 
HETATM   21  C   UNL     1     -11.372   5.210  72.992  1.00  0.00    -0.309 C  
ENDBRANCH   4  20
BRANCH   6  22
HETATM   22  O   UNL     1      -9.894  11.464  68.251  1.00  0.00    -0.186 OA 
BRANCH  22  23
HETATM   23  C   UNL     1     -11.234  11.675  68.139  1.00  0.00    -0.263 C  
HETATM   24  O   UNL     1     -11.924  11.462  67.146  1.00  0.00    -0.532 OA 
BRANCH  23  25
HETATM   25  C   UNL     1     -11.789  12.250  69.400  1.00  0.00    -0.370 A  
HETATM   26  C   UNL     1     -12.410  11.357  70.290  1.00  0.00    -0.379 A  
HETATM   27  C   UNL     1     -13.025  11.818  71.460  1.00  0.00    -0.446 A  
HETATM   28  C   UNL     1     -13.013  13.178  71.757  1.00  0.00    -0.435 A  
HETATM   29  C   UNL     1     -12.379  14.076  70.897  1.00  0.00    -0.443 A  
HETATM   30  C   UNL     1     -11.762  13.616  69.716  1.00  0.00    -0.364 A  
ENDBRANCH  23  25
ENDBRANCH  22  23
ENDBRANCH   6  22
TORSDOF 4
ENDMDL
MODEL       71
REMARK 921   NORMALIZED FREE ENERGY PREDICTED BY IDOCK:   -5.73 KCAL/MOL
REMARK 922        TOTAL FREE ENERGY PREDICTED BY IDOCK:   -7.62 KCAL/MOL
REMARK 923 INTER-LIGAND FREE ENERGY PREDICTED BY IDOCK:   -6.92 KCAL/MOL
REMARK 924 INTRA-LIGAND FREE ENERGY PREDICTED BY IDOCK:   -0.69 KCAL/MOL
REMARK 927      BINDING AFFINITY PREDICTED BY RF-SCORE:    0.00 PKD
ROOT
HETATM    1  C   UNL     1      -9.684   8.754  69.376  1.00  0.00    -0.172 C  
HETATM    2  O   UNL     1      -9.718  10.201  69.394  1.00  0.00    -0.207 OA 
HETATM    3  C   UNL     1     -10.955  10.465  69.958  1.00  0.00    -0.308 A  
HETATM    4  C   UNL     1     -11.677  11.630  69.965  1.00  0.00    -0.321 A  
HETATM    5  C   UNL     1     -12.778  11.671  70.851  1.00  0.00    -0.351 A  
HETATM    6  C   UNL     1      -8.312   8.128  69.423  1.00  0.00    -0.123 C  
HETATM    7  C   UNL     1      -7.637   8.119  70.600  1.00  0.00    -0.073 C  
HETATM    8  C   UNL     1     -13.078  10.614  71.763  1.00  0.00    -0.571 A  
HETATM    9  C   UNL     1     -12.317   9.454  71.742  1.00  0.00    -0.471 A  
HETATM   10  C   UNL     1     -11.391   9.391  70.718  1.00  0.00    -0.363 A  
HETATM   11  C   UNL     1     -10.487   8.238  70.554  1.00  0.00    -0.225 C  
HETATM   12  C   UNL     1     -11.302   6.980  70.181  1.00  0.00    -0.321 C  
HETATM   13  C   UNL     1     -10.857   5.801  71.012  1.00  0.00    -0.247 C  
HETATM   14  N   UNL     1     -10.973   6.058  72.455  1.00  0.00    -0.246 NA 
HETATM   15  C   UNL     1     -10.036   5.153  73.133  1.00  0.00    -0.160 C  
HETATM   16  C   UNL     1     -10.825   7.493  72.843  1.00  0.00    -0.373 C  
HETATM   17  C   UNL     1     -12.262   8.312  72.773  1.00  0.00    -0.166 C  
HETATM   18  C   UNL     1      -9.815   8.244  71.944  1.00  0.00    -0.300 C  
HETATM   19  C   UNL     1      -8.321   7.921  71.939  1.00  0.00    -0.151 C  
ENDROOT
BRANCH   4  20
HETATM   20  O   UNL     1     -11.467  12.739  69.201  1.00  0.00    -0.274 OA 
HETATM   21  C   UNL     1     -11.772  12.663  67.810  1.00  0.00    -0.356 C  
ENDBRANCH   4  20
BRANCH   6  22
HETATM   22  O   UNL     1      -8.368   6.911  68.630  1.00  0.00    -0.120 OA 
BRANCH  22  23
HETATM   23  C   UNL     1      -7.704   6.744  67.453  1.00  0.00    -0.110 C  
HETATM   24  O   UNL     1      -7.026   5.773  67.131  1.00  0.00    -0.062 OA 
BRANCH  23  25
HETATM   25  C   UNL     1      -7.871   7.939  66.574  1.00  0.00    -0.098 A  
HETATM   26  C   UNL     1      -9.138   8.137  66.001  1.00  0.00    -0.218 A  
HETATM   27  C   UNL     1      -9.366   9.188  65.104  1.00  0.00    -0.180 A  
HETATM   28  C   UNL     1      -8.328  10.059  64.781  1.00  0.00    -0.166 A  
HETATM   29  C   UNL     1      -7.070   9.891  65.361  1.00  0.00    -0.121 A  
HETATM   30  C   UNL     1      -6.836   8.832  66.262  1.00  0.00    -0.074 A  
ENDBRANCH  23  25
ENDBRANCH  22  23
ENDBRANCH   6  22
TORSDOF 4
ENDMDL
MODEL       72
REMARK 921   NORMALIZED FREE ENERGY PREDICTED BY IDOCK:   -5.72 KCAL/MOL
REMARK 922        TOTAL FREE ENERGY PREDICTED BY IDOCK:   -7.61 KCAL/MOL
REMARK 923 INTER-LIGAND FREE ENERGY PREDICTED BY IDOCK:   -6.82 KCAL/MOL
REMARK 924 INTRA-LIGAND FREE ENERGY PREDICTED BY IDOCK:   -0.78 KCAL/MOL
REMARK 927      BINDING AFFINITY PREDICTED BY RF-SCORE:    0.00 PKD
ROOT
HETATM    1  C   UNL     1      -9.754  14.333  67.755  1.00  0.00    -0.222 C  
HETATM    2  O   UNL     1      -9.993  15.510  68.564  1.00  0.00    -0.202 OA 
HETATM    3  C   UNL     1     -10.022  16.522  67.620  1.00  0.00    -0.254 A  
HETATM    4  C   UNL     1      -9.917  17.877  67.794  1.00  0.00    -0.331 A  
HETATM    5  C   UNL     1     -10.254  18.674  66.675  1.00  0.00    -0.441 A  
HETATM    6  C   UNL     1     -10.268  13.032  68.321  1.00  0.00    -0.246 C  
HETATM    7  C   UNL     1     -11.601  12.780  68.275  1.00  0.00    -0.375 C  
HETATM    8  C   UNL     1     -10.770  18.126  65.462  1.00  0.00     0.051 A  
HETATM    9  C   UNL     1     -10.880  16.750  65.323  1.00  0.00    -0.148 A  
HETATM   10  C   UNL     1     -10.343  16.021  66.368  1.00  0.00    -0.312 A  
HETATM   11  C   UNL     1     -10.386  14.548  66.394  1.00  0.00    -0.296 C  
HETATM   12  C   UNL     1      -9.505  13.975  65.261  1.00  0.00     0.342 C  
HETATM   13  C   UNL     1     -10.241  12.881  64.527  1.00  0.00    -0.310 C  
HETATM   14  N   UNL     1     -11.524  13.342  63.975  1.00  0.00    -0.394 NA 
HETATM   15  C   UNL     1     -12.373  12.156  63.805  1.00  0.00    -0.532 C  
HETATM   16  C   UNL     1     -12.167  14.450  64.743  1.00  0.00    -0.446 C  
HETATM   17  C   UNL     1     -11.636  15.940  64.255  1.00  0.00    -0.179 C  
HETATM   18  C   UNL     1     -11.910  14.337  66.263  1.00  0.00    -0.420 C  
HETATM   19  C   UNL     1     -12.478  13.199  67.111  1.00  0.00     0.154 C  
ENDROOT
BRANCH   4  20
HETATM   20  O   UNL     1      -9.504  18.540  68.911  1.00  0.00    -0.315 OA 
HETATM   21  C   UNL     1      -8.319  19.328  68.824  1.00  0.00    -0.351 C  
ENDBRANCH   4  20
BRANCH   6  22
HETATM   22  O   UNL     1      -9.337  11.991  67.916  1.00  0.00    -0.177 OA 
BRANCH  22  23
HETATM   23  C   UNL     1      -9.718  10.733  67.562  1.00  0.00    -0.166 C  
HETATM   24  O   UNL     1     -10.551  10.037  68.134  1.00  0.00    -0.198 OA 
BRANCH  23  25
HETATM   25  C   UNL     1      -8.953  10.262  66.370  1.00  0.00    -0.166 A  
HETATM   26  C   UNL     1      -7.605  10.647  66.283  1.00  0.00    -0.137 A  
HETATM   27  C   UNL     1      -6.832  10.315  65.164  1.00  0.00    -0.120 A  
HETATM   28  C   UNL     1      -7.399   9.582  64.125  1.00  0.00    -0.115 A  
HETATM   29  C   UNL     1      -8.730   9.169  64.206  1.00  0.00    -0.180 A  
HETATM   30  C   UNL     1      -9.512   9.505  65.330  1.00  0.00    -0.336 A  
ENDBRANCH  23  25
ENDBRANCH  22  23
ENDBRANCH   6  22
TORSDOF 4
ENDMDL
MODEL       73
REMARK 921   NORMALIZED FREE ENERGY PREDICTED BY IDOCK:   -5.68 KCAL/MOL
REMARK 922        TOTAL FREE ENERGY PREDICTED BY IDOCK:   -7.56 KCAL/MOL
REMARK 923 INTER-LIGAND FREE ENERGY PREDICTED BY IDOCK:   -6.23 KCAL/MOL
REMARK 924 INTRA-LIGAND FREE ENERGY PREDICTED BY IDOCK:   -1.33 KCAL/MOL
REMARK 927      BINDING AFFINITY PREDICTED BY RF-SCORE:    0.00 PKD
ROOT
HETATM    1  C   UNL     1     -10.104   8.016  67.085  1.00  0.00    -0.263 C  
HETATM    2  O   UNL     1     -10.184   9.409  66.702  1.00  0.00    -0.252 OA 
HETATM    3  C   UNL     1     -10.893   9.969  67.752  1.00  0.00    -0.282 A  
HETATM    4  C   UNL     1     -11.533  11.179  67.822  1.00  0.00    -0.272 A  
HETATM    5  C   UNL     1     -11.938  11.591  69.112  1.00  0.00    -0.386 A  
HETATM    6  C   UNL     1      -8.922   7.252  66.541  1.00  0.00    -0.152 C  
HETATM    7  C   UNL     1      -7.699   7.462  67.090  1.00  0.00    -0.115 C  
HETATM    8  C   UNL     1     -11.623  10.856  70.295  1.00  0.00    -0.426 A  
HETATM    9  C   UNL     1     -10.959   9.642  70.191  1.00  0.00    -0.320 A  
HETATM   10  C   UNL     1     -10.774   9.196  68.895  1.00  0.00    -0.167 A  
HETATM   11  C   UNL     1     -10.074   7.933  68.598  1.00  0.00    -0.210 C  
HETATM   12  C   UNL     1     -10.902   6.737  69.119  1.00  0.00    -0.298 C  
HETATM   13  C   UNL     1     -10.014   5.768  69.861  1.00  0.00    -0.194 C  
HETATM   14  N   UNL     1      -9.302   6.405  70.979  1.00  0.00    -0.164 NA 
HETATM   15  C   UNL     1      -8.108   5.594  71.250  1.00  0.00    -0.114 C  
HETATM   16  C   UNL     1      -9.023   7.859  70.788  1.00  0.00    -0.140 C  
HETATM   17  C   UNL     1     -10.280   8.810  71.294  1.00  0.00    -0.332 C  
HETATM   18  C   UNL     1      -8.734   8.213  69.311  1.00  0.00    -0.140 C  
HETATM   19  C   UNL     1      -7.493   7.709  68.572  1.00  0.00    -0.104 C  
ENDROOT
BRANCH   4  20
HETATM   20  O   UNL     1     -11.842  12.014  66.790  1.00  0.00    -0.581 OA 
HETATM   21  C   UNL     1     -10.768  12.639  66.090  1.00  0.00    -0.267 C  
ENDBRANCH   4  20
BRANCH   6  22
HETATM   22  O   UNL     1      -9.366   5.888  66.302  1.00  0.00    -0.157 OA 
BRANCH  22  23
HETATM   23  C   UNL     1      -8.531   4.874  65.944  1.00  0.00    -0.119 C  
HETATM   24  O   UNL     1      -7.962   4.746  64.864  1.00  0.00    -0.092 OA 
BRANCH  23  25
HETATM   25  C   UNL     1      -8.404   3.876  67.047  1.00  0.00    -0.100 A  
HETATM   26  C   UNL     1      -9.535   3.094  67.334  1.00  0.00    -0.177 A  
HETATM   27  C   UNL     1      -9.532   2.186  68.399  1.00  0.00    -0.226 A  
HETATM   28  C   UNL     1      -8.389   2.043  69.182  1.00  0.00    -0.073 A  
HETATM   29  C   UNL     1      -7.247   2.794  68.896  1.00  0.00    -0.048 A  
HETATM   30  C   UNL     1      -7.249   3.712  67.825  1.00  0.00    -0.059 A  
ENDBRANCH  23  25
ENDBRANCH  22  23
ENDBRANCH   6  22
TORSDOF 4
ENDMDL
MODEL       74
REMARK 921   NORMALIZED FREE ENERGY PREDICTED BY IDOCK:   -5.63 KCAL/MOL
REMARK 922        TOTAL FREE ENERGY PREDICTED BY IDOCK:   -7.51 KCAL/MOL
REMARK 923 INTER-LIGAND FREE ENERGY PREDICTED BY IDOCK:   -6.76 KCAL/MOL
REMARK 924 INTRA-LIGAND FREE ENERGY PREDICTED BY IDOCK:   -0.74 KCAL/MOL
REMARK 927      BINDING AFFINITY PREDICTED BY RF-SCORE:    0.00 PKD
ROOT
HETATM    1  C   UNL     1      -9.289  13.978  67.094  1.00  0.00    -0.242 C  
HETATM    2  O   UNL     1      -9.846  12.761  67.644  1.00  0.00    -0.205 OA 
HETATM    3  C   UNL     1      -8.735  12.147  68.199  1.00  0.00    -0.185 A  
HETATM    4  C   UNL     1      -8.568  10.846  68.597  1.00  0.00    -0.153 A  
HETATM    5  C   UNL     1      -7.418  10.579  69.375  1.00  0.00    -0.141 A  
HETATM    6  C   UNL     1     -10.242  15.143  66.979  1.00  0.00    -0.262 C  
HETATM    7  C   UNL     1     -10.585  15.820  68.104  1.00  0.00    -0.275 C  
HETATM    8  C   UNL     1      -6.525  11.603  69.813  1.00  0.00    -0.111 A  
HETATM    9  C   UNL     1      -6.731  12.914  69.405  1.00  0.00    -0.017 A  
HETATM   10  C   UNL     1      -7.748  13.076  68.482  1.00  0.00    -0.111 A  
HETATM   11  C   UNL     1      -8.114  14.402  67.952  1.00  0.00    -0.153 C  
HETATM   12  C   UNL     1      -6.957  14.965  67.096  1.00  0.00     0.129 C  
HETATM   13  C   UNL     1      -6.693  16.406  67.455  1.00  0.00    -0.153 C  
HETATM   14  N   UNL     1      -6.385  16.581  68.882  1.00  0.00    -0.149 NA 
HETATM   15  C   UNL     1      -6.702  17.973  69.226  1.00  0.00    -0.209 C  
HETATM   16  C   UNL     1      -7.019  15.570  69.780  1.00  0.00    -0.132 C  
HETATM   17  C   UNL     1      -6.093  14.207  69.941  1.00  0.00    -0.140 C  
HETATM   18  C   UNL     1      -8.414  15.131  69.280  1.00  0.00    -0.209 C  
HETATM   19  C   UNL     1      -9.610  16.083  69.236  1.00  0.00    -0.255 C  
ENDROOT
BRANCH   4  20
HETATM   20  O   UNL     1      -9.371   9.782  68.311  1.00  0.00    -0.129 OA 
HETATM   21  C   UNL     1     -10.428   9.477  69.218  1.00  0.00    -0.212 C  
ENDBRANCH   4  20
BRANCH   6  22
HETATM   22  O   UNL     1      -9.865  15.890  65.790  1.00  0.00    -0.319 OA 
BRANCH  22  23
HETATM   23  C   UNL     1     -10.482  17.036  65.391  1.00  0.00    -0.112 C  
HETATM   24  O   UNL     1     -11.380  17.127  64.558  1.00  0.00    -1.034 OA 
BRANCH  23  25
HETATM   25  C   UNL     1      -9.899  18.223  66.083  1.00  0.00    -0.264 A  
HETATM   26  C   UNL     1     -10.786  19.040  66.804  1.00  0.00    -0.450 A  
HETATM   27  C   UNL     1     -10.341  20.215  67.422  1.00  0.00    -0.488 A  
HETATM   28  C   UNL     1      -8.999  20.577  67.333  1.00  0.00    -0.420 A  
HETATM   29  C   UNL     1      -8.100  19.764  66.641  1.00  0.00    -0.341 A  
HETATM   30  C   UNL     1      -8.545  18.582  66.015  1.00  0.00    -0.019 A  
ENDBRANCH  23  25
ENDBRANCH  22  23
ENDBRANCH   6  22
TORSDOF 4
ENDMDL
MODEL       75
REMARK 921   NORMALIZED FREE ENERGY PREDICTED BY IDOCK:   -5.61 KCAL/MOL
REMARK 922        TOTAL FREE ENERGY PREDICTED BY IDOCK:   -7.47 KCAL/MOL
REMARK 923 INTER-LIGAND FREE ENERGY PREDICTED BY IDOCK:   -7.11 KCAL/MOL
REMARK 924 INTRA-LIGAND FREE ENERGY PREDICTED BY IDOCK:   -0.36 KCAL/MOL
REMARK 927      BINDING AFFINITY PREDICTED BY RF-SCORE:    0.00 PKD
ROOT
HETATM    1  C   UNL     1     -10.315   8.155  67.917  1.00  0.00    -0.220 C  
HETATM    2  O   UNL     1     -10.720   8.355  69.292  1.00  0.00    -0.209 OA 
HETATM    3  C   UNL     1     -10.638   7.077  69.818  1.00  0.00    -0.233 A  
HETATM    4  C   UNL     1     -11.172   6.577  70.977  1.00  0.00    -0.309 A  
HETATM    5  C   UNL     1     -10.693   5.310  71.384  1.00  0.00    -0.203 A  
HETATM    6  C   UNL     1      -9.697   9.351  67.234  1.00  0.00    -0.165 C  
HETATM    7  C   UNL     1      -8.423   9.697  67.548  1.00  0.00    -0.125 C  
HETATM    8  C   UNL     1      -9.646   4.622  70.699  1.00  0.00    -0.261 A  
HETATM    9  C   UNL     1      -9.115   5.163  69.537  1.00  0.00    -0.145 A  
HETATM   10  C   UNL     1      -9.765   6.294  69.080  1.00  0.00    -0.147 A  
HETATM   11  C   UNL     1      -9.325   7.009  67.868  1.00  0.00    -0.123 C  
HETATM   12  C   UNL     1      -9.545   6.120  66.623  1.00  0.00    -0.181 C  
HETATM   13  C   UNL     1      -8.321   6.142  65.740  1.00  0.00    -0.143 C  
HETATM   14  N   UNL     1      -7.109   5.711  66.451  1.00  0.00    -0.071 NA 
HETATM   15  C   UNL     1      -5.961   6.286  65.739  1.00  0.00    -0.025 C  
HETATM   16  C   UNL     1      -7.120   5.989  67.919  1.00  0.00    -0.074 C  
HETATM   17  C   UNL     1      -7.833   4.769  68.782  1.00  0.00    -0.076 C  
HETATM   18  C   UNL     1      -7.861   7.301  68.263  1.00  0.00    -0.122 C  
HETATM   19  C   UNL     1      -7.341   8.675  67.840  1.00  0.00    -0.092 C  
ENDROOT
BRANCH   4  20
HETATM   20  O   UNL     1     -12.124   7.150  71.766  1.00  0.00    -0.298 OA 
HETATM   21  C   UNL     1     -11.757   8.294  72.534  1.00  0.00    -0.383 C  
ENDBRANCH   4  20
BRANCH   6  22
HETATM   22  O   UNL     1     -10.093   9.297  65.836  1.00  0.00    -0.293 OA 
BRANCH  22  23
HETATM   23  C   UNL     1      -9.650  10.173  64.892  1.00  0.00    -0.306 C  
HETATM   24  O   UNL     1      -8.637  10.056  64.209  1.00  0.00    -0.160 OA 
BRANCH  23  25
HETATM   25  C   UNL     1     -10.554  11.357  64.799  1.00  0.00    -0.377 A  
HETATM   26  C   UNL     1     -10.886  12.002  66.002  1.00  0.00    -0.329 A  
HETATM   27  C   UNL     1     -11.787  13.074  66.019  1.00  0.00    -0.471 A  
HETATM   28  C   UNL     1     -12.355  13.518  64.828  1.00  0.00    -0.435 A  
HETATM   29  C   UNL     1     -12.017  12.904  63.620  1.00  0.00    -0.613 A  
HETATM   30  C   UNL     1     -11.113  11.822  63.600  1.00  0.00    -0.518 A  
ENDBRANCH  23  25
ENDBRANCH  22  23
ENDBRANCH   6  22
TORSDOF 4
ENDMDL
MODEL       76
REMARK 921   NORMALIZED FREE ENERGY PREDICTED BY IDOCK:   -5.55 KCAL/MOL
REMARK 922        TOTAL FREE ENERGY PREDICTED BY IDOCK:   -7.40 KCAL/MOL
REMARK 923 INTER-LIGAND FREE ENERGY PREDICTED BY IDOCK:   -6.57 KCAL/MOL
REMARK 924 INTRA-LIGAND FREE ENERGY PREDICTED BY IDOCK:   -0.83 KCAL/MOL
REMARK 927      BINDING AFFINITY PREDICTED BY RF-SCORE:    0.00 PKD
ROOT
HETATM    1  C   UNL     1      -9.975   8.176  69.743  1.00  0.00    -0.191 C  
HETATM    2  O   UNL     1     -11.256   8.029  70.402  1.00  0.00    -0.268 OA 
HETATM    3  C   UNL     1     -11.584   9.338  70.714  1.00  0.00    -0.285 A  
HETATM    4  C   UNL     1     -12.522   9.814  71.593  1.00  0.00    -0.410 A  
HETATM    5  C   UNL     1     -12.817  11.193  71.498  1.00  0.00    -0.542 A  
HETATM    6  C   UNL     1      -9.622   7.098  68.747  1.00  0.00    -0.144 C  
HETATM    7  C   UNL     1     -10.234   7.101  67.536  1.00  0.00    -0.272 C  
HETATM    8  C   UNL     1     -12.258  12.036  70.490  1.00  0.00    -0.414 A  
HETATM    9  C   UNL     1     -11.324  11.520  69.604  1.00  0.00    -0.329 A  
HETATM   10  C   UNL     1     -10.925  10.225  69.878  1.00  0.00    -0.358 A  
HETATM   11  C   UNL     1      -9.950   9.514  69.031  1.00  0.00    -0.185 C  
HETATM   12  C   UNL     1      -8.565  10.190  69.141  1.00  0.00    -0.167 C  
HETATM   13  C   UNL     1      -7.959  10.369  67.770  1.00  0.00    -0.102 C  
HETATM   14  N   UNL     1      -8.824  11.149  66.873  1.00  0.00    -0.152 NA 
HETATM   15  C   UNL     1      -8.453  10.794  65.497  1.00  0.00    -0.153 C  
HETATM   16  C   UNL     1     -10.285  11.031  67.162  1.00  0.00    -0.206 C  
HETATM   17  C   UNL     1     -10.790  12.128  68.295  1.00  0.00    -0.256 C  
HETATM   18  C   UNL     1     -10.671   9.622  67.670  1.00  0.00    -0.324 C  
HETATM   19  C   UNL     1     -10.577   8.376  66.790  1.00  0.00    -0.227 C  
ENDROOT
BRANCH   4  20
HETATM   20  O   UNL     1     -13.182   9.114  72.559  1.00  0.00    -0.444 OA 
HETATM   21  C   UNL     1     -14.326   8.354  72.173  1.00  0.00    -0.427 C  
ENDBRANCH   4  20
BRANCH   6  22
HETATM   22  O   UNL     1      -8.182   6.910  68.812  1.00  0.00    -0.119 OA 
BRANCH  22  23
HETATM   23  C   UNL     1      -7.549   5.777  68.401  1.00  0.00    -0.089 C  
HETATM   24  O   UNL     1      -7.068   4.909  69.124  1.00  0.00    -0.051 OA 
BRANCH  23  25
HETATM   25  C   UNL     1      -7.472   5.721  66.912  1.00  0.00    -0.084 A  
HETATM   26  C   UNL     1      -6.959   6.852  66.256  1.00  0.00    -0.069 A  
HETATM   27  C   UNL     1      -6.920   6.918  64.858  1.00  0.00    -0.051 A  
HETATM   28  C   UNL     1      -7.385   5.844  64.102  1.00  0.00    -0.064 A  
HETATM   29  C   UNL     1      -7.875   4.702  64.738  1.00  0.00    -0.087 A  
HETATM   30  C   UNL     1      -7.919   4.634  66.146  1.00  0.00    -0.103 A  
ENDBRANCH  23  25
ENDBRANCH  22  23
ENDBRANCH   6  22
TORSDOF 4
ENDMDL
MODEL       77
REMARK 921   NORMALIZED FREE ENERGY PREDICTED BY IDOCK:   -5.51 KCAL/MOL
REMARK 922        TOTAL FREE ENERGY PREDICTED BY IDOCK:   -7.35 KCAL/MOL
REMARK 923 INTER-LIGAND FREE ENERGY PREDICTED BY IDOCK:   -6.78 KCAL/MOL
REMARK 924 INTRA-LIGAND FREE ENERGY PREDICTED BY IDOCK:   -0.57 KCAL/MOL
REMARK 927      BINDING AFFINITY PREDICTED BY RF-SCORE:    0.00 PKD
ROOT
HETATM    1  C   UNL     1      -8.300  15.490  66.513  1.00  0.00    -0.199 C  
HETATM    2  O   UNL     1      -7.086  16.250  66.304  1.00  0.00    -0.074 OA 
HETATM    3  C   UNL     1      -7.548  17.555  66.287  1.00  0.00    -0.308 A  
HETATM    4  C   UNL     1      -6.928  18.691  65.836  1.00  0.00    -0.270 A  
HETATM    5  C   UNL     1      -7.538  19.915  66.197  1.00  0.00    -0.338 A  
HETATM    6  C   UNL     1      -8.130  14.152  67.191  1.00  0.00    -0.115 C  
HETATM    7  C   UNL     1      -7.893  14.122  68.526  1.00  0.00    -0.140 C  
HETATM    8  C   UNL     1      -8.674  19.988  67.059  1.00  0.00    -0.411 A  
HETATM    9  C   UNL     1      -9.269  18.819  67.511  1.00  0.00    -0.306 A  
HETATM   10  C   UNL     1      -8.755  17.661  66.959  1.00  0.00    -0.254 A  
HETATM   11  C   UNL     1      -9.257  16.327  67.338  1.00  0.00    -0.217 C  
HETATM   12  C   UNL     1     -10.717  16.160  66.860  1.00  0.00    -0.247 C  
HETATM   13  C   UNL     1     -11.565  15.574  67.963  1.00  0.00    -0.268 C  
HETATM   14  N   UNL     1     -11.533  16.388  69.187  1.00  0.00    -0.249 NA 
HETATM   15  C   UNL     1     -11.881  15.501  70.305  1.00  0.00    -0.357 C  
HETATM   16  C   UNL     1     -10.268  17.156  69.387  1.00  0.00    -0.164 C  
HETATM   17  C   UNL     1     -10.305  18.630  68.634  1.00  0.00    -0.256 C  
HETATM   18  C   UNL     1      -9.028  16.394  68.863  1.00  0.00    -0.256 C  
HETATM   19  C   UNL     1      -8.533  15.095  69.498  1.00  0.00    -0.144 C  
ENDROOT
BRANCH   4  20
HETATM   20  O   UNL     1      -5.807  18.773  65.065  1.00  0.00    -0.225 OA 
HETATM   21  C   UNL     1      -5.791  19.728  64.006  1.00  0.00    -0.272 C  
ENDBRANCH   4  20
BRANCH   6  22
HETATM   22  O   UNL     1      -9.127  13.256  66.628  1.00  0.00    -0.234 OA 
BRANCH  22  23
HETATM   23  C   UNL     1      -9.245  11.945  66.974  1.00  0.00    -0.191 C  
HETATM   24  O   UNL     1      -9.691  11.509  68.032  1.00  0.00    -0.174 OA 
BRANCH  23  25
HETATM   25  C   UNL     1      -8.721  11.059  65.893  1.00  0.00    -0.182 A  
HETATM   26  C   UNL     1      -7.369  10.685  65.974  1.00  0.00    -0.132 A  
HETATM   27  C   UNL     1      -6.773   9.920  64.965  1.00  0.00    -0.121 A  
HETATM   28  C   UNL     1      -7.529   9.510  63.870  1.00  0.00    -0.117 A  
HETATM   29  C   UNL     1      -8.880   9.852  63.786  1.00  0.00    -0.254 A  
HETATM   30  C   UNL     1      -9.483  10.626  64.799  1.00  0.00    -0.306 A  
ENDBRANCH  23  25
ENDBRANCH  22  23
ENDBRANCH   6  22
TORSDOF 4
ENDMDL
MODEL       78
REMARK 921   NORMALIZED FREE ENERGY PREDICTED BY IDOCK:   -5.47 KCAL/MOL
REMARK 922        TOTAL FREE ENERGY PREDICTED BY IDOCK:   -7.30 KCAL/MOL
REMARK 923 INTER-LIGAND FREE ENERGY PREDICTED BY IDOCK:   -6.49 KCAL/MOL
REMARK 924 INTRA-LIGAND FREE ENERGY PREDICTED BY IDOCK:   -0.81 KCAL/MOL
REMARK 927      BINDING AFFINITY PREDICTED BY RF-SCORE:    0.00 PKD
ROOT
HETATM    1  C   UNL     1      -9.240  14.039  67.322  1.00  0.00    -0.230 C  
HETATM    2  O   UNL     1      -9.301  15.211  68.169  1.00  0.00    -0.187 OA 
HETATM    3  C   UNL     1      -9.547  16.226  67.260  1.00  0.00    -0.230 A  
HETATM    4  C   UNL     1      -9.414  17.582  67.412  1.00  0.00    -0.255 A  
HETATM    5  C   UNL     1      -9.997  18.379  66.401  1.00  0.00    -0.399 A  
HETATM    6  C   UNL     1      -9.606  12.732  67.982  1.00  0.00    -0.217 C  
HETATM    7  C   UNL     1     -10.914  12.470  68.233  1.00  0.00    -0.270 C  
HETATM    8  C   UNL     1     -10.767  17.831  65.330  1.00  0.00     0.085 A  
HETATM    9  C   UNL     1     -10.896  16.454  65.213  1.00  0.00    -0.271 A  
HETATM   10  C   UNL     1     -10.134  15.726  66.109  1.00  0.00    -0.337 A  
HETATM   11  C   UNL     1     -10.161  14.253  66.137  1.00  0.00    -0.325 C  
HETATM   12  C   UNL     1      -9.551  13.691  64.833  1.00  0.00     0.371 C  
HETATM   13  C   UNL     1     -10.424  12.594  64.276  1.00  0.00    -0.392 C  
HETATM   14  N   UNL     1     -11.801  13.046  64.026  1.00  0.00    -0.413 NA 
HETATM   15  C   UNL     1     -12.659  11.854  64.044  1.00  0.00    -0.282 C  
HETATM   16  C   UNL     1     -12.264  14.147  64.923  1.00  0.00    -0.438 C  
HETATM   17  C   UNL     1     -11.866  15.643  64.336  1.00  0.00    -0.183 C  
HETATM   18  C   UNL     1     -11.674  14.031  66.348  1.00  0.00    -0.407 C  
HETATM   19  C   UNL     1     -12.032  12.885  67.295  1.00  0.00    -0.371 C  
ENDROOT
BRANCH   4  20
HETATM   20  O   UNL     1      -8.767  18.244  68.413  1.00  0.00    -0.297 OA 
HETATM   21  C   UNL     1      -7.403  17.912  68.664  1.00  0.00    -0.271 C  
ENDBRANCH   4  20
BRANCH   6  22
HETATM   22  O   UNL     1      -8.782  11.700  67.375  1.00  0.00    -0.146 OA 
BRANCH  22  23
HETATM   23  C   UNL     1      -8.370  10.580  68.030  1.00  0.00    -0.116 C  
HETATM   24  O   UNL     1      -8.041  10.507  69.211  1.00  0.00    -0.146 OA 
BRANCH  23  25
HETATM   25  C   UNL     1      -8.330   9.408  67.107  1.00  0.00    -0.124 A  
HETATM   26  C   UNL     1      -8.219   9.681  65.733  1.00  0.00    -0.120 A  
HETATM   27  C   UNL     1      -8.250   8.647  64.789  1.00  0.00    -0.161 A  
HETATM   28  C   UNL     1      -8.381   7.328  65.213  1.00  0.00    -0.110 A  
HETATM   29  C   UNL     1      -8.467   7.036  66.576  1.00  0.00    -0.125 A  
HETATM   30  C   UNL     1      -8.439   8.075  67.529  1.00  0.00    -0.127 A  
ENDBRANCH  23  25
ENDBRANCH  22  23
ENDBRANCH   6  22
TORSDOF 4
ENDMDL
MODEL       79
REMARK 921   NORMALIZED FREE ENERGY PREDICTED BY IDOCK:   -5.46 KCAL/MOL
REMARK 922        TOTAL FREE ENERGY PREDICTED BY IDOCK:   -7.29 KCAL/MOL
REMARK 923 INTER-LIGAND FREE ENERGY PREDICTED BY IDOCK:   -6.28 KCAL/MOL
REMARK 924 INTRA-LIGAND FREE ENERGY PREDICTED BY IDOCK:   -1.01 KCAL/MOL
REMARK 927      BINDING AFFINITY PREDICTED BY RF-SCORE:    0.00 PKD
ROOT
HETATM    1  C   UNL     1      -9.397   7.734  69.197  1.00  0.00    -0.151 C  
HETATM    2  O   UNL     1     -10.437   6.865  69.706  1.00  0.00    -0.202 OA 
HETATM    3  C   UNL     1     -11.120   7.693  70.580  1.00  0.00    -0.255 A  
HETATM    4  C   UNL     1     -12.008   7.369  71.572  1.00  0.00    -0.307 A  
HETATM    5  C   UNL     1     -12.748   8.443  72.117  1.00  0.00    -0.399 A  
HETATM    6  C   UNL     1      -8.876   7.399  67.821  1.00  0.00    -0.128 C  
HETATM    7  C   UNL     1      -9.640   7.699  66.741  1.00  0.00    -0.269 C  
HETATM    8  C   UNL     1     -12.663   9.776  71.612  1.00  0.00    -0.517 A  
HETATM    9  C   UNL     1     -11.766  10.069  70.596  1.00  0.00    -0.421 A  
HETATM   10  C   UNL     1     -10.928   9.025  70.249  1.00  0.00    -0.274 A  
HETATM   11  C   UNL     1      -9.923   9.155  69.178  1.00  0.00    -0.189 C  
HETATM   12  C   UNL     1      -8.836  10.170  69.597  1.00  0.00    -0.184 C  
HETATM   13  C   UNL     1      -8.549  11.126  68.465  1.00  0.00    -0.157 C  
HETATM   14  N   UNL     1      -9.752  11.843  68.018  1.00  0.00    -0.186 NA 
HETATM   15  C   UNL     1      -9.511  12.275  66.636  1.00  0.00    -0.226 C  
HETATM   16  C   UNL     1     -11.028  11.091  68.210  1.00  0.00    -0.235 C  
HETATM   17  C   UNL     1     -11.675  11.328  69.715  1.00  0.00    -0.422 C  
HETATM   18  C   UNL     1     -10.848   9.568  68.013  1.00  0.00    -0.225 C  
HETATM   19  C   UNL     1     -10.495   8.950  66.660  1.00  0.00    -0.231 C  
ENDROOT
BRANCH   4  20
HETATM   20  O   UNL     1     -12.241   6.136  72.105  1.00  0.00    -0.319 OA 
HETATM   21  C   UNL     1     -11.168   5.485  72.782  1.00  0.00    -0.305 C  
ENDBRANCH   4  20
BRANCH   6  22
HETATM   22  O   UNL     1      -7.462   7.738  67.804  1.00  0.00    -0.099 OA 
BRANCH  22  23
HETATM   23  C   UNL     1      -6.573   7.224  66.911  1.00  0.00    -0.059 C  
HETATM   24  O   UNL     1      -6.010   6.135  66.988  1.00  0.00    -0.016 OA 
BRANCH  23  25
HETATM   25  C   UNL     1      -6.322   8.185  65.796  1.00  0.00    -0.048 A  
HETATM   26  C   UNL     1      -6.110   9.529  66.148  1.00  0.00    -0.063 A  
HETATM   27  C   UNL     1      -5.942  10.512  65.166  1.00  0.00    -0.113 A  
HETATM   28  C   UNL     1      -5.974  10.156  63.820  1.00  0.00    -0.140 A  
HETATM   29  C   UNL     1      -6.160   8.822  63.453  1.00  0.00    -0.085 A  
HETATM   30  C   UNL     1      -6.332   7.830  64.440  1.00  0.00    -0.052 A  
ENDBRANCH  23  25
ENDBRANCH  22  23
ENDBRANCH   6  22
TORSDOF 4
ENDMDL
MODEL       80
REMARK 921   NORMALIZED FREE ENERGY PREDICTED BY IDOCK:   -5.40 KCAL/MOL
REMARK 922        TOTAL FREE ENERGY PREDICTED BY IDOCK:   -7.22 KCAL/MOL
REMARK 923 INTER-LIGAND FREE ENERGY PREDICTED BY IDOCK:   -6.26 KCAL/MOL
REMARK 924 INTRA-LIGAND FREE ENERGY PREDICTED BY IDOCK:   -0.95 KCAL/MOL
REMARK 927      BINDING AFFINITY PREDICTED BY RF-SCORE:    0.00 PKD
ROOT
HETATM    1  C   UNL     1     -10.057  10.318  67.195  1.00  0.00    -0.210 C  
HETATM    2  O   UNL     1     -10.916  10.799  66.134  1.00  0.00    -0.115 OA 
HETATM    3  C   UNL     1     -10.047  10.885  65.060  1.00  0.00    -0.300 A  
HETATM    4  C   UNL     1     -10.196  11.550  63.871  1.00  0.00    -0.362 A  
HETATM    5  C   UNL     1      -9.259  11.233  62.861  1.00  0.00    -0.344 A  
HETATM    6  C   UNL     1     -10.740   9.534  68.289  1.00  0.00    -0.194 C  
HETATM    7  C   UNL     1     -11.125   8.258  68.036  1.00  0.00     0.318 C  
HETATM    8  C   UNL     1      -8.270  10.214  63.016  1.00  0.00    -0.158 A  
HETATM    9  C   UNL     1      -8.155   9.548  64.227  1.00  0.00    -0.142 A  
HETATM   10  C   UNL     1      -8.959  10.045  65.236  1.00  0.00    -0.220 A  
HETATM   11  C   UNL     1      -8.977   9.448  66.584  1.00  0.00    -0.170 C  
HETATM   12  C   UNL     1      -7.612   9.666  67.274  1.00  0.00    -0.091 C  
HETATM   13  C   UNL     1      -7.140   8.386  67.918  1.00  0.00    -0.083 C  
HETATM   14  N   UNL     1      -7.039   7.278  66.956  1.00  0.00    -0.084 NA 
HETATM   15  C   UNL     1      -7.136   6.029  67.722  1.00  0.00    -0.074 C  
HETATM   16  C   UNL     1      -7.989   7.367  65.808  1.00  0.00    -0.118 C  
HETATM   17  C   UNL     1      -7.377   8.261  64.556  1.00  0.00    -0.091 C  
HETATM   18  C   UNL     1      -9.343   7.995  66.212  1.00  0.00    -0.246 C  
HETATM   19  C   UNL     1     -10.313   7.309  67.175  1.00  0.00    -0.367 C  
ENDROOT
BRANCH   4  20
HETATM   20  O   UNL     1     -11.130  12.494  63.561  1.00  0.00    -0.444 OA 
HETATM   21  C   UNL     1     -12.484  12.073  63.409  1.00  0.00    -0.509 C  
ENDBRANCH   4  20
BRANCH   6  22
HETATM   22  O   UNL     1     -10.041   9.830  69.529  1.00  0.00    -0.190 OA 
BRANCH  22  23
HETATM   23  C   UNL     1     -10.608   9.714  70.761  1.00  0.00    -0.322 C  
HETATM   24  O   UNL     1     -11.458  10.456  71.245  1.00  0.00    -0.268 OA 
BRANCH  23  25
HETATM   25  C   UNL     1     -10.032   8.554  71.504  1.00  0.00    -0.314 A  
HETATM   26  C   UNL     1     -10.751   8.089  72.618  1.00  0.00    -0.426 A  
HETATM   27  C   UNL     1     -10.249   7.056  73.419  1.00  0.00    -0.342 A  
HETATM   28  C   UNL     1      -9.026   6.469  73.103  1.00  0.00    -0.137 A  
HETATM   29  C   UNL     1      -8.310   6.902  71.986  1.00  0.00    -0.110 A  
HETATM   30  C   UNL     1      -8.811   7.945  71.180  1.00  0.00    -0.150 A  
ENDBRANCH  23  25
ENDBRANCH  22  23
ENDBRANCH   6  22
TORSDOF 4
ENDMDL
MODEL       81
REMARK 921   NORMALIZED FREE ENERGY PREDICTED BY IDOCK:   -5.35 KCAL/MOL
REMARK 922        TOTAL FREE ENERGY PREDICTED BY IDOCK:   -7.15 KCAL/MOL
REMARK 923 INTER-LIGAND FREE ENERGY PREDICTED BY IDOCK:   -6.25 KCAL/MOL
REMARK 924 INTRA-LIGAND FREE ENERGY PREDICTED BY IDOCK:   -0.90 KCAL/MOL
REMARK 927      BINDING AFFINITY PREDICTED BY RF-SCORE:    0.00 PKD
ROOT
HETATM    1  C   UNL     1      -9.904   8.187  68.918  1.00  0.00    -0.176 C  
HETATM    2  O   UNL     1      -9.741   9.616  68.758  1.00  0.00    -0.156 OA 
HETATM    3  C   UNL     1     -10.858  10.120  69.403  1.00  0.00    -0.241 A  
HETATM    4  C   UNL     1     -11.411  11.372  69.335  1.00  0.00    -0.297 A  
HETATM    5  C   UNL     1     -12.388  11.672  70.312  1.00  0.00    -0.339 A  
HETATM    6  C   UNL     1      -8.632   7.375  68.908  1.00  0.00    -0.129 C  
HETATM    7  C   UNL     1      -7.834   7.396  70.006  1.00  0.00    -0.104 C  
HETATM    8  C   UNL     1     -12.721  10.777  71.373  1.00  0.00    -0.544 A  
HETATM    9  C   UNL     1     -12.131   9.522  71.424  1.00  0.00    -0.459 A  
HETATM   10  C   UNL     1     -11.344   9.212  70.330  1.00  0.00    -0.217 A  
HETATM   11  C   UNL     1     -10.628   7.927  70.224  1.00  0.00    -0.231 C  
HETATM   12  C   UNL     1     -11.643   6.769  70.092  1.00  0.00    -0.397 C  
HETATM   13  C   UNL     1     -11.268   5.637  71.017  1.00  0.00    -0.050 C  
HETATM   14  N   UNL     1     -11.183   6.065  72.421  1.00  0.00    -0.277 NA 
HETATM   15  C   UNL     1     -10.305   5.112  73.112  1.00  0.00    -0.195 C  
HETATM   16  C   UNL     1     -10.800   7.496  72.610  1.00  0.00    -0.315 C  
HETATM   17  C   UNL     1     -12.112   8.505  72.579  1.00  0.00    -0.395 C  
HETATM   18  C   UNL     1      -9.808   7.987  71.531  1.00  0.00    -0.217 C  
HETATM   19  C   UNL     1      -8.381   7.449  71.420  1.00  0.00    -0.112 C  
ENDROOT
BRANCH   4  20
HETATM   20  O   UNL     1     -11.142  12.347  68.422  1.00  0.00    -0.220 OA 
HETATM   21  C   UNL     1     -11.530  12.123  67.068  1.00  0.00    -0.350 C  
ENDBRANCH   4  20
BRANCH   6  22
HETATM   22  O   UNL     1      -8.942   6.100  68.283  1.00  0.00    -0.116 OA 
BRANCH  22  23
HETATM   23  C   UNL     1      -9.226   5.957  66.959  1.00  0.00    -0.119 C  
HETATM   24  O   UNL     1     -10.326   5.707  66.474  1.00  0.00    -0.217 OA 
BRANCH  23  25
HETATM   25  C   UNL     1      -7.995   6.113  66.131  1.00  0.00    -0.108 A  
HETATM   26  C   UNL     1      -8.062   7.006  65.049  1.00  0.00    -0.119 A  
HETATM   27  C   UNL     1      -6.981   7.159  64.173  1.00  0.00    -0.056 A  
HETATM   28  C   UNL     1      -5.815   6.426  64.380  1.00  0.00    -0.023 A  
HETATM   29  C   UNL     1      -5.721   5.553  65.465  1.00  0.00    -0.014 A  
HETATM   30  C   UNL     1      -6.810   5.394  66.346  1.00  0.00    -0.059 A  
ENDBRANCH  23  25
ENDBRANCH  22  23
ENDBRANCH   6  22
TORSDOF 4
ENDMDL
MODEL       82
REMARK 921   NORMALIZED FREE ENERGY PREDICTED BY IDOCK:   -5.30 KCAL/MOL
REMARK 922        TOTAL FREE ENERGY PREDICTED BY IDOCK:   -7.09 KCAL/MOL
REMARK 923 INTER-LIGAND FREE ENERGY PREDICTED BY IDOCK:   -6.23 KCAL/MOL
REMARK 924 INTRA-LIGAND FREE ENERGY PREDICTED BY IDOCK:   -0.86 KCAL/MOL
REMARK 927      BINDING AFFINITY PREDICTED BY RF-SCORE:    0.00 PKD
ROOT
HETATM    1  C   UNL     1     -10.003  13.489  66.826  1.00  0.00    -0.269 C  
HETATM    2  O   UNL     1     -11.007  13.060  65.876  1.00  0.00    -0.269 OA 
HETATM    3  C   UNL     1     -10.287  12.230  65.033  1.00  0.00    -0.291 A  
HETATM    4  C   UNL     1     -10.610  11.766  63.785  1.00  0.00    -0.415 A  
HETATM    5  C   UNL     1      -9.802  10.720  63.284  1.00  0.00    -0.394 A  
HETATM    6  C   UNL     1     -10.513  13.870  68.194  1.00  0.00    -0.245 C  
HETATM    7  C   UNL     1     -10.886  12.885  69.050  1.00  0.00    -0.188 C  
HETATM    8  C   UNL     1      -8.769  10.104  64.054  1.00  0.00    -0.224 A  
HETATM    9  C   UNL     1      -8.477  10.587  65.321  1.00  0.00    -0.175 A  
HETATM   10  C   UNL     1      -9.160  11.737  65.670  1.00  0.00    -0.034 A  
HETATM   11  C   UNL     1      -8.984  12.379  66.985  1.00  0.00    -0.209 C  
HETATM   12  C   UNL     1      -7.549  12.938  67.111  1.00  0.00    -0.037 C  
HETATM   13  C   UNL     1      -6.956  12.566  68.448  1.00  0.00    -0.096 C  
HETATM   14  N   UNL     1      -6.945  11.113  68.671  1.00  0.00    -0.075 NA 
HETATM   15  C   UNL     1      -6.903  10.898  70.123  1.00  0.00    -0.007 C  
HETATM   16  C   UNL     1      -8.038  10.371  67.975  1.00  0.00    -0.110 C  
HETATM   17  C   UNL     1      -7.622   9.947  66.429  1.00  0.00    -0.101 C  
HETATM   18  C   UNL     1      -9.348  11.189  67.899  1.00  0.00    -0.161 C  
HETATM   19  C   UNL     1     -10.163  11.555  69.140  1.00  0.00    -0.038 C  
ENDROOT
BRANCH   4  20
HETATM   20  O   UNL     1     -11.606  12.211  62.967  1.00  0.00    -0.233 OA 
HETATM   21  C   UNL     1     -12.955  11.971  63.362  1.00  0.00    -0.140 C  
ENDBRANCH   4  20
BRANCH   6  22
HETATM   22  O   UNL     1      -9.670  14.949  68.682  1.00  0.00    -0.212 OA 
BRANCH  22  23
HETATM   23  C   UNL     1      -9.917  16.267  68.443  1.00  0.00    -0.234 C  
HETATM   24  O   UNL     1     -10.975  16.750  68.051  1.00  0.00    -0.356 OA 
BRANCH  23  25
HETATM   25  C   UNL     1      -8.696  17.090  68.690  1.00  0.00    -0.261 A  
HETATM   26  C   UNL     1      -7.569  16.423  69.200  1.00  0.00    -0.225 A  
HETATM   27  C   UNL     1      -6.406  17.127  69.533  1.00  0.00    -0.230 A  
HETATM   28  C   UNL     1      -6.355  18.506  69.347  1.00  0.00    -0.271 A  
HETATM   29  C   UNL     1      -7.457  19.181  68.818  1.00  0.00    -0.379 A  
HETATM   30  C   UNL     1      -8.631  18.475  68.485  1.00  0.00    -0.349 A  
ENDBRANCH  23  25
ENDBRANCH  22  23
ENDBRANCH   6  22
TORSDOF 4
ENDMDL
MODEL       83
REMARK 921   NORMALIZED FREE ENERGY PREDICTED BY IDOCK:   -5.25 KCAL/MOL
REMARK 922        TOTAL FREE ENERGY PREDICTED BY IDOCK:   -7.03 KCAL/MOL
REMARK 923 INTER-LIGAND FREE ENERGY PREDICTED BY IDOCK:   -6.53 KCAL/MOL
REMARK 924 INTRA-LIGAND FREE ENERGY PREDICTED BY IDOCK:   -0.50 KCAL/MOL
REMARK 927      BINDING AFFINITY PREDICTED BY RF-SCORE:    0.00 PKD
ROOT
HETATM    1  C   UNL     1     -10.586   7.582  70.369  1.00  0.00    -0.229 C  
HETATM    2  O   UNL     1     -10.296   7.055  71.686  1.00  0.00    -0.199 OA 
HETATM    3  C   UNL     1     -10.346   5.686  71.479  1.00  0.00    -0.222 A  
HETATM    4  C   UNL     1     -10.449   4.672  72.394  1.00  0.00    -0.185 A  
HETATM    5  C   UNL     1     -10.204   3.368  71.905  1.00  0.00    -0.083 A  
HETATM    6  C   UNL     1     -10.021   8.949  70.069  1.00  0.00    -0.190 C  
HETATM    7  C   UNL     1      -8.693   9.065  69.813  1.00  0.00    -0.148 C  
HETATM    8  C   UNL     1      -9.777   3.112  70.567  1.00  0.00    -0.118 A  
HETATM    9  C   UNL     1      -9.666   4.164  69.668  1.00  0.00    -0.269 A  
HETATM   10  C   UNL     1     -10.117   5.380  70.148  1.00  0.00    -0.322 A  
HETATM   11  C   UNL     1     -10.060   6.607  69.334  1.00  0.00    -0.192 C  
HETATM   12  C   UNL     1     -11.020   6.485  68.129  1.00  0.00    -0.365 C  
HETATM   13  C   UNL     1     -10.333   6.937  66.864  1.00  0.00    -0.262 C  
HETATM   14  N   UNL     1      -9.099   6.184  66.596  1.00  0.00    -0.135 NA 
HETATM   15  C   UNL     1      -8.255   7.025  65.737  1.00  0.00    -0.132 C  
HETATM   16  C   UNL     1      -8.409   5.671  67.816  1.00  0.00    -0.100 C  
HETATM   17  C   UNL     1      -8.986   4.192  68.288  1.00  0.00    -0.154 C  
HETATM   18  C   UNL     1      -8.549   6.633  69.019  1.00  0.00    -0.130 C  
HETATM   19  C   UNL     1      -7.909   8.021  69.040  1.00  0.00    -0.109 C  
ENDROOT
BRANCH   4  20
HETATM   20  O   UNL     1     -10.782   4.775  73.712  1.00  0.00    -0.244 OA 
HETATM   21  C   UNL     1     -10.110   5.758  74.498  1.00  0.00    -0.287 C  
ENDBRANCH   4  20
BRANCH   6  22
HETATM   22  O   UNL     1     -10.971   9.625  69.202  1.00  0.00    -0.218 OA 
BRANCH  22  23
HETATM   23  C   UNL     1     -11.835  10.586  69.633  1.00  0.00    -0.234 C  
HETATM   24  O   UNL     1     -12.501  10.557  70.664  1.00  0.00    -0.317 OA 
BRANCH  23  25
HETATM   25  C   UNL     1     -11.910  11.710  68.654  1.00  0.00    -0.370 A  
HETATM   26  C   UNL     1     -11.913  11.371  67.290  1.00  0.00     0.258 A  
HETATM   27  C   UNL     1     -11.905  12.362  66.302  1.00  0.00    -0.431 A  
HETATM   28  C   UNL     1     -11.906  13.705  66.670  1.00  0.00    -0.447 A  
HETATM   29  C   UNL     1     -11.928  14.060  68.020  1.00  0.00    -0.386 A  
HETATM   30  C   UNL     1     -11.933  13.064  69.018  1.00  0.00    -0.312 A  
ENDBRANCH  23  25
ENDBRANCH  22  23
ENDBRANCH   6  22
TORSDOF 4
ENDMDL
MODEL       84
REMARK 921   NORMALIZED FREE ENERGY PREDICTED BY IDOCK:   -5.22 KCAL/MOL
REMARK 922        TOTAL FREE ENERGY PREDICTED BY IDOCK:   -6.99 KCAL/MOL
REMARK 923 INTER-LIGAND FREE ENERGY PREDICTED BY IDOCK:   -6.43 KCAL/MOL
REMARK 924 INTRA-LIGAND FREE ENERGY PREDICTED BY IDOCK:   -0.56 KCAL/MOL
REMARK 927      BINDING AFFINITY PREDICTED BY RF-SCORE:    0.00 PKD
ROOT
HETATM    1  C   UNL     1      -9.484   8.757  70.969  1.00  0.00    -0.228 C  
HETATM    2  O   UNL     1      -8.358   8.871  71.873  1.00  0.00    -0.349 OA 
HETATM    3  C   UNL     1      -8.215   7.575  72.339  1.00  0.00    -0.104 A  
HETATM    4  C   UNL     1      -7.523   7.114  73.428  1.00  0.00    -0.075 A  
HETATM    5  C   UNL     1      -7.334   5.715  73.495  1.00  0.00    -0.087 A  
HETATM    6  C   UNL     1      -9.531   9.766  69.848  1.00  0.00    -0.231 C  
HETATM    7  C   UNL     1      -8.685   9.615  68.797  1.00  0.00    -0.126 C  
HETATM    8  C   UNL     1      -7.744   4.828  72.454  1.00  0.00    -0.091 A  
HETATM    9  C   UNL     1      -8.429   5.328  71.356  1.00  0.00    -0.125 A  
HETATM   10  C   UNL     1      -8.763   6.667  71.447  1.00  0.00    -0.129 A  
HETATM   11  C   UNL     1      -9.477   7.367  70.365  1.00  0.00    -0.165 C  
HETATM   12  C   UNL     1     -10.908   6.801  70.226  1.00  0.00    -0.314 C  
HETATM   13  C   UNL     1     -11.232   6.545  68.774  1.00  0.00    -0.236 C  
HETATM   14  N   UNL     1     -10.272   5.632  68.138  1.00  0.00    -0.173 NA 
HETATM   15  C   UNL     1     -10.320   5.891  66.693  1.00  0.00    -0.226 C  
HETATM   16  C   UNL     1      -8.897   5.674  68.721  1.00  0.00    -0.108 C  
HETATM   17  C   UNL     1      -8.732   4.647  70.010  1.00  0.00    -0.113 C  
HETATM   18  C   UNL     1      -8.504   7.091  69.199  1.00  0.00    -0.129 C  
HETATM   19  C   UNL     1      -8.308   8.259  68.232  1.00  0.00    -0.132 C  
ENDROOT
BRANCH   4  20
HETATM   20  O   UNL     1      -7.017   7.848  74.460  1.00  0.00    -0.116 OA 
HETATM   21  C   UNL     1      -5.764   8.501  74.267  1.00  0.00    -0.111 C  
ENDBRANCH   4  20
BRANCH   6  22
HETATM   22  O   UNL     1     -10.932  10.058  69.593  1.00  0.00    -0.237 OA 
BRANCH  22  23
HETATM   23  C   UNL     1     -11.503  11.273  69.819  1.00  0.00    -0.310 C  
HETATM   24  O   UNL     1     -11.942  11.683  70.890  1.00  0.00    -0.289 OA 
BRANCH  23  25
HETATM   25  C   UNL     1     -11.569  12.073  68.560  1.00  0.00    -0.363 A  
HETATM   26  C   UNL     1     -11.151  11.438  67.378  1.00  0.00    -0.349 A  
HETATM   27  C   UNL     1     -11.108  12.134  66.164  1.00  0.00    -0.354 A  
HETATM   28  C   UNL     1     -11.495  13.471  66.120  1.00  0.00    -0.348 A  
HETATM   29  C   UNL     1     -11.936  14.110  67.279  1.00  0.00    -0.449 A  
HETATM   30  C   UNL     1     -11.978  13.413  68.504  1.00  0.00    -0.363 A  
ENDBRANCH  23  25
ENDBRANCH  22  23
ENDBRANCH   6  22
TORSDOF 4
ENDMDL
MODEL       85
REMARK 921   NORMALIZED FREE ENERGY PREDICTED BY IDOCK:   -5.21 KCAL/MOL
REMARK 922        TOTAL FREE ENERGY PREDICTED BY IDOCK:   -6.98 KCAL/MOL
REMARK 923 INTER-LIGAND FREE ENERGY PREDICTED BY IDOCK:   -6.24 KCAL/MOL
REMARK 924 INTRA-LIGAND FREE ENERGY PREDICTED BY IDOCK:   -0.74 KCAL/MOL
REMARK 927      BINDING AFFINITY PREDICTED BY RF-SCORE:    0.00 PKD
ROOT
HETATM    1  C   UNL     1      -8.695  11.187  66.349  1.00  0.00    -0.177 C  
HETATM    2  O   UNL     1      -8.846  10.773  64.970  1.00  0.00    -0.195 OA 
HETATM    3  C   UNL     1      -8.463   9.443  65.012  1.00  0.00    -0.159 A  
HETATM    4  C   UNL     1      -8.115   8.605  63.985  1.00  0.00    -0.163 A  
HETATM    5  C   UNL     1      -8.035   7.231  64.306  1.00  0.00    -0.093 A  
HETATM    6  C   UNL     1      -9.578  12.327  66.794  1.00  0.00    -0.218 C  
HETATM    7  C   UNL     1     -10.893  12.086  67.021  1.00  0.00    -0.297 C  
HETATM    8  C   UNL     1      -8.387   6.714  65.590  1.00  0.00    -0.144 A  
HETATM    9  C   UNL     1      -8.751   7.588  66.605  1.00  0.00    -0.146 A  
HETATM   10  C   UNL     1      -8.611   8.927  66.289  1.00  0.00    -0.145 A  
HETATM   11  C   UNL     1      -8.967   9.993  67.243  1.00  0.00    -0.144 C  
HETATM   12  C   UNL     1      -8.007   9.958  68.453  1.00  0.00    -0.096 C  
HETATM   13  C   UNL     1      -8.785  10.070  69.742  1.00  0.00    -0.179 C  
HETATM   14  N   UNL     1      -9.797   9.012  69.879  1.00  0.00    -0.176 NA 
HETATM   15  C   UNL     1     -10.821   9.509  70.807  1.00  0.00    -0.318 C  
HETATM   16  C   UNL     1     -10.340   8.502  68.585  1.00  0.00    -0.198 C  
HETATM   17  C   UNL     1      -9.418   7.279  67.956  1.00  0.00    -0.139 C  
HETATM   18  C   UNL     1     -10.439   9.611  67.512  1.00  0.00    -0.321 C  
HETATM   19  C   UNL     1     -11.398  10.795  67.638  1.00  0.00    -0.328 C  
ENDROOT
BRANCH   4  20
HETATM   20  O   UNL     1      -7.817   8.949  62.700  1.00  0.00    -0.120 OA 
HETATM   21  C   UNL     1      -6.800   9.925  62.486  1.00  0.00    -0.113 C  
ENDBRANCH   4  20
BRANCH   6  22
HETATM   22  O   UNL     1      -8.821  13.101  67.765  1.00  0.00    -0.169 OA 
BRANCH  22  23
HETATM   23  C   UNL     1      -8.001  14.135  67.432  1.00  0.00    -0.184 C  
HETATM   24  O   UNL     1      -6.792  14.070  67.230  1.00  0.00    -0.214 OA 
BRANCH  23  25
HETATM   25  C   UNL     1      -8.762  15.419  67.371  1.00  0.00    -0.194 A  
HETATM   26  C   UNL     1      -8.949  16.108  68.580  1.00  0.00    -0.221 A  
HETATM   27  C   UNL     1      -9.713  17.280  68.630  1.00  0.00    -0.301 A  
HETATM   28  C   UNL     1     -10.288  17.780  67.464  1.00  0.00    -0.371 A  
HETATM   29  C   UNL     1     -10.092  17.121  66.249  1.00  0.00    -0.329 A  
HETATM   30  C   UNL     1      -9.325  15.939  66.197  1.00  0.00    -0.385 A  
ENDBRANCH  23  25
ENDBRANCH  22  23
ENDBRANCH   6  22
TORSDOF 4
ENDMDL
MODEL       86
REMARK 921   NORMALIZED FREE ENERGY PREDICTED BY IDOCK:   -5.21 KCAL/MOL
REMARK 922        TOTAL FREE ENERGY PREDICTED BY IDOCK:   -6.98 KCAL/MOL
REMARK 923 INTER-LIGAND FREE ENERGY PREDICTED BY IDOCK:   -5.69 KCAL/MOL
REMARK 924 INTRA-LIGAND FREE ENERGY PREDICTED BY IDOCK:   -1.29 KCAL/MOL
REMARK 927      BINDING AFFINITY PREDICTED BY RF-SCORE:    0.00 PKD
ROOT
HETATM    1  C   UNL     1     -10.454   8.037  68.454  1.00  0.00    -0.163 C  
HETATM    2  O   UNL     1     -11.153   9.022  67.657  1.00  0.00    -0.045 OA 
HETATM    3  C   UNL     1     -10.169   9.967  67.417  1.00  0.00    -0.222 A  
HETATM    4  C   UNL     1     -10.293  11.259  66.977  1.00  0.00    -0.227 A  
HETATM    5  C   UNL     1      -9.096  11.891  66.567  1.00  0.00    -0.211 A  
HETATM    6  C   UNL     1     -10.988   6.628  68.373  1.00  0.00    -0.239 C  
HETATM    7  C   UNL     1     -10.730   5.894  67.261  1.00  0.00    -0.380 C  
HETATM    8  C   UNL     1      -7.841  11.212  66.514  1.00  0.00    -0.151 A  
HETATM    9  C   UNL     1      -7.753   9.898  66.952  1.00  0.00    -0.098 A  
HETATM   10  C   UNL     1      -8.908   9.405  67.531  1.00  0.00    -0.123 A  
HETATM   11  C   UNL     1      -8.997   8.024  68.037  1.00  0.00    -0.130 C  
HETATM   12  C   UNL     1      -8.059   7.846  69.251  1.00  0.00    -0.126 C  
HETATM   13  C   UNL     1      -7.264   6.570  69.117  1.00  0.00    -0.091 C  
HETATM   14  N   UNL     1      -6.482   6.525  67.873  1.00  0.00    -0.050 NA 
HETATM   15  C   UNL     1      -6.229   5.110  67.571  1.00  0.00    -0.038 C  
HETATM   16  C   UNL     1      -7.076   7.295  66.739  1.00  0.00    -0.082 C  
HETATM   17  C   UNL     1      -6.613   8.884  66.751  1.00  0.00    -0.064 C  
HETATM   18  C   UNL     1      -8.621   7.258  66.750  1.00  0.00    -0.127 C  
HETATM   19  C   UNL     1      -9.415   5.974  66.509  1.00  0.00    -0.177 C  
ENDROOT
BRANCH   4  20
HETATM   20  O   UNL     1     -11.431  12.006  66.910  1.00  0.00    -0.327 OA 
HETATM   21  C   UNL     1     -11.963  12.304  65.621  1.00  0.00    -0.306 C  
ENDBRANCH   4  20
BRANCH   6  22
HETATM   22  O   UNL     1     -10.797   6.021  69.681  1.00  0.00    -0.298 OA 
BRANCH  22  23
HETATM   23  C   UNL     1     -11.345   6.511  70.827  1.00  0.00    -0.342 C  
HETATM   24  O   UNL     1     -12.508   6.872  70.982  1.00  0.00    -0.382 OA 
BRANCH  23  25
HETATM   25  C   UNL     1     -10.322   6.595  71.911  1.00  0.00    -0.219 A  
HETATM   26  C   UNL     1     -10.035   7.873  72.421  1.00  0.00    -0.291 A  
HETATM   27  C   UNL     1      -9.037   8.056  73.385  1.00  0.00    -0.340 A  
HETATM   28  C   UNL     1      -8.323   6.958  73.857  1.00  0.00    -0.152 A  
HETATM   29  C   UNL     1      -8.612   5.678  73.381  1.00  0.00    -0.115 A  
HETATM   30  C   UNL     1      -9.614   5.491  72.407  1.00  0.00    -0.170 A  
ENDBRANCH  23  25
ENDBRANCH  22  23
ENDBRANCH   6  22
TORSDOF 4
ENDMDL
MODEL       87
REMARK 921   NORMALIZED FREE ENERGY PREDICTED BY IDOCK:   -5.19 KCAL/MOL
REMARK 922        TOTAL FREE ENERGY PREDICTED BY IDOCK:   -6.96 KCAL/MOL
REMARK 923 INTER-LIGAND FREE ENERGY PREDICTED BY IDOCK:   -6.00 KCAL/MOL
REMARK 924 INTRA-LIGAND FREE ENERGY PREDICTED BY IDOCK:   -0.95 KCAL/MOL
REMARK 927      BINDING AFFINITY PREDICTED BY RF-SCORE:    0.00 PKD
ROOT
HETATM    1  C   UNL     1      -9.715  13.302  68.232  1.00  0.00    -0.225 C  
HETATM    2  O   UNL     1     -10.917  12.548  68.516  1.00  0.00    -0.227 OA 
HETATM    3  C   UNL     1     -11.424  13.198  69.629  1.00  0.00    -0.191 A  
HETATM    4  C   UNL     1     -12.370  12.778  70.526  1.00  0.00    -0.275 A  
HETATM    5  C   UNL     1     -12.878  13.767  71.400  1.00  0.00    -0.449 A  
HETATM    6  C   UNL     1      -9.260  13.294  66.793  1.00  0.00    -0.233 C  
HETATM    7  C   UNL     1      -9.934  14.049  65.889  1.00  0.00    -0.325 C  
HETATM    8  C   UNL     1     -12.515  15.144  71.304  1.00  0.00    -0.411 A  
HETATM    9  C   UNL     1     -11.565  15.541  70.373  1.00  0.00    -0.359 A  
HETATM   10  C   UNL     1     -10.957  14.501  69.693  1.00  0.00    -0.225 A  
HETATM   11  C   UNL     1      -9.937  14.740  68.657  1.00  0.00    -0.232 C  
HETATM   12  C   UNL     1      -8.668  15.346  69.298  1.00  0.00    -0.252 C  
HETATM   13  C   UNL     1      -8.178  16.518  68.483  1.00  0.00    -0.212 C  
HETATM   14  N   UNL     1      -9.203  17.560  68.329  1.00  0.00    -0.269 NA 
HETATM   15  C   UNL     1      -8.863  18.327  67.123  1.00  0.00    -0.260 C  
HETATM   16  C   UNL     1     -10.608  17.057  68.357  1.00  0.00    -0.375 C  
HETATM   17  C   UNL     1     -11.208  16.960  69.897  1.00  0.00     0.301 C  
HETATM   18  C   UNL     1     -10.744  15.657  67.713  1.00  0.00    -0.297 C  
HETATM   19  C   UNL     1     -10.511  15.412  66.222  1.00  0.00    -0.310 C  
ENDROOT
BRANCH   4  20
HETATM   20  O   UNL     1     -12.858  11.515  70.686  1.00  0.00    -0.193 OA 
HETATM   21  C   UNL     1     -11.961  10.502  71.137  1.00  0.00    -0.336 C  
ENDBRANCH   4  20
BRANCH   6  22
HETATM   22  O   UNL     1      -7.806  13.334  66.803  1.00  0.00     0.109 OA 
BRANCH  22  23
HETATM   23  C   UNL     1      -7.035  12.539  67.595  1.00  0.00    -0.139 C  
HETATM   24  O   UNL     1      -6.348  12.904  68.544  1.00  0.00    -0.069 OA 
BRANCH  23  25
HETATM   25  C   UNL     1      -7.095  11.118  67.142  1.00  0.00    -0.113 A  
HETATM   26  C   UNL     1      -7.436  10.154  68.106  1.00  0.00    -0.083 A  
HETATM   27  C   UNL     1      -7.443   8.790  67.789  1.00  0.00    -0.093 A  
HETATM   28  C   UNL     1      -7.120   8.379  66.499  1.00  0.00    -0.072 A  
HETATM   29  C   UNL     1      -6.803   9.324  65.522  1.00  0.00    -0.074 A  
HETATM   30  C   UNL     1      -6.792  10.699  65.838  1.00  0.00    -0.115 A  
ENDBRANCH  23  25
ENDBRANCH  22  23
ENDBRANCH   6  22
TORSDOF 4
ENDMDL
MODEL       88
REMARK 921   NORMALIZED FREE ENERGY PREDICTED BY IDOCK:   -5.18 KCAL/MOL
REMARK 922        TOTAL FREE ENERGY PREDICTED BY IDOCK:   -6.94 KCAL/MOL
REMARK 923 INTER-LIGAND FREE ENERGY PREDICTED BY IDOCK:   -6.32 KCAL/MOL
REMARK 924 INTRA-LIGAND FREE ENERGY PREDICTED BY IDOCK:   -0.62 KCAL/MOL
REMARK 927      BINDING AFFINITY PREDICTED BY RF-SCORE:    0.00 PKD
ROOT
HETATM    1  C   UNL     1      -9.872   8.173  66.957  1.00  0.00    -0.232 C  
HETATM    2  O   UNL     1     -10.734   7.051  66.655  1.00  0.00    -0.249 OA 
HETATM    3  C   UNL     1      -9.838   6.001  66.557  1.00  0.00    -0.145 A  
HETATM    4  C   UNL     1     -10.010   4.758  66.005  1.00  0.00    -0.237 A  
HETATM    5  C   UNL     1      -9.005   3.806  66.295  1.00  0.00    -0.136 A  
HETATM    6  C   UNL     1     -10.510   9.305  67.725  1.00  0.00    -0.255 C  
HETATM    7  C   UNL     1     -10.748   9.143  69.051  1.00  0.00    -0.176 C  
HETATM    8  C   UNL     1      -7.921   4.073  67.185  1.00  0.00    -0.095 A  
HETATM    9  C   UNL     1      -7.784   5.337  67.741  1.00  0.00    -0.091 A  
HETATM   10  C   UNL     1      -8.675   6.277  67.259  1.00  0.00    -0.105 A  
HETATM   11  C   UNL     1      -8.682   7.667  67.749  1.00  0.00    -0.127 C  
HETATM   12  C   UNL     1      -7.376   8.379  67.332  1.00  0.00    -0.089 C  
HETATM   13  C   UNL     1      -6.797   9.138  68.501  1.00  0.00    -0.063 C  
HETATM   14  N   UNL     1      -6.542   8.272  69.661  1.00  0.00    -0.037 NA 
HETATM   15  C   UNL     1      -6.537   9.132  70.851  1.00  0.00    -0.082 C  
HETATM   16  C   UNL     1      -7.451   7.091  69.763  1.00  0.00    -0.098 C  
HETATM   17  C   UNL     1      -6.888   5.791  68.907  1.00  0.00    -0.066 C  
HETATM   18  C   UNL     1      -8.878   7.402  69.258  1.00  0.00    -0.136 C  
HETATM   19  C   UNL     1      -9.807   8.386  69.969  1.00  0.00    -0.182 C  
ENDROOT
BRANCH   4  20
HETATM   20  O   UNL     1     -11.025   4.345  65.195  1.00  0.00    -0.251 OA 
HETATM   21  C   UNL     1     -10.696   3.528  64.073  1.00  0.00    -0.212 C  
ENDBRANCH   4  20
BRANCH   6  22
HETATM   22  O   UNL     1      -9.896  10.538  67.261  1.00  0.00    -0.169 OA 
BRANCH  22  23
HETATM   23  C   UNL     1     -10.488  11.760  67.358  1.00  0.00    -0.211 C  
HETATM   24  O   UNL     1     -10.652  12.410  68.387  1.00  0.00    -0.223 OA 
BRANCH  23  25
HETATM   25  C   UNL     1     -10.966  12.228  66.023  1.00  0.00    -0.327 A  
HETATM   26  C   UNL     1     -11.845  13.324  66.008  1.00  0.00    -0.440 A  
HETATM   27  C   UNL     1     -12.402  13.783  64.809  1.00  0.00    -0.420 A  
HETATM   28  C   UNL     1     -12.075  13.154  63.610  1.00  0.00    -0.583 A  
HETATM   29  C   UNL     1     -11.185  12.080  63.604  1.00  0.00    -0.528 A  
HETATM   30  C   UNL     1     -10.624  11.613  64.810  1.00  0.00    -0.358 A  
ENDBRANCH  23  25
ENDBRANCH  22  23
ENDBRANCH   6  22
TORSDOF 4
ENDMDL
MODEL       89
REMARK 921   NORMALIZED FREE ENERGY PREDICTED BY IDOCK:   -5.17 KCAL/MOL
REMARK 922        TOTAL FREE ENERGY PREDICTED BY IDOCK:   -6.94 KCAL/MOL
REMARK 923 INTER-LIGAND FREE ENERGY PREDICTED BY IDOCK:   -5.87 KCAL/MOL
REMARK 924 INTRA-LIGAND FREE ENERGY PREDICTED BY IDOCK:   -1.07 KCAL/MOL
REMARK 927      BINDING AFFINITY PREDICTED BY RF-SCORE:    0.00 PKD
ROOT
HETATM    1  C   UNL     1     -10.336   8.271  66.748  1.00  0.00    -0.290 C  
HETATM    2  O   UNL     1     -10.313   6.842  66.980  1.00  0.00    -0.222 OA 
HETATM    3  C   UNL     1      -9.342   6.409  66.094  1.00  0.00    -0.076 A  
HETATM    4  C   UNL     1      -9.079   5.143  65.641  1.00  0.00    -0.157 A  
HETATM    5  C   UNL     1      -7.856   4.971  64.954  1.00  0.00    -0.091 A  
HETATM    6  C   UNL     1     -10.786   9.119  67.913  1.00  0.00    -0.162 C  
HETATM    7  C   UNL     1      -9.932   9.311  68.950  1.00  0.00    -0.190 C  
HETATM    8  C   UNL     1      -6.892   6.017  64.816  1.00  0.00    -0.047 A  
HETATM    9  C   UNL     1      -7.181   7.284  65.301  1.00  0.00    -0.069 A  
HETATM   10  C   UNL     1      -8.471   7.439  65.775  1.00  0.00    -0.149 A  
HETATM   11  C   UNL     1      -8.945   8.715  66.340  1.00  0.00    -0.197 C  
HETATM   12  C   UNL     1      -8.993   9.795  65.236  1.00  0.00    -0.233 C  
HETATM   13  C   UNL     1      -8.374  11.079  65.731  1.00  0.00    -0.092 C  
HETATM   14  N   UNL     1      -6.988  10.893  66.185  1.00  0.00    -0.126 NA 
HETATM   15  C   UNL     1      -6.690  11.981  67.125  1.00  0.00    -0.136 C  
HETATM   16  C   UNL     1      -6.686   9.529  66.713  1.00  0.00    -0.072 C  
HETATM   17  C   UNL     1      -6.235   8.479  65.515  1.00  0.00    -0.049 C  
HETATM   18  C   UNL     1      -7.892   8.905  67.453  1.00  0.00    -0.097 C  
HETATM   19  C   UNL     1      -8.435   9.473  68.765  1.00  0.00    -0.122 C  
ENDROOT
BRANCH   4  20
HETATM   20  O   UNL     1      -9.872   4.040  65.758  1.00  0.00    -0.192 OA 
HETATM   21  C   UNL     1      -9.275   2.832  66.225  1.00  0.00    -0.074 C  
ENDBRANCH   4  20
BRANCH   6  22
HETATM   22  O   UNL     1     -11.499  10.259  67.362  1.00  0.00    -0.290 OA 
BRANCH  22  23
HETATM   23  C   UNL     1     -11.613  11.458  67.998  1.00  0.00    -0.286 C  
HETATM   24  O   UNL     1     -12.005  11.638  69.148  1.00  0.00    -0.323 OA 
BRANCH  23  25
HETATM   25  C   UNL     1     -11.222  12.579  67.093  1.00  0.00    -0.352 A  
HETATM   26  C   UNL     1     -11.704  12.533  65.774  1.00  0.00    -0.478 A  
HETATM   27  C   UNL     1     -11.327  13.501  64.836  1.00  0.00    -0.347 A  
HETATM   28  C   UNL     1     -10.472  14.533  65.213  1.00  0.00    -0.411 A  
HETATM   29  C   UNL     1     -10.004  14.609  66.526  1.00  0.00    -0.292 A  
HETATM   30  C   UNL     1     -10.379  13.633  67.473  1.00  0.00    -0.241 A  
ENDBRANCH  23  25
ENDBRANCH  22  23
ENDBRANCH   6  22
TORSDOF 4
ENDMDL
MODEL       90
REMARK 921   NORMALIZED FREE ENERGY PREDICTED BY IDOCK:   -5.17 KCAL/MOL
REMARK 922        TOTAL FREE ENERGY PREDICTED BY IDOCK:   -6.93 KCAL/MOL
REMARK 923 INTER-LIGAND FREE ENERGY PREDICTED BY IDOCK:   -6.08 KCAL/MOL
REMARK 924 INTRA-LIGAND FREE ENERGY PREDICTED BY IDOCK:   -0.85 KCAL/MOL
REMARK 927      BINDING AFFINITY PREDICTED BY RF-SCORE:    0.00 PKD
ROOT
HETATM    1  C   UNL     1      -9.241  10.345  69.236  1.00  0.00    -0.184 C  
HETATM    2  O   UNL     1      -8.529  10.193  70.487  1.00  0.00     0.014 OA 
HETATM    3  C   UNL     1      -8.427   8.817  70.610  1.00  0.00    -0.171 A  
HETATM    4  C   UNL     1      -8.123   8.062  71.712  1.00  0.00    -0.117 A  
HETATM    5  C   UNL     1      -7.827   6.701  71.469  1.00  0.00    -0.099 A  
HETATM    6  C   UNL     1      -8.991  11.632  68.490  1.00  0.00    -0.138 C  
HETATM    7  C   UNL     1      -7.816  11.786  67.828  1.00  0.00    -0.135 C  
HETATM    8  C   UNL     1      -7.746   6.150  70.154  1.00  0.00    -0.097 A  
HETATM    9  C   UNL     1      -8.043   6.946  69.057  1.00  0.00    -0.117 A  
HETATM   10  C   UNL     1      -8.525   8.203  69.372  1.00  0.00    -0.127 A  
HETATM   11  C   UNL     1      -8.876   9.185  68.330  1.00  0.00    -0.129 C  
HETATM   12  C   UNL     1     -10.097   8.686  67.526  1.00  0.00    -0.277 C  
HETATM   13  C   UNL     1      -9.855   8.857  66.046  1.00  0.00    -0.207 C  
HETATM   14  N   UNL     1      -8.642   8.162  65.592  1.00  0.00    -0.158 NA 
HETATM   15  C   UNL     1      -8.200   8.823  64.358  1.00  0.00    -0.168 C  
HETATM   16  C   UNL     1      -7.577   8.031  66.631  1.00  0.00    -0.093 C  
HETATM   17  C   UNL     1      -7.776   6.679  67.565  1.00  0.00    -0.110 C  
HETATM   18  C   UNL     1      -7.529   9.252  67.579  1.00  0.00    -0.088 C  
HETATM   19  C   UNL     1      -7.124  10.647  67.104  1.00  0.00    -0.093 C  
ENDROOT
BRANCH   4  20
HETATM   20  O   UNL     1      -8.097   8.468  73.013  1.00  0.00    -0.350 OA 
HETATM   21  C   UNL     1      -8.953   7.804  73.940  1.00  0.00    -0.259 C  
ENDBRANCH   4  20
BRANCH   6  22
HETATM   22  O   UNL     1     -10.232  11.988  67.822  1.00  0.00    -0.195 OA 
BRANCH  22  23
HETATM   23  C   UNL     1     -10.489  13.226  67.317  1.00  0.00    -0.247 C  
HETATM   24  O   UNL     1     -10.301  14.298  67.886  1.00  0.00    -0.229 OA 
BRANCH  23  25
HETATM   25  C   UNL     1     -11.082  13.131  65.950  1.00  0.00    -0.298 A  
HETATM   26  C   UNL     1     -11.596  14.314  65.394  1.00  0.00    -0.346 A  
HETATM   27  C   UNL     1     -12.238  14.304  64.150  1.00  0.00    -0.410 A  
HETATM   28  C   UNL     1     -12.359  13.110  63.444  1.00  0.00    -0.443 A  
HETATM   29  C   UNL     1     -11.832  11.930  63.970  1.00  0.00    -0.458 A  
HETATM   30  C   UNL     1     -11.188  11.936  65.225  1.00  0.00    -0.351 A  
ENDBRANCH  23  25
ENDBRANCH  22  23
ENDBRANCH   6  22
TORSDOF 4
ENDMDL
MODEL       91
REMARK 921   NORMALIZED FREE ENERGY PREDICTED BY IDOCK:   -5.15 KCAL/MOL
REMARK 922        TOTAL FREE ENERGY PREDICTED BY IDOCK:   -6.91 KCAL/MOL
REMARK 923 INTER-LIGAND FREE ENERGY PREDICTED BY IDOCK:   -6.41 KCAL/MOL
REMARK 924 INTRA-LIGAND FREE ENERGY PREDICTED BY IDOCK:   -0.50 KCAL/MOL
REMARK 927      BINDING AFFINITY PREDICTED BY RF-SCORE:    0.00 PKD
ROOT
HETATM    1  C   UNL     1      -7.731  15.957  68.427  1.00  0.00    -0.140 C  
HETATM    2  O   UNL     1      -7.262  16.814  69.495  1.00  0.00    -0.179 OA 
HETATM    3  C   UNL     1      -7.029  18.011  68.839  1.00  0.00    -0.260 A  
HETATM    4  C   UNL     1      -6.305  19.101  69.248  1.00  0.00    -0.289 A  
HETATM    5  C   UNL     1      -6.470  20.278  68.483  1.00  0.00    -0.340 A  
HETATM    6  C   UNL     1      -8.643  14.828  68.843  1.00  0.00    -0.160 C  
HETATM    7  C   UNL     1      -9.929  15.112  69.166  1.00  0.00    -0.238 C  
HETATM    8  C   UNL     1      -7.403  20.376  67.406  1.00  0.00    -0.359 A  
HETATM    9  C   UNL     1      -8.133  19.258  67.026  1.00  0.00    -0.284 A  
HETATM   10  C   UNL     1      -7.777  18.091  67.676  1.00  0.00    -0.215 A  
HETATM   11  C   UNL     1      -8.459  16.811  67.408  1.00  0.00    -0.203 C  
HETATM   12  C   UNL     1      -8.163  16.350  65.963  1.00  0.00    -0.075 C  
HETATM   13  C   UNL     1      -9.434  15.899  65.287  1.00  0.00     0.344 C  
HETATM   14  N   UNL     1     -10.464  16.948  65.272  1.00  0.00    -0.662 NA 
HETATM   15  C   UNL     1     -11.764  16.279  65.135  1.00  0.00     0.522 C  
HETATM   16  C   UNL     1     -10.387  17.907  66.415  1.00  0.00    -0.365 C  
HETATM   17  C   UNL     1      -9.363  19.170  66.105  1.00  0.00    -0.266 C  
HETATM   18  C   UNL     1      -9.912  17.229  67.720  1.00  0.00    -0.301 C  
HETATM   19  C   UNL     1     -10.744  16.172  68.448  1.00  0.00    -0.298 C  
ENDROOT
BRANCH   4  20
HETATM   20  O   UNL     1      -5.431  19.171  70.292  1.00  0.00    -0.211 OA 
HETATM   21  C   UNL     1      -5.875  19.792  71.497  1.00  0.00    -0.240 C  
ENDBRANCH   4  20
BRANCH   6  22
HETATM   22  O   UNL     1      -8.365  13.707  67.961  1.00  0.00    -0.148 OA 
BRANCH  22  23
HETATM   23  C   UNL     1      -9.332  12.964  67.356  1.00  0.00    -0.194 C  
HETATM   24  O   UNL     1      -9.745  13.103  66.208  1.00  0.00    -0.271 OA 
BRANCH  23  25
HETATM   25  C   UNL     1      -9.882  11.940  68.293  1.00  0.00    -0.199 A  
HETATM   26  C   UNL     1      -8.963  11.055  68.881  1.00  0.00    -0.123 A  
HETATM   27  C   UNL     1      -9.396  10.016  69.713  1.00  0.00    -0.233 A  
HETATM   28  C   UNL     1     -10.755   9.861  69.975  1.00  0.00    -0.338 A  
HETATM   29  C   UNL     1     -11.679  10.747  69.420  1.00  0.00    -0.378 A  
HETATM   30  C   UNL     1     -11.247  11.793  68.578  1.00  0.00    -0.306 A  
ENDBRANCH  23  25
ENDBRANCH  22  23
ENDBRANCH   6  22
TORSDOF 4
ENDMDL
MODEL       92
REMARK 921   NORMALIZED FREE ENERGY PREDICTED BY IDOCK:   -5.14 KCAL/MOL
REMARK 922        TOTAL FREE ENERGY PREDICTED BY IDOCK:   -6.89 KCAL/MOL
REMARK 923 INTER-LIGAND FREE ENERGY PREDICTED BY IDOCK:   -6.24 KCAL/MOL
REMARK 924 INTRA-LIGAND FREE ENERGY PREDICTED BY IDOCK:   -0.65 KCAL/MOL
REMARK 927      BINDING AFFINITY PREDICTED BY RF-SCORE:    0.00 PKD
ROOT
HETATM    1  C   UNL     1     -10.030   8.309  68.093  1.00  0.00    -0.191 C  
HETATM    2  O   UNL     1      -9.950   6.947  68.576  1.00  0.00    -0.142 OA 
HETATM    3  C   UNL     1      -9.248   6.310  67.567  1.00  0.00    -0.108 A  
HETATM    4  C   UNL     1      -9.118   4.971  67.308  1.00  0.00    -0.114 A  
HETATM    5  C   UNL     1      -8.119   4.614  66.373  1.00  0.00    -0.103 A  
HETATM    6  C   UNL     1     -10.155   9.376  69.153  1.00  0.00    -0.195 C  
HETATM    7  C   UNL     1      -9.057   9.708  69.878  1.00  0.00    -0.250 C  
HETATM    8  C   UNL     1      -7.224   5.566  65.796  1.00  0.00    -0.068 A  
HETATM    9  C   UNL     1      -7.372   6.914  66.091  1.00  0.00    -0.076 A  
HETATM   10  C   UNL     1      -8.491   7.218  66.845  1.00  0.00    -0.119 A  
HETATM   11  C   UNL     1      -8.796   8.599  67.263  1.00  0.00    -0.141 C  
HETATM   12  C   UNL     1      -9.131   9.462  66.026  1.00  0.00    -0.228 C  
HETATM   13  C   UNL     1      -8.400  10.780  66.093  1.00  0.00    -0.166 C  
HETATM   14  N   UNL     1      -6.944  10.608  66.199  1.00  0.00    -0.130 NA 
HETATM   15  C   UNL     1      -6.406  11.832  66.807  1.00  0.00    -0.083 C  
HETATM   16  C   UNL     1      -6.516   9.349  66.878  1.00  0.00    -0.067 C  
HETATM   17  C   UNL     1      -6.400   8.077  65.824  1.00  0.00    -0.042 C  
HETATM   18  C   UNL     1      -7.485   8.933  68.008  1.00  0.00    -0.092 C  
HETATM   19  C   UNL     1      -7.662   9.756  69.285  1.00  0.00    -0.101 C  
ENDROOT
BRANCH   4  20
HETATM   20  O   UNL     1      -9.854   3.950  67.832  1.00  0.00    -0.119 OA 
HETATM   21  C   UNL     1      -9.184   2.729  68.138  1.00  0.00    -0.202 C  
ENDBRANCH   4  20
BRANCH   6  22
HETATM   22  O   UNL     1     -10.986  10.433  68.601  1.00  0.00    -0.215 OA 
BRANCH  22  23
HETATM   23  C   UNL     1     -10.865  11.745  68.944  1.00  0.00    -0.223 C  
HETATM   24  O   UNL     1     -10.066  12.550  68.472  1.00  0.00    -0.221 OA 
BRANCH  23  25
HETATM   25  C   UNL     1     -11.829  12.104  70.025  1.00  0.00    -0.383 A  
HETATM   26  C   UNL     1     -12.093  13.471  70.217  1.00  0.00    -0.425 A  
HETATM   27  C   UNL     1     -12.925  13.904  71.257  1.00  0.00    -0.414 A  
HETATM   28  C   UNL     1     -13.511  12.970  72.107  1.00  0.00    -0.638 A  
HETATM   29  C   UNL     1     -13.279  11.607  71.916  1.00  0.00    -0.475 A  
HETATM   30  C   UNL     1     -12.439  11.168  70.872  1.00  0.00    -0.509 A  
ENDBRANCH  23  25
ENDBRANCH  22  23
ENDBRANCH   6  22
TORSDOF 4
ENDMDL
MODEL       93
REMARK 921   NORMALIZED FREE ENERGY PREDICTED BY IDOCK:   -5.13 KCAL/MOL
REMARK 922        TOTAL FREE ENERGY PREDICTED BY IDOCK:   -6.89 KCAL/MOL
REMARK 923 INTER-LIGAND FREE ENERGY PREDICTED BY IDOCK:   -6.01 KCAL/MOL
REMARK 924 INTRA-LIGAND FREE ENERGY PREDICTED BY IDOCK:   -0.87 KCAL/MOL
REMARK 927      BINDING AFFINITY PREDICTED BY RF-SCORE:    0.00 PKD
ROOT
HETATM    1  C   UNL     1      -9.595   8.211  68.962  1.00  0.00    -0.156 C  
HETATM    2  O   UNL     1     -10.649   7.351  69.457  1.00  0.00    -0.231 OA 
HETATM    3  C   UNL     1     -11.231   8.127  70.445  1.00  0.00    -0.221 A  
HETATM    4  C   UNL     1     -12.074   7.755  71.459  1.00  0.00    -0.309 A  
HETATM    5  C   UNL     1     -12.719   8.808  72.146  1.00  0.00    -0.461 A  
HETATM    6  C   UNL     1      -9.177   7.981  67.530  1.00  0.00    -0.137 C  
HETATM    7  C   UNL     1      -9.988   8.418  66.534  1.00  0.00    -0.335 C  
HETATM    8  C   UNL     1     -12.592  10.177  71.759  1.00  0.00    -0.500 A  
HETATM    9  C   UNL     1     -11.743  10.519  70.717  1.00  0.00    -0.454 A  
HETATM   10  C   UNL     1     -10.986   9.472  70.224  1.00  0.00    -0.317 A  
HETATM   11  C   UNL     1     -10.043   9.652  69.105  1.00  0.00    -0.196 C  
HETATM   12  C   UNL     1      -8.878  10.569  69.542  1.00  0.00    -0.043 C  
HETATM   13  C   UNL     1      -8.608  11.612  68.485  1.00  0.00    -0.134 C  
HETATM   14  N   UNL     1      -9.795  12.425  68.184  1.00  0.00    -0.209 NA 
HETATM   15  C   UNL     1      -9.614  12.972  66.833  1.00  0.00    -0.243 C  
HETATM   16  C   UNL     1     -11.096  11.722  68.390  1.00  0.00    -0.237 C  
HETATM   17  C   UNL     1     -11.637  11.849  69.949  1.00  0.00    -0.333 C  
HETATM   18  C   UNL     1     -11.012  10.217  68.045  1.00  0.00    -0.345 C  
HETATM   19  C   UNL     1     -10.775   9.711  66.621  1.00  0.00    -0.102 C  
ENDROOT
BRANCH   4  20
HETATM   20  O   UNL     1     -12.342   6.490  71.893  1.00  0.00    -0.347 OA 
HETATM   21  C   UNL     1     -11.251   5.695  72.353  1.00  0.00    -0.280 C  
ENDBRANCH   4  20
BRANCH   6  22
HETATM   22  O   UNL     1      -7.751   8.250  67.452  1.00  0.00    -0.099 OA 
BRANCH  22  23
HETATM   23  C   UNL     1      -6.791   7.303  67.640  1.00  0.00    -0.074 C  
HETATM   24  O   UNL     1      -6.237   6.644  66.764  1.00  0.00    -0.037 OA 
BRANCH  23  25
HETATM   25  C   UNL     1      -6.500   7.121  69.092  1.00  0.00    -0.036 A  
HETATM   26  C   UNL     1      -6.192   8.277  69.830  1.00  0.00    -0.032 A  
HETATM   27  C   UNL     1      -5.832   8.193  71.181  1.00  0.00    -0.034 A  
HETATM   28  C   UNL     1      -5.788   6.951  71.809  1.00  0.00    -0.037 A  
HETATM   29  C   UNL     1      -6.115   5.796  71.097  1.00  0.00    -0.034 A  
HETATM   30  C   UNL     1      -6.475   5.876  69.736  1.00  0.00    -0.042 A  
ENDBRANCH  23  25
ENDBRANCH  22  23
ENDBRANCH   6  22
TORSDOF 4
ENDMDL
MODEL       94
REMARK 921   NORMALIZED FREE ENERGY PREDICTED BY IDOCK:   -5.13 KCAL/MOL
REMARK 922        TOTAL FREE ENERGY PREDICTED BY IDOCK:   -6.89 KCAL/MOL
REMARK 923 INTER-LIGAND FREE ENERGY PREDICTED BY IDOCK:   -6.17 KCAL/MOL
REMARK 924 INTRA-LIGAND FREE ENERGY PREDICTED BY IDOCK:   -0.72 KCAL/MOL
REMARK 927      BINDING AFFINITY PREDICTED BY RF-SCORE:    0.00 PKD
ROOT
HETATM    1  C   UNL     1      -8.675  12.357  67.224  1.00  0.00    -0.191 C  
HETATM    2  O   UNL     1      -8.486  11.851  65.881  1.00  0.00     0.082 OA 
HETATM    3  C   UNL     1      -9.781  11.799  65.394  1.00  0.00    -0.217 A  
HETATM    4  C   UNL     1     -10.274  11.135  64.301  1.00  0.00    -0.340 A  
HETATM    5  C   UNL     1     -11.582  11.489  63.899  1.00  0.00    -0.305 A  
HETATM    6  C   UNL     1      -7.509  13.112  67.812  1.00  0.00    -0.150 C  
HETATM    7  C   UNL     1      -7.264  14.375  67.382  1.00  0.00    -0.148 C  
HETATM    8  C   UNL     1     -12.324  12.540  64.518  1.00  0.00    -0.545 A  
HETATM    9  C   UNL     1     -11.790  13.205  65.612  1.00  0.00    -0.430 A  
HETATM   10  C   UNL     1     -10.603  12.676  66.083  1.00  0.00    -0.280 A  
HETATM   11  C   UNL     1      -9.888  13.267  67.230  1.00  0.00    -0.233 C  
HETATM   12  C   UNL     1     -10.724  13.093  68.517  1.00  0.00    -0.277 C  
HETATM   13  C   UNL     1     -10.764  14.386  69.294  1.00  0.00    -0.206 C  
HETATM   14  N   UNL     1     -11.301  15.500  68.499  1.00  0.00    -0.333 NA 
HETATM   15  C   UNL     1     -10.790  16.742  69.094  1.00  0.00    -0.287 C  
HETATM   16  C   UNL     1     -11.065  15.384  67.029  1.00  0.00    -0.273 C  
HETATM   17  C   UNL     1     -12.254  14.517  66.270  1.00  0.00    -0.270 C  
HETATM   18  C   UNL     1      -9.713  14.708  66.704  1.00  0.00    -0.283 C  
HETATM   19  C   UNL     1      -8.368  15.356  67.035  1.00  0.00    -0.268 C  
ENDROOT
BRANCH   4  20
HETATM   20  O   UNL     1      -9.656  10.161  63.576  1.00  0.00    -0.293 OA 
HETATM   21  C   UNL     1      -8.941  10.549  62.405  1.00  0.00    -0.276 C  
ENDBRANCH   4  20
BRANCH   6  22
HETATM   22  O   UNL     1      -7.495  12.835  69.239  1.00  0.00     0.114 OA 
BRANCH  22  23
HETATM   23  C   UNL     1      -6.648  11.946  69.828  1.00  0.00    -0.022 C  
HETATM   24  O   UNL     1      -5.751  12.212  70.623  1.00  0.00    -0.168 OA 
BRANCH  23  25
HETATM   25  C   UNL     1      -6.921  10.557  69.353  1.00  0.00    -0.099 A  
HETATM   26  C   UNL     1      -5.863   9.876  68.729  1.00  0.00    -0.038 A  
HETATM   27  C   UNL     1      -6.049   8.599  68.186  1.00  0.00    -0.051 A  
HETATM   28  C   UNL     1      -7.297   7.986  68.273  1.00  0.00    -0.095 A  
HETATM   29  C   UNL     1      -8.353   8.638  68.912  1.00  0.00    -0.124 A  
HETATM   30  C   UNL     1      -8.169   9.926  69.457  1.00  0.00    -0.163 A  
ENDBRANCH  23  25
ENDBRANCH  22  23
ENDBRANCH   6  22
TORSDOF 4
ENDMDL
MODEL       95
REMARK 921   NORMALIZED FREE ENERGY PREDICTED BY IDOCK:   -5.13 KCAL/MOL
REMARK 922        TOTAL FREE ENERGY PREDICTED BY IDOCK:   -6.89 KCAL/MOL
REMARK 923 INTER-LIGAND FREE ENERGY PREDICTED BY IDOCK:   -6.20 KCAL/MOL
REMARK 924 INTRA-LIGAND FREE ENERGY PREDICTED BY IDOCK:   -0.68 KCAL/MOL
REMARK 927      BINDING AFFINITY PREDICTED BY RF-SCORE:    0.00 PKD
ROOT
HETATM    1  C   UNL     1      -9.641  11.953  67.692  1.00  0.00    -0.185 C  
HETATM    2  O   UNL     1      -9.841  13.220  67.020  1.00  0.00    -0.231 OA 
HETATM    3  C   UNL     1      -8.712  13.934  67.384  1.00  0.00    -0.203 A  
HETATM    4  C   UNL     1      -8.472  15.281  67.307  1.00  0.00    -0.193 A  
HETATM    5  C   UNL     1      -7.130  15.684  67.498  1.00  0.00    -0.214 A  
HETATM    6  C   UNL     1     -10.307  10.759  67.053  1.00  0.00    -0.228 C  
HETATM    7  C   UNL     1      -9.765  10.234  65.925  1.00  0.00    -0.283 C  
HETATM    8  C   UNL     1      -6.060  14.753  67.664  1.00  0.00    -0.087 A  
HETATM    9  C   UNL     1      -6.333  13.394  67.722  1.00  0.00    -0.164 A  
HETATM   10  C   UNL     1      -7.680  13.079  67.736  1.00  0.00    -0.151 A  
HETATM   11  C   UNL     1      -8.152  11.683  67.779  1.00  0.00    -0.139 C  
HETATM   12  C   UNL     1      -7.769  11.039  69.130  1.00  0.00    -0.102 C  
HETATM   13  C   UNL     1      -7.178   9.668  68.908  1.00  0.00    -0.072 C  
HETATM   14  N   UNL     1      -6.005   9.700  68.022  1.00  0.00    -0.043 NA 
HETATM   15  C   UNL     1      -5.869   8.361  67.435  1.00  0.00    -0.043 C  
HETATM   16  C   UNL     1      -6.016  10.808  67.020  1.00  0.00    -0.063 C  
HETATM   17  C   UNL     1      -5.362  12.205  67.624  1.00  0.00    -0.091 C  
HETATM   18  C   UNL     1      -7.442  11.137  66.522  1.00  0.00    -0.131 C  
HETATM   19  C   UNL     1      -8.269  10.156  65.690  1.00  0.00    -0.150 C  
ENDROOT
BRANCH   4  20
HETATM   20  O   UNL     1      -9.381  16.273  67.089  1.00  0.00    -0.217 OA 
HETATM   21  C   UNL     1     -10.155  16.222  65.892  1.00  0.00    -0.357 C  
ENDBRANCH   4  20
BRANCH   6  22
HETATM   22  O   UNL     1     -10.707   9.865  68.128  1.00  0.00    -0.214 OA 
BRANCH  22  23
HETATM   23  C   UNL     1     -11.523  10.235  69.153  1.00  0.00    -0.147 C  
HETATM   24  O   UNL     1     -12.316  11.173  69.150  1.00  0.00    -0.438 OA 
BRANCH  23  25
HETATM   25  C   UNL     1     -11.315   9.357  70.342  1.00  0.00    -0.295 A  
HETATM   26  C   UNL     1     -12.388   9.236  71.241  1.00  0.00    -0.403 A  
HETATM   27  C   UNL     1     -12.258   8.494  72.421  1.00  0.00    -0.432 A  
HETATM   28  C   UNL     1     -11.053   7.857  72.707  1.00  0.00    -0.462 A  
HETATM   29  C   UNL     1      -9.985   7.946  71.813  1.00  0.00    -0.228 A  
HETATM   30  C   UNL     1     -10.112   8.695  70.625  1.00  0.00    -0.237 A  
ENDBRANCH  23  25
ENDBRANCH  22  23
ENDBRANCH   6  22
TORSDOF 4
ENDMDL
MODEL       96
REMARK 921   NORMALIZED FREE ENERGY PREDICTED BY IDOCK:   -5.13 KCAL/MOL
REMARK 922        TOTAL FREE ENERGY PREDICTED BY IDOCK:   -6.88 KCAL/MOL
REMARK 923 INTER-LIGAND FREE ENERGY PREDICTED BY IDOCK:   -5.90 KCAL/MOL
REMARK 924 INTRA-LIGAND FREE ENERGY PREDICTED BY IDOCK:   -0.99 KCAL/MOL
REMARK 927      BINDING AFFINITY PREDICTED BY RF-SCORE:    0.00 PKD
ROOT
HETATM    1  C   UNL     1      -8.687   9.802  67.396  1.00  0.00    -0.132 C  
HETATM    2  O   UNL     1      -8.430  11.208  67.167  1.00  0.00    -0.131 OA 
HETATM    3  C   UNL     1      -9.632  11.795  67.524  1.00  0.00    -0.177 A  
HETATM    4  C   UNL     1     -10.102  13.053  67.247  1.00  0.00    -0.235 A  
HETATM    5  C   UNL     1     -11.245  13.460  67.972  1.00  0.00    -0.298 A  
HETATM    6  C   UNL     1      -7.478   8.957  67.714  1.00  0.00    -0.093 C  
HETATM    7  C   UNL     1      -6.924   9.046  68.949  1.00  0.00    -0.065 C  
HETATM    8  C   UNL     1     -11.831  12.665  69.004  1.00  0.00    -0.341 A  
HETATM    9  C   UNL     1     -11.321  11.403  69.271  1.00  0.00    -0.355 A  
HETATM   10  C   UNL     1     -10.340  10.981  68.393  1.00  0.00    -0.200 A  
HETATM   11  C   UNL     1      -9.677   9.672  68.536  1.00  0.00    -0.161 C  
HETATM   12  C   UNL     1     -10.693   8.537  68.281  1.00  0.00    -0.092 C  
HETATM   13  C   UNL     1     -10.569   7.474  69.346  1.00  0.00    -0.223 C  
HETATM   14  N   UNL     1     -10.757   8.014  70.700  1.00  0.00    -0.224 NA 
HETATM   15  C   UNL     1     -10.085   7.097  71.630  1.00  0.00    -0.185 C  
HETATM   16  C   UNL     1     -10.358   9.445  70.858  1.00  0.00    -0.310 C  
HETATM   17  C   UNL     1     -11.588  10.485  70.477  1.00  0.00    -0.441 C  
HETATM   18  C   UNL     1      -9.142   9.816  69.977  1.00  0.00    -0.258 C  
HETATM   19  C   UNL     1      -7.749   9.231  70.209  1.00  0.00    -0.133 C  
ENDROOT
BRANCH   4  20
HETATM   20  O   UNL     1      -9.607  13.942  66.340  1.00  0.00    -0.279 OA 
HETATM   21  C   UNL     1      -8.764  14.987  66.819  1.00  0.00    -0.260 C  
ENDBRANCH   4  20
BRANCH   6  22
HETATM   22  O   UNL     1      -7.709   7.644  67.134  1.00  0.00    -0.107 OA 
BRANCH  22  23
HETATM   23  C   UNL     1      -7.596   7.374  65.805  1.00  0.00    -0.090 C  
HETATM   24  O   UNL     1      -6.964   8.029  64.980  1.00  0.00    -0.061 OA 
BRANCH  23  25
HETATM   25  C   UNL     1      -8.387   6.162  65.438  1.00  0.00    -0.150 A  
HETATM   26  C   UNL     1      -9.335   5.713  66.372  1.00  0.00    -0.165 A  
HETATM   27  C   UNL     1     -10.068   4.542  66.146  1.00  0.00    -0.282 A  
HETATM   28  C   UNL     1      -9.866   3.815  64.976  1.00  0.00    -0.175 A  
HETATM   29  C   UNL     1      -8.946   4.260  64.026  1.00  0.00    -0.145 A  
HETATM   30  C   UNL     1      -8.203   5.438  64.252  1.00  0.00    -0.129 A  
ENDBRANCH  23  25
ENDBRANCH  22  23
ENDBRANCH   6  22
TORSDOF 4
ENDMDL
MODEL       97
REMARK 921   NORMALIZED FREE ENERGY PREDICTED BY IDOCK:   -5.12 KCAL/MOL
REMARK 922        TOTAL FREE ENERGY PREDICTED BY IDOCK:   -6.87 KCAL/MOL
REMARK 923 INTER-LIGAND FREE ENERGY PREDICTED BY IDOCK:   -5.90 KCAL/MOL
REMARK 924 INTRA-LIGAND FREE ENERGY PREDICTED BY IDOCK:   -0.97 KCAL/MOL
REMARK 927      BINDING AFFINITY PREDICTED BY RF-SCORE:    0.00 PKD
ROOT
HETATM    1  C   UNL     1      -9.175  12.989  68.125  1.00  0.00    -0.212 C  
HETATM    2  O   UNL     1      -8.801  14.102  68.972  1.00  0.00    -0.043 OA 
HETATM    3  C   UNL     1      -8.448  15.074  68.051  1.00  0.00    -0.149 A  
HETATM    4  C   UNL     1      -7.735  16.231  68.236  1.00  0.00    -0.158 A  
HETATM    5  C   UNL     1      -7.766  17.156  67.168  1.00  0.00    -0.205 A  
HETATM    6  C   UNL     1     -10.170  12.021  68.715  1.00  0.00    -0.129 C  
HETATM    7  C   UNL     1     -11.474  12.388  68.791  1.00  0.00    -0.350 C  
HETATM    8  C   UNL     1      -8.564  16.962  65.999  1.00  0.00    -0.194 A  
HETATM    9  C   UNL     1      -9.287  15.787  65.849  1.00  0.00    -0.356 A  
HETATM   10  C   UNL     1      -9.053  14.838  66.827  1.00  0.00    -0.291 A  
HETATM   11  C   UNL     1      -9.747  13.538  66.833  1.00  0.00    -0.261 C  
HETATM   12  C   UNL     1      -9.304  12.699  65.613  1.00  0.00     0.116 C  
HETATM   13  C   UNL     1     -10.504  12.088  64.933  1.00  0.00    -0.285 C  
HETATM   14  N   UNL     1     -11.485  13.099  64.512  1.00  0.00    -0.337 NA 
HETATM   15  C   UNL     1     -12.784  12.424  64.403  1.00  0.00    -0.342 C  
HETATM   16  C   UNL     1     -11.505  14.332  65.354  1.00  0.00    -0.332 C  
HETATM   17  C   UNL     1     -10.404  15.458  64.843  1.00  0.00    -0.256 C  
HETATM   18  C   UNL     1     -11.210  14.031  66.842  1.00  0.00    -0.323 C  
HETATM   19  C   UNL     1     -12.159  13.217  67.721  1.00  0.00    -0.262 C  
ENDROOT
BRANCH   4  20
HETATM   20  O   UNL     1      -6.986  16.577  69.321  1.00  0.00    -0.215 OA 
HETATM   21  C   UNL     1      -6.364  17.861  69.323  1.00  0.00    -0.244 C  
ENDBRANCH   4  20
BRANCH   6  22
HETATM   22  O   UNL     1      -9.835  10.700  68.208  1.00  0.00    -0.155 OA 
BRANCH  22  23
HETATM   23  C   UNL     1      -9.029   9.821  68.865  1.00  0.00    -0.144 C  
HETATM   24  O   UNL     1      -8.899   9.721  70.082  1.00  0.00    -0.218 OA 
BRANCH  23  25
HETATM   25  C   UNL     1      -8.262   8.979  67.900  1.00  0.00    -0.110 A  
HETATM   26  C   UNL     1      -8.276   9.378  66.553  1.00  0.00    -0.115 A  
HETATM   27  C   UNL     1      -7.648   8.608  65.568  1.00  0.00    -0.087 A  
HETATM   28  C   UNL     1      -6.989   7.434  65.923  1.00  0.00    -0.061 A  
HETATM   29  C   UNL     1      -6.943   7.035  67.260  1.00  0.00    -0.078 A  
HETATM   30  C   UNL     1      -7.578   7.808  68.255  1.00  0.00    -0.109 A  
ENDBRANCH  23  25
ENDBRANCH  22  23
ENDBRANCH   6  22
TORSDOF 4
ENDMDL
MODEL       98
REMARK 921   NORMALIZED FREE ENERGY PREDICTED BY IDOCK:   -5.12 KCAL/MOL
REMARK 922        TOTAL FREE ENERGY PREDICTED BY IDOCK:   -6.87 KCAL/MOL
REMARK 923 INTER-LIGAND FREE ENERGY PREDICTED BY IDOCK:   -5.96 KCAL/MOL
REMARK 924 INTRA-LIGAND FREE ENERGY PREDICTED BY IDOCK:   -0.90 KCAL/MOL
REMARK 927      BINDING AFFINITY PREDICTED BY RF-SCORE:    0.00 PKD
ROOT
HETATM    1  C   UNL     1     -10.142   8.841  66.649  1.00  0.00    -0.288 C  
HETATM    2  O   UNL     1     -10.859   7.584  66.651  1.00  0.00    -0.183 OA 
HETATM    3  C   UNL     1      -9.834   6.654  66.690  1.00  0.00    -0.149 A  
HETATM    4  C   UNL     1      -9.866   5.311  66.414  1.00  0.00    -0.186 A  
HETATM    5  C   UNL     1      -8.725   4.572  66.802  1.00  0.00    -0.111 A  
HETATM    6  C   UNL     1     -10.884  10.022  67.226  1.00  0.00    -0.217 C  
HETATM    7  C   UNL     1     -11.021  10.113  68.573  1.00  0.00    -0.278 C  
HETATM    8  C   UNL     1      -7.638   5.149  67.527  1.00  0.00    -0.088 A  
HETATM    9  C   UNL     1      -7.643   6.508  67.805  1.00  0.00    -0.106 A  
HETATM   10  C   UNL     1      -8.682   7.211  67.221  1.00  0.00    -0.120 A  
HETATM   11  C   UNL     1      -8.851   8.661  67.423  1.00  0.00    -0.140 C  
HETATM   12  C   UNL     1      -7.681   9.424  66.763  1.00  0.00    -0.098 C  
HETATM   13  C   UNL     1      -7.145  10.476  67.703  1.00  0.00    -0.084 C  
HETATM   14  N   UNL     1      -6.707   9.910  68.987  1.00  0.00    -0.052 NA 
HETATM   15  C   UNL     1      -6.751  10.994  69.976  1.00  0.00    -0.094 C  
HETATM   16  C   UNL     1      -7.438   8.674  69.400  1.00  0.00    -0.080 C  
HETATM   17  C   UNL     1      -6.753   7.302  68.776  1.00  0.00    -0.067 C  
HETATM   18  C   UNL     1      -8.922   8.696  68.965  1.00  0.00    -0.142 C  
HETATM   19  C   UNL     1      -9.934   9.686  69.541  1.00  0.00    -0.223 C  
ENDROOT
BRANCH   4  20
HETATM   20  O   UNL     1     -10.860   4.617  65.791  1.00  0.00    -0.293 OA 
HETATM   21  C   UNL     1     -10.539   3.923  64.587  1.00  0.00    -0.154 C  
ENDBRANCH   4  20
BRANCH   6  22
HETATM   22  O   UNL     1     -10.472  11.196  66.474  1.00  0.00    -0.238 OA 
BRANCH  22  23
HETATM   23  C   UNL     1     -11.229  12.322  66.359  1.00  0.00    -0.324 C  
HETATM   24  O   UNL     1     -12.386  12.383  65.953  1.00  0.00    -0.638 OA 
BRANCH  23  25
HETATM   25  C   UNL     1     -10.451  13.529  66.765  1.00  0.00    -0.273 A  
HETATM   26  C   UNL     1     -11.159  14.738  66.876  1.00  0.00    -0.339 A  
HETATM   27  C   UNL     1     -10.498  15.934  67.178  1.00  0.00    -0.313 A  
HETATM   28  C   UNL     1      -9.121  15.930  67.383  1.00  0.00    -0.205 A  
HETATM   29  C   UNL     1      -8.405  14.735  67.302  1.00  0.00    -0.234 A  
HETATM   30  C   UNL     1      -9.068  13.528  66.995  1.00  0.00    -0.248 A  
ENDBRANCH  23  25
ENDBRANCH  22  23
ENDBRANCH   6  22
TORSDOF 4
ENDMDL
MODEL       99
REMARK 921   NORMALIZED FREE ENERGY PREDICTED BY IDOCK:   -5.11 KCAL/MOL
REMARK 922        TOTAL FREE ENERGY PREDICTED BY IDOCK:   -6.86 KCAL/MOL
REMARK 923 INTER-LIGAND FREE ENERGY PREDICTED BY IDOCK:   -5.65 KCAL/MOL
REMARK 924 INTRA-LIGAND FREE ENERGY PREDICTED BY IDOCK:   -1.22 KCAL/MOL
REMARK 927      BINDING AFFINITY PREDICTED BY RF-SCORE:    0.00 PKD
ROOT
HETATM    1  C   UNL     1      -9.556   5.625  69.203  1.00  0.00    -0.135 C  
HETATM    2  O   UNL     1     -10.605   5.242  70.125  1.00  0.00    -0.290 OA 
HETATM    3  C   UNL     1     -10.693   6.347  70.955  1.00  0.00    -0.251 A  
HETATM    4  C   UNL     1     -11.287   6.466  72.185  1.00  0.00    -0.290 A  
HETATM    5  C   UNL     1     -11.451   7.784  72.669  1.00  0.00    -0.430 A  
HETATM    6  C   UNL     1      -9.615   4.984  67.838  1.00  0.00    -0.140 C  
HETATM    7  C   UNL     1     -10.542   5.423  66.949  1.00  0.00    -0.320 C  
HETATM    8  C   UNL     1     -11.115   8.939  71.898  1.00  0.00    -0.442 A  
HETATM    9  C   UNL     1     -10.530   8.784  70.650  1.00  0.00    -0.253 A  
HETATM   10  C   UNL     1     -10.208   7.480  70.323  1.00  0.00    -0.204 A  
HETATM   11  C   UNL     1      -9.594   7.130  69.029  1.00  0.00    -0.146 C  
HETATM   12  C   UNL     1      -8.172   7.729  68.942  1.00  0.00    -0.127 C  
HETATM   13  C   UNL     1      -7.965   8.396  67.605  1.00  0.00    -0.110 C  
HETATM   14  N   UNL     1      -8.962   9.443  67.341  1.00  0.00    -0.124 NA 
HETATM   15  C   UNL     1      -9.036   9.614  65.884  1.00  0.00    -0.167 C  
HETATM   16  C   UNL     1     -10.284   9.220  67.998  1.00  0.00    -0.209 C  
HETATM   17  C   UNL     1     -10.329   9.828  69.537  1.00  0.00    -0.247 C  
HETATM   18  C   UNL     1     -10.655   7.722  68.077  1.00  0.00    -0.201 C  
HETATM   19  C   UNL     1     -10.946   6.880  66.834  1.00  0.00    -0.328 C  
ENDROOT
BRANCH   4  20
HETATM   20  O   UNL     1     -11.716   5.460  72.999  1.00  0.00    -0.275 OA 
HETATM   21  C   UNL     1     -10.731   4.667  73.659  1.00  0.00    -0.277 C  
ENDBRANCH   4  20
BRANCH   6  22
HETATM   22  O   UNL     1      -8.244   4.793  67.395  1.00  0.00    -0.105 OA 
BRANCH  22  23
HETATM   23  C   UNL     1      -7.902   4.454  66.122  1.00  0.00    -0.095 C  
HETATM   24  O   UNL     1      -8.034   3.350  65.602  1.00  0.00    -0.088 OA 
BRANCH  23  25
HETATM   25  C   UNL     1      -7.291   5.615  65.408  1.00  0.00    -0.072 A  
HETATM   26  C   UNL     1      -7.926   6.045  64.231  1.00  0.00    -0.121 A  
HETATM   27  C   UNL     1      -7.382   7.076  63.456  1.00  0.00    -0.078 A  
HETATM   28  C   UNL     1      -6.202   7.695  63.859  1.00  0.00    -0.053 A  
HETATM   29  C   UNL     1      -5.571   7.297  65.040  1.00  0.00    -0.033 A  
HETATM   30  C   UNL     1      -6.115   6.256  65.821  1.00  0.00    -0.033 A  
ENDBRANCH  23  25
ENDBRANCH  22  23
ENDBRANCH   6  22
TORSDOF 4
ENDMDL
MODEL      100
REMARK 921   NORMALIZED FREE ENERGY PREDICTED BY IDOCK:   -5.10 KCAL/MOL
REMARK 922        TOTAL FREE ENERGY PREDICTED BY IDOCK:   -6.84 KCAL/MOL
REMARK 923 INTER-LIGAND FREE ENERGY PREDICTED BY IDOCK:   -5.69 KCAL/MOL
REMARK 924 INTRA-LIGAND FREE ENERGY PREDICTED BY IDOCK:   -1.15 KCAL/MOL
REMARK 927      BINDING AFFINITY PREDICTED BY RF-SCORE:    0.00 PKD
ROOT
HETATM    1  C   UNL     1      -9.026   5.750  69.811  1.00  0.00    -0.129 C  
HETATM    2  O   UNL     1      -8.420   4.511  69.369  1.00  0.00    -0.077 OA 
HETATM    3  C   UNL     1      -8.805   4.445  68.041  1.00  0.00    -0.109 A  
HETATM    4  C   UNL     1      -8.792   3.376  67.183  1.00  0.00    -0.135 A  
HETATM    5  C   UNL     1      -8.987   3.676  65.816  1.00  0.00    -0.137 A  
HETATM    6  C   UNL     1      -8.337   6.446  70.959  1.00  0.00    -0.123 C  
HETATM    7  C   UNL     1      -7.178   7.110  70.720  1.00  0.00    -0.071 C  
HETATM    8  C   UNL     1      -9.096   5.013  65.324  1.00  0.00    -0.143 A  
HETATM    9  C   UNL     1      -9.089   6.075  66.217  1.00  0.00    -0.160 A  
HETATM   10  C   UNL     1      -9.103   5.706  67.550  1.00  0.00    -0.106 A  
HETATM   11  C   UNL     1      -9.083   6.704  68.635  1.00  0.00    -0.126 C  
HETATM   12  C   UNL     1     -10.396   7.518  68.626  1.00  0.00    -0.218 C  
HETATM   13  C   UNL     1     -10.100   8.992  68.762  1.00  0.00    -0.199 C  
HETATM   14  N   UNL     1      -9.204   9.483  67.705  1.00  0.00    -0.125 NA 
HETATM   15  C   UNL     1      -8.550  10.694  68.220  1.00  0.00    -0.128 C  
HETATM   16  C   UNL     1      -8.258   8.459  67.169  1.00  0.00    -0.108 C  
HETATM   17  C   UNL     1      -8.922   7.578  65.935  1.00  0.00    -0.128 C  
HETATM   18  C   UNL     1      -7.792   7.463  68.256  1.00  0.00    -0.122 C  
HETATM   19  C   UNL     1      -6.923   7.885  69.441  1.00  0.00    -0.059 C  
ENDROOT
BRANCH   4  20
HETATM   20  O   UNL     1      -8.634   2.060  67.502  1.00  0.00    -0.076 OA 
HETATM   21  C   UNL     1      -9.528   1.489  68.454  1.00  0.00    -0.186 C  
ENDBRANCH   4  20
BRANCH   6  22
HETATM   22  O   UNL     1      -9.371   7.089  71.753  1.00  0.00    -0.146 OA 
BRANCH  22  23
HETATM   23  C   UNL     1     -10.487   6.449  72.200  1.00  0.00    -0.207 C  
HETATM   24  O   UNL     1     -10.531   5.334  72.710  1.00  0.00    -0.196 OA 
BRANCH  23  25
HETATM   25  C   UNL     1     -11.706   7.277  71.960  1.00  0.00    -0.329 A  
HETATM   26  C   UNL     1     -11.558   8.671  72.047  1.00  0.00    -0.440 A  
HETATM   27  C   UNL     1     -12.662   9.522  71.912  1.00  0.00    -0.496 A  
HETATM   28  C   UNL     1     -13.924   8.984  71.676  1.00  0.00    -0.386 A  
HETATM   29  C   UNL     1     -14.085   7.602  71.562  1.00  0.00    -0.535 A  
HETATM   30  C   UNL     1     -12.976   6.742  71.701  1.00  0.00    -0.292 A  
ENDBRANCH  23  25
ENDBRANCH  22  23
ENDBRANCH   6  22
TORSDOF 4
ENDMDL
MODEL      101
REMARK 921   NORMALIZED FREE ENERGY PREDICTED BY IDOCK:   -5.09 KCAL/MOL
REMARK 922        TOTAL FREE ENERGY PREDICTED BY IDOCK:   -6.83 KCAL/MOL
REMARK 923 INTER-LIGAND FREE ENERGY PREDICTED BY IDOCK:   -6.99 KCAL/MOL
REMARK 924 INTRA-LIGAND FREE ENERGY PREDICTED BY IDOCK:    0.16 KCAL/MOL
REMARK 927      BINDING AFFINITY PREDICTED BY RF-SCORE:    0.00 PKD
ROOT
HETATM    1  C   UNL     1     -11.057  12.875  67.562  1.00  0.00    -0.269 C  
HETATM    2  O   UNL     1     -10.758  12.490  68.925  1.00  0.00    -0.227 OA 
HETATM    3  C   UNL     1     -10.940  11.118  68.896  1.00  0.00    -0.225 A  
HETATM    4  C   UNL     1     -11.093  10.238  69.935  1.00  0.00    -0.304 A  
HETATM    5  C   UNL     1     -10.989   8.867  69.608  1.00  0.00    -0.132 A  
HETATM    6  C   UNL     1     -10.385  14.135  67.072  1.00  0.00    -0.267 C  
HETATM    7  C   UNL     1      -9.065  14.092  66.759  1.00  0.00    -0.250 C  
HETATM    8  C   UNL     1     -10.647   8.408  68.300  1.00  0.00    -0.163 A  
HETATM    9  C   UNL     1     -10.482   9.325  67.272  1.00  0.00    -0.334 A  
HETATM   10  C   UNL     1     -10.800  10.628  67.607  1.00  0.00    -0.346 A  
HETATM   11  C   UNL     1     -10.668  11.735  66.642  1.00  0.00    -0.300 C  
HETATM   12  C   UNL     1     -11.688  11.556  65.495  1.00  0.00     0.152 C  
HETATM   13  C   UNL     1     -11.019  11.782  64.160  1.00  0.00    -0.374 C  
HETATM   14  N   UNL     1      -9.872  10.887  63.950  1.00  0.00    -0.300 NA 
HETATM   15  C   UNL     1      -8.995  11.531  62.964  1.00  0.00    -0.027 C  
HETATM   16  C   UNL     1      -9.177  10.465  65.203  1.00  0.00    -0.208 C  
HETATM   17  C   UNL     1      -9.864   9.118  65.878  1.00  0.00    -0.305 C  
HETATM   18  C   UNL     1      -9.176  11.577  66.277  1.00  0.00    -0.222 C  
HETATM   19  C   UNL     1      -8.414  12.890  66.101  1.00  0.00     0.678 C  
ENDROOT
BRANCH   4  20
HETATM   20  O   UNL     1     -11.356  10.535  71.240  1.00  0.00    -0.113 OA 
HETATM   21  C   UNL     1     -12.720  10.625  71.645  1.00  0.00    -0.426 C  
ENDBRANCH   4  20
BRANCH   6  22
HETATM   22  O   UNL     1     -11.308  14.786  66.158  1.00  0.00    -0.341 OA 
BRANCH  22  23
HETATM   23  C   UNL     1     -11.110  16.031  65.645  1.00  0.00    -0.063 C  
HETATM   24  O   UNL     1     -11.216  16.358  64.466  1.00  0.00    -0.697 OA 
BRANCH  23  25
HETATM   25  C   UNL     1     -10.701  16.989  66.714  1.00  0.00    -0.102 A  
HETATM   26  C   UNL     1     -10.120  18.199  66.299  1.00  0.00    -0.373 A  
HETATM   27  C   UNL     1      -9.637  19.123  67.234  1.00  0.00    -0.375 A  
HETATM   28  C   UNL     1      -9.744  18.849  68.595  1.00  0.00    -0.454 A  
HETATM   29  C   UNL     1     -10.342  17.664  69.025  1.00  0.00    -0.272 A  
HETATM   30  C   UNL     1     -10.825  16.729  68.086  1.00  0.00    -0.353 A  
ENDBRANCH  23  25
ENDBRANCH  22  23
ENDBRANCH   6  22
TORSDOF 4
ENDMDL
MODEL      102
REMARK 921   NORMALIZED FREE ENERGY PREDICTED BY IDOCK:   -5.08 KCAL/MOL
REMARK 922        TOTAL FREE ENERGY PREDICTED BY IDOCK:   -6.83 KCAL/MOL
REMARK 923 INTER-LIGAND FREE ENERGY PREDICTED BY IDOCK:   -5.62 KCAL/MOL
REMARK 924 INTRA-LIGAND FREE ENERGY PREDICTED BY IDOCK:   -1.21 KCAL/MOL
REMARK 927      BINDING AFFINITY PREDICTED BY RF-SCORE:    0.00 PKD
ROOT
HETATM    1  C   UNL     1      -9.081   8.305  65.999  1.00  0.00    -0.176 C  
HETATM    2  O   UNL     1      -8.808   9.562  65.335  1.00  0.00    -0.154 OA 
HETATM    3  C   UNL     1      -9.865  10.355  65.749  1.00  0.00    -0.239 A  
HETATM    4  C   UNL     1     -10.318  11.540  65.231  1.00  0.00    -0.272 A  
HETATM    5  C   UNL     1     -11.243  12.253  66.029  1.00  0.00    -0.375 A  
HETATM    6  C   UNL     1      -7.878   7.441  66.289  1.00  0.00    -0.106 C  
HETATM    7  C   UNL     1      -7.054   7.789  67.309  1.00  0.00    -0.086 C  
HETATM    8  C   UNL     1     -11.619  11.831  67.340  1.00  0.00    -0.352 A  
HETATM    9  C   UNL     1     -11.130  10.634  67.843  1.00  0.00    -0.371 A  
HETATM   10  C   UNL     1     -10.398   9.886  66.938  1.00  0.00    -0.300 A  
HETATM   11  C   UNL     1      -9.790   8.594  67.307  1.00  0.00    -0.256 C  
HETATM   12  C   UNL     1     -10.897   7.555  67.596  1.00  0.00    -0.197 C  
HETATM   13  C   UNL     1     -10.591   6.805  68.869  1.00  0.00    -0.228 C  
HETATM   14  N   UNL     1     -10.435   7.701  70.025  1.00  0.00    -0.224 NA 
HETATM   15  C   UNL     1      -9.619   6.990  71.017  1.00  0.00    -0.170 C  
HETATM   16  C   UNL     1      -9.935   9.067  69.687  1.00  0.00    -0.192 C  
HETATM   17  C   UNL     1     -11.163  10.102  69.287  1.00  0.00    -0.247 C  
HETATM   18  C   UNL     1      -8.934   9.051  68.508  1.00  0.00    -0.133 C  
HETATM   19  C   UNL     1      -7.558   8.392  68.606  1.00  0.00    -0.102 C  
ENDROOT
BRANCH   4  20
HETATM   20  O   UNL     1      -9.996  12.096  64.029  1.00  0.00    -0.312 OA 
HETATM   21  C   UNL     1      -9.940  11.241  62.889  1.00  0.00    -0.245 C  
ENDBRANCH   4  20
BRANCH   6  22
HETATM   22  O   UNL     1      -8.305   6.056  66.164  1.00  0.00    -0.116 OA 
BRANCH  22  23
HETATM   23  C   UNL     1      -7.521   4.992  66.491  1.00  0.00    -0.087 C  
HETATM   24  O   UNL     1      -6.605   4.529  65.817  1.00  0.00    -0.042 OA 
BRANCH  23  25
HETATM   25  C   UNL     1      -7.938   4.405  67.798  1.00  0.00    -0.088 A  
HETATM   26  C   UNL     1      -9.125   3.655  67.812  1.00  0.00    -0.193 A  
HETATM   27  C   UNL     1      -9.632   3.131  69.007  1.00  0.00    -0.084 A  
HETATM   28  C   UNL     1      -8.947   3.344  70.200  1.00  0.00    -0.172 A  
HETATM   29  C   UNL     1      -7.753   4.066  70.202  1.00  0.00    -0.048 A  
HETATM   30  C   UNL     1      -7.241   4.598  69.000  1.00  0.00    -0.053 A  
ENDBRANCH  23  25
ENDBRANCH  22  23
ENDBRANCH   6  22
TORSDOF 4
ENDMDL
MODEL      103
REMARK 921   NORMALIZED FREE ENERGY PREDICTED BY IDOCK:   -5.08 KCAL/MOL
REMARK 922        TOTAL FREE ENERGY PREDICTED BY IDOCK:   -6.82 KCAL/MOL
REMARK 923 INTER-LIGAND FREE ENERGY PREDICTED BY IDOCK:   -5.46 KCAL/MOL
REMARK 924 INTRA-LIGAND FREE ENERGY PREDICTED BY IDOCK:   -1.37 KCAL/MOL
REMARK 927      BINDING AFFINITY PREDICTED BY RF-SCORE:    0.00 PKD
ROOT
HETATM    1  C   UNL     1     -10.841   5.852  68.855  1.00  0.00    -0.303 C  
HETATM    2  O   UNL     1     -11.983   6.453  69.510  1.00  0.00    -0.128 OA 
HETATM    3  C   UNL     1     -11.464   6.825  70.739  1.00  0.00    -0.342 A  
HETATM    4  C   UNL     1     -12.119   7.168  71.893  1.00  0.00    -0.321 A  
HETATM    5  C   UNL     1     -11.328   7.761  72.902  1.00  0.00    -0.406 A  
HETATM    6  C   UNL     1     -10.845   5.904  67.347  1.00  0.00    -0.248 C  
HETATM    7  C   UNL     1     -10.565   7.080  66.733  1.00  0.00    -0.297 C  
HETATM    8  C   UNL     1      -9.949   8.083  72.716  1.00  0.00    -0.364 A  
HETATM    9  C   UNL     1      -9.318   7.737  71.529  1.00  0.00    -0.165 A  
HETATM   10  C   UNL     1     -10.089   6.978  70.668  1.00  0.00    -0.201 A  
HETATM   11  C   UNL     1      -9.584   6.535  69.355  1.00  0.00    -0.149 C  
HETATM   12  C   UNL     1      -8.427   5.529  69.549  1.00  0.00    -0.105 C  
HETATM   13  C   UNL     1      -7.274   5.874  68.638  1.00  0.00    -0.083 C  
HETATM   14  N   UNL     1      -6.783   7.243  68.851  1.00  0.00    -0.058 NA 
HETATM   15  C   UNL     1      -6.108   7.659  67.614  1.00  0.00    -0.048 C  
HETATM   16  C   UNL     1      -7.818   8.205  69.336  1.00  0.00    -0.105 C  
HETATM   17  C   UNL     1      -7.955   8.199  70.986  1.00  0.00    -0.096 C  
HETATM   18  C   UNL     1      -9.217   7.907  68.749  1.00  0.00    -0.143 C  
HETATM   19  C   UNL     1      -9.535   8.060  67.262  1.00  0.00    -0.196 C  
ENDROOT
BRANCH   4  20
HETATM   20  O   UNL     1     -13.438   6.981  72.183  1.00  0.00    -0.121 OA 
HETATM   21  C   UNL     1     -14.382   7.896  71.628  1.00  0.00    -0.479 C  
ENDBRANCH   4  20
BRANCH   6  22
HETATM   22  O   UNL     1     -10.204   4.687  66.875  1.00  0.00    -0.213 OA 
BRANCH  22  23
HETATM   23  C   UNL     1      -9.937   4.434  65.564  1.00  0.00    -0.230 C  
HETATM   24  O   UNL     1     -10.753   4.115  64.704  1.00  0.00    -0.255 OA 
BRANCH  23  25
HETATM   25  C   UNL     1      -8.476   4.561  65.284  1.00  0.00    -0.124 A  
HETATM   26  C   UNL     1      -7.642   3.540  65.769  1.00  0.00    -0.078 A  
HETATM   27  C   UNL     1      -6.253   3.613  65.619  1.00  0.00    -0.031 A  
HETATM   28  C   UNL     1      -5.684   4.707  64.971  1.00  0.00    -0.014 A  
HETATM   29  C   UNL     1      -6.500   5.719  64.461  1.00  0.00    -0.037 A  
HETATM   30  C   UNL     1      -7.900   5.649  64.613  1.00  0.00    -0.113 A  
ENDBRANCH  23  25
ENDBRANCH  22  23
ENDBRANCH   6  22
TORSDOF 4
ENDMDL
MODEL      104
REMARK 921   NORMALIZED FREE ENERGY PREDICTED BY IDOCK:   -5.07 KCAL/MOL
REMARK 922        TOTAL FREE ENERGY PREDICTED BY IDOCK:   -6.81 KCAL/MOL
REMARK 923 INTER-LIGAND FREE ENERGY PREDICTED BY IDOCK:   -6.13 KCAL/MOL
REMARK 924 INTRA-LIGAND FREE ENERGY PREDICTED BY IDOCK:   -0.68 KCAL/MOL
REMARK 927      BINDING AFFINITY PREDICTED BY RF-SCORE:    0.00 PKD
ROOT
HETATM    1  C   UNL     1      -9.718   9.514  66.280  1.00  0.00    -0.245 C  
HETATM    2  O   UNL     1      -9.971  10.091  64.977  1.00  0.00    -0.326 OA 
HETATM    3  C   UNL     1     -10.180  11.427  65.276  1.00  0.00    -0.270 A  
HETATM    4  C   UNL     1     -10.747  12.411  64.510  1.00  0.00    -0.321 A  
HETATM    5  C   UNL     1     -10.578  13.735  64.976  1.00  0.00    -0.402 A  
HETATM    6  C   UNL     1      -8.864   8.270  66.293  1.00  0.00    -0.161 C  
HETATM    7  C   UNL     1      -7.526   8.393  66.100  1.00  0.00    -0.088 C  
HETATM    8  C   UNL     1      -9.784  14.057  66.118  1.00  0.00    -0.300 A  
HETATM    9  C   UNL     1      -9.208  13.038  66.864  1.00  0.00    -0.236 A  
HETATM   10  C   UNL     1      -9.580  11.763  66.479  1.00  0.00    -0.225 A  
HETATM   11  C   UNL     1      -9.053  10.562  67.151  1.00  0.00    -0.154 C  
HETATM   12  C   UNL     1      -9.569  10.503  68.606  1.00  0.00    -0.171 C  
HETATM   13  C   UNL     1      -8.438  10.176  69.550  1.00  0.00    -0.168 C  
HETATM   14  N   UNL     1      -7.330  11.138  69.453  1.00  0.00    -0.099 NA 
HETATM   15  C   UNL     1      -6.122  10.458  69.938  1.00  0.00    -0.068 C  
HETATM   16  C   UNL     1      -7.177  11.773  68.110  1.00  0.00    -0.086 C  
HETATM   17  C   UNL     1      -8.118  13.126  67.946  1.00  0.00    -0.159 C  
HETATM   18  C   UNL     1      -7.541  10.808  66.959  1.00  0.00    -0.114 C  
HETATM   19  C   UNL     1      -6.720   9.557  66.643  1.00  0.00    -0.072 C  
ENDROOT
BRANCH   4  20
HETATM   20  O   UNL     1     -11.472  12.256  63.366  1.00  0.00    -0.439 OA 
HETATM   21  C   UNL     1     -12.839  11.869  63.486  1.00  0.00    -0.305 C  
ENDBRANCH   4  20
BRANCH   6  22
HETATM   22  O   UNL     1      -9.348   7.429  67.376  1.00  0.00    -0.129 OA 
BRANCH  22  23
HETATM   23  C   UNL     1     -10.355   6.523  67.236  1.00  0.00    -0.222 C  
HETATM   24  O   UNL     1     -11.523   6.772  66.950  1.00  0.00    -0.176 OA 
BRANCH  23  25
HETATM   25  C   UNL     1      -9.868   5.139  67.512  1.00  0.00    -0.193 A  
HETATM   26  C   UNL     1      -9.678   4.786  68.858  1.00  0.00    -0.244 A  
HETATM   27  C   UNL     1      -9.153   3.536  69.208  1.00  0.00    -0.200 A  
HETATM   28  C   UNL     1      -8.823   2.622  68.210  1.00  0.00    -0.162 A  
HETATM   29  C   UNL     1      -9.028   2.947  66.868  1.00  0.00    -0.176 A  
HETATM   30  C   UNL     1      -9.554   4.206  66.513  1.00  0.00    -0.220 A  
ENDBRANCH  23  25
ENDBRANCH  22  23
ENDBRANCH   6  22
TORSDOF 4
ENDMDL
MODEL      105
REMARK 921   NORMALIZED FREE ENERGY PREDICTED BY IDOCK:   -5.06 KCAL/MOL
REMARK 922        TOTAL FREE ENERGY PREDICTED BY IDOCK:   -6.80 KCAL/MOL
REMARK 923 INTER-LIGAND FREE ENERGY PREDICTED BY IDOCK:   -6.27 KCAL/MOL
REMARK 924 INTRA-LIGAND FREE ENERGY PREDICTED BY IDOCK:   -0.53 KCAL/MOL
REMARK 927      BINDING AFFINITY PREDICTED BY RF-SCORE:    0.00 PKD
ROOT
HETATM    1  C   UNL     1      -9.260  11.629  67.442  1.00  0.00    -0.168 C  
HETATM    2  O   UNL     1      -8.475  11.953  68.614  1.00  0.00    -0.132 OA 
HETATM    3  C   UNL     1      -7.783  13.082  68.210  1.00  0.00    -0.141 A  
HETATM    4  C   UNL     1      -6.677  13.670  68.766  1.00  0.00    -0.104 A  
HETATM    5  C   UNL     1      -6.359  14.964  68.292  1.00  0.00    -0.123 A  
HETATM    6  C   UNL     1     -10.546  10.882  67.698  1.00  0.00    -0.224 C  
HETATM    7  C   UNL     1     -11.606  11.561  68.207  1.00  0.00    -0.378 C  
HETATM    8  C   UNL     1      -7.182  15.672  67.365  1.00  0.00    -0.241 A  
HETATM    9  C   UNL     1      -8.305  15.055  66.832  1.00  0.00    -0.247 A  
HETATM   10  C   UNL     1      -8.446  13.723  67.175  1.00  0.00    -0.189 A  
HETATM   11  C   UNL     1      -9.589  12.916  66.712  1.00  0.00    -0.246 C  
HETATM   12  C   UNL     1      -9.518  12.734  65.179  1.00  0.00     0.267 C  
HETATM   13  C   UNL     1     -10.868  12.992  64.557  1.00  0.00    -0.372 C  
HETATM   14  N   UNL     1     -11.385  14.331  64.876  1.00  0.00    -0.354 NA 
HETATM   15  C   UNL     1     -12.846  14.276  64.734  1.00  0.00    -0.021 C  
HETATM   16  C   UNL     1     -10.918  14.881  66.183  1.00  0.00    -0.334 C  
HETATM   17  C   UNL     1      -9.473  15.677  66.047  1.00  0.00    -0.390 C  
HETATM   18  C   UNL     1     -10.746  13.780  67.256  1.00  0.00    -0.286 C  
HETATM   19  C   UNL     1     -11.928  12.992  67.822  1.00  0.00    -0.344 C  
ENDROOT
BRANCH   4  20
HETATM   20  O   UNL     1      -5.841  13.142  69.704  1.00  0.00    -0.093 OA 
HETATM   21  C   UNL     1      -5.447  13.972  70.794  1.00  0.00    -0.159 C  
ENDBRANCH   4  20
BRANCH   6  22
HETATM   22  O   UNL     1     -10.754   9.987  66.572  1.00  0.00    -0.136 OA 
BRANCH  22  23
HETATM   23  C   UNL     1      -9.822   9.095  66.135  1.00  0.00    -0.293 C  
HETATM   24  O   UNL     1      -9.010   9.275  65.231  1.00  0.00    -0.191 OA 
BRANCH  23  25
HETATM   25  C   UNL     1      -9.924   7.809  66.885  1.00  0.00    -0.331 A  
HETATM   26  C   UNL     1      -9.189   6.720  66.387  1.00  0.00    -0.185 A  
HETATM   27  C   UNL     1      -9.283   5.456  66.981  1.00  0.00    -0.113 A  
HETATM   28  C   UNL     1     -10.107   5.273  68.089  1.00  0.00    -0.211 A  
HETATM   29  C   UNL     1     -10.825   6.350  68.612  1.00  0.00    -0.379 A  
HETATM   30  C   UNL     1     -10.735   7.623  68.014  1.00  0.00    -0.152 A  
ENDBRANCH  23  25
ENDBRANCH  22  23
ENDBRANCH   6  22
TORSDOF 4
ENDMDL
MODEL      106
REMARK 921   NORMALIZED FREE ENERGY PREDICTED BY IDOCK:   -5.05 KCAL/MOL
REMARK 922        TOTAL FREE ENERGY PREDICTED BY IDOCK:   -6.79 KCAL/MOL
REMARK 923 INTER-LIGAND FREE ENERGY PREDICTED BY IDOCK:   -5.74 KCAL/MOL
REMARK 924 INTRA-LIGAND FREE ENERGY PREDICTED BY IDOCK:   -1.04 KCAL/MOL
REMARK 927      BINDING AFFINITY PREDICTED BY RF-SCORE:    0.00 PKD
ROOT
HETATM    1  C   UNL     1      -9.520   5.519  69.267  1.00  0.00    -0.129 C  
HETATM    2  O   UNL     1     -10.546   5.118  70.206  1.00  0.00    -0.262 OA 
HETATM    3  C   UNL     1     -10.727   6.265  70.961  1.00  0.00    -0.259 A  
HETATM    4  C   UNL     1     -11.341   6.418  72.177  1.00  0.00    -0.290 A  
HETATM    5  C   UNL     1     -11.610   7.749  72.571  1.00  0.00    -0.422 A  
HETATM    6  C   UNL     1      -9.516   4.787  67.947  1.00  0.00    -0.144 C  
HETATM    7  C   UNL     1     -10.464   5.094  67.026  1.00  0.00    -0.256 C  
HETATM    8  C   UNL     1     -11.356   8.873  71.728  1.00  0.00    -0.431 A  
HETATM    9  C   UNL     1     -10.748   8.682  70.495  1.00  0.00    -0.252 A  
HETATM   10  C   UNL     1     -10.323   7.388  70.257  1.00  0.00    -0.217 A  
HETATM   11  C   UNL     1      -9.671   7.002  68.993  1.00  0.00    -0.145 C  
HETATM   12  C   UNL     1      -8.298   7.701  68.874  1.00  0.00    -0.129 C  
HETATM   13  C   UNL     1      -8.128   8.293  67.497  1.00  0.00    -0.122 C  
HETATM   14  N   UNL     1      -9.200   9.241  67.159  1.00  0.00    -0.129 NA 
HETATM   15  C   UNL     1      -9.271   9.309  65.693  1.00  0.00    -0.231 C  
HETATM   16  C   UNL     1     -10.508   8.961  67.822  1.00  0.00    -0.239 C  
HETATM   17  C   UNL     1     -10.615   9.663  69.317  1.00  0.00    -0.236 C  
HETATM   18  C   UNL     1     -10.765   7.446  67.998  1.00  0.00    -0.191 C  
HETATM   19  C   UNL     1     -10.977   6.505  66.812  1.00  0.00    -0.309 C  
ENDROOT
BRANCH   4  20
HETATM   20  O   UNL     1     -11.700   5.438  73.053  1.00  0.00    -0.275 OA 
HETATM   21  C   UNL     1     -10.689   4.890  73.896  1.00  0.00    -0.303 C  
ENDBRANCH   4  20
BRANCH   6  22
HETATM   22  O   UNL     1      -8.129   4.674  67.525  1.00  0.00    -0.100 OA 
BRANCH  22  23
HETATM   23  C   UNL     1      -7.704   3.826  66.549  1.00  0.00    -0.088 C  
HETATM   24  O   UNL     1      -7.260   2.692  66.711  1.00  0.00    -0.052 OA 
BRANCH  23  25
HETATM   25  C   UNL     1      -7.811   4.466  65.204  1.00  0.00    -0.086 A  
HETATM   26  C   UNL     1      -7.199   5.721  65.045  1.00  0.00    -0.066 A  
HETATM   27  C   UNL     1      -7.312   6.429  63.842  1.00  0.00    -0.070 A  
HETATM   28  C   UNL     1      -8.030   5.881  62.783  1.00  0.00    -0.104 A  
HETATM   29  C   UNL     1      -8.623   4.624  62.915  1.00  0.00    -0.114 A  
HETATM   30  C   UNL     1      -8.514   3.910  64.126  1.00  0.00    -0.093 A  
ENDBRANCH  23  25
ENDBRANCH  22  23
ENDBRANCH   6  22
TORSDOF 4
ENDMDL
MODEL      107
REMARK 921   NORMALIZED FREE ENERGY PREDICTED BY IDOCK:   -5.04 KCAL/MOL
REMARK 922        TOTAL FREE ENERGY PREDICTED BY IDOCK:   -6.77 KCAL/MOL
REMARK 923 INTER-LIGAND FREE ENERGY PREDICTED BY IDOCK:   -6.11 KCAL/MOL
REMARK 924 INTRA-LIGAND FREE ENERGY PREDICTED BY IDOCK:   -0.66 KCAL/MOL
REMARK 927      BINDING AFFINITY PREDICTED BY RF-SCORE:    0.00 PKD
ROOT
HETATM    1  C   UNL     1      -9.680   6.910  69.114  1.00  0.00    -0.155 C  
HETATM    2  O   UNL     1     -10.196   6.140  68.003  1.00  0.00    -0.144 OA 
HETATM    3  C   UNL     1      -9.683   4.877  68.249  1.00  0.00    -0.145 A  
HETATM    4  C   UNL     1      -9.575   3.802  67.406  1.00  0.00    -0.161 A  
HETATM    5  C   UNL     1      -9.260   2.566  68.015  1.00  0.00    -0.254 A  
HETATM    6  C   UNL     1     -10.501   8.110  69.519  1.00  0.00    -0.227 C  
HETATM    7  C   UNL     1     -11.654   7.912  70.206  1.00  0.00    -0.022 C  
HETATM    8  C   UNL     1      -9.153   2.405  69.430  1.00  0.00    -0.183 A  
HETATM    9  C   UNL     1      -9.283   3.511  70.258  1.00  0.00    -0.225 A  
HETATM   10  C   UNL     1      -9.384   4.719  69.593  1.00  0.00    -0.198 A  
HETATM   11  C   UNL     1      -9.545   5.995  70.315  1.00  0.00    -0.194 C  
HETATM   12  C   UNL     1      -8.267   6.305  71.126  1.00  0.00    -0.123 C  
HETATM   13  C   UNL     1      -8.627   6.741  72.525  1.00  0.00    -0.122 C  
HETATM   14  N   UNL     1      -9.435   5.739  73.234  1.00  0.00    -0.142 NA 
HETATM   15  C   UNL     1     -10.178   6.446  74.285  1.00  0.00    -0.344 C  
HETATM   16  C   UNL     1     -10.287   4.891  72.348  1.00  0.00    -0.204 C  
HETATM   17  C   UNL     1      -9.476   3.562  71.784  1.00  0.00    -0.212 C  
HETATM   18  C   UNL     1     -10.819   5.669  71.123  1.00  0.00    -0.288 C  
HETATM   19  C   UNL     1     -11.813   6.824  71.250  1.00  0.00    -0.396 C  
ENDROOT
BRANCH   4  20
HETATM   20  O   UNL     1      -9.716   3.796  66.050  1.00  0.00    -0.183 OA 
HETATM   21  C   UNL     1      -8.533   3.834  65.254  1.00  0.00    -0.105 C  
ENDBRANCH   4  20
BRANCH   6  22
HETATM   22  O   UNL     1      -9.572   9.131  69.976  1.00  0.00    -0.174 OA 
BRANCH  22  23
HETATM   23  C   UNL     1      -8.884   9.956  69.138  1.00  0.00    -0.164 C  
HETATM   24  O   UNL     1      -7.674   9.941  68.933  1.00  0.00    -0.078 OA 
BRANCH  23  25
HETATM   25  C   UNL     1      -9.800  10.944  68.495  1.00  0.00    -0.188 A  
HETATM   26  C   UNL     1     -10.901  11.380  69.250  1.00  0.00    -0.242 A  
HETATM   27  C   UNL     1     -11.853  12.247  68.701  1.00  0.00    -0.354 A  
HETATM   28  C   UNL     1     -11.705  12.695  67.391  1.00  0.00    -0.432 A  
HETATM   29  C   UNL     1     -10.604  12.292  66.634  1.00  0.00    -0.257 A  
HETATM   30  C   UNL     1      -9.645  11.416  67.184  1.00  0.00    -0.193 A  
ENDBRANCH  23  25
ENDBRANCH  22  23
ENDBRANCH   6  22
TORSDOF 4
ENDMDL
MODEL      108
REMARK 921   NORMALIZED FREE ENERGY PREDICTED BY IDOCK:   -5.03 KCAL/MOL
REMARK 922        TOTAL FREE ENERGY PREDICTED BY IDOCK:   -6.76 KCAL/MOL
REMARK 923 INTER-LIGAND FREE ENERGY PREDICTED BY IDOCK:   -6.16 KCAL/MOL
REMARK 924 INTRA-LIGAND FREE ENERGY PREDICTED BY IDOCK:   -0.61 KCAL/MOL
REMARK 927      BINDING AFFINITY PREDICTED BY RF-SCORE:    0.00 PKD
ROOT
HETATM    1  C   UNL     1      -9.441  13.445  66.405  1.00  0.00    -0.219 C  
HETATM    2  O   UNL     1      -9.443  12.495  65.313  1.00  0.00    -0.029 OA 
HETATM    3  C   UNL     1      -9.516  11.280  65.972  1.00  0.00    -0.216 A  
HETATM    4  C   UNL     1      -9.257  10.018  65.503  1.00  0.00    -0.198 A  
HETATM    5  C   UNL     1      -9.678   8.951  66.329  1.00  0.00    -0.345 A  
HETATM    6  C   UNL     1      -9.987  14.815  66.085  1.00  0.00    -0.304 C  
HETATM    7  C   UNL     1     -11.329  14.972  65.965  1.00  0.00    -0.270 C  
HETATM    8  C   UNL     1     -10.418   9.151  67.534  1.00  0.00    -0.335 A  
HETATM    9  C   UNL     1     -10.678  10.441  67.974  1.00  0.00    -0.292 A  
HETATM   10  C   UNL     1     -10.064  11.435  67.235  1.00  0.00    -0.218 A  
HETATM   11  C   UNL     1     -10.243  12.864  67.551  1.00  0.00    -0.213 C  
HETATM   12  C   UNL     1      -9.599  13.186  68.918  1.00  0.00     0.202 C  
HETATM   13  C   UNL     1     -10.536  14.019  69.757  1.00  0.00     0.304 C  
HETATM   14  N   UNL     1     -11.836  13.364  69.962  1.00  0.00    -0.311 NA 
HETATM   15  C   UNL     1     -12.811  14.421  70.263  1.00  0.00    -0.178 C  
HETATM   16  C   UNL     1     -12.250  12.448  68.858  1.00  0.00     0.043 C  
HETATM   17  C   UNL     1     -11.658  10.915  69.061  1.00  0.00    -0.387 C  
HETATM   18  C   UNL     1     -11.783  12.949  67.472  1.00  0.00    -0.422 C  
HETATM   19  C   UNL     1     -12.326  14.229  66.835  1.00  0.00    -0.240 C  
ENDROOT
BRANCH   4  20
HETATM   20  O   UNL     1      -8.622   9.679  64.345  1.00  0.00    -0.164 OA 
HETATM   21  C   UNL     1      -7.212   9.883  64.270  1.00  0.00    -0.134 C  
ENDBRANCH   4  20
BRANCH   6  22
HETATM   22  O   UNL     1      -9.229  15.773  66.873  1.00  0.00    -0.208 OA 
BRANCH  22  23
HETATM   23  C   UNL     1      -7.943  16.127  66.600  1.00  0.00    -0.270 C  
HETATM   24  O   UNL     1      -6.963  15.388  66.633  1.00  0.00    -0.001 OA 
BRANCH  23  25
HETATM   25  C   UNL     1      -7.848  17.581  66.276  1.00  0.00    -0.322 A  
HETATM   26  C   UNL     1      -6.580  18.076  65.930  1.00  0.00    -0.319 A  
HETATM   27  C   UNL     1      -6.382  19.440  65.684  1.00  0.00    -0.255 A  
HETATM   28  C   UNL     1      -7.458  20.321  65.770  1.00  0.00    -0.210 A  
HETATM   29  C   UNL     1      -8.730  19.842  66.089  1.00  0.00    -0.368 A  
HETATM   30  C   UNL     1      -8.931  18.469  66.340  1.00  0.00    -0.276 A  
ENDBRANCH  23  25
ENDBRANCH  22  23
ENDBRANCH   6  22
TORSDOF 4
ENDMDL
MODEL      109
REMARK 921   NORMALIZED FREE ENERGY PREDICTED BY IDOCK:   -5.03 KCAL/MOL
REMARK 922        TOTAL FREE ENERGY PREDICTED BY IDOCK:   -6.76 KCAL/MOL
REMARK 923 INTER-LIGAND FREE ENERGY PREDICTED BY IDOCK:   -6.26 KCAL/MOL
REMARK 924 INTRA-LIGAND FREE ENERGY PREDICTED BY IDOCK:   -0.50 KCAL/MOL
REMARK 927      BINDING AFFINITY PREDICTED BY RF-SCORE:    0.00 PKD
ROOT
HETATM    1  C   UNL     1     -10.340   7.976  69.999  1.00  0.00    -0.218 C  
HETATM    2  O   UNL     1     -11.555   8.644  70.415  1.00  0.00    -0.209 OA 
HETATM    3  C   UNL     1     -11.349   9.942  69.978  1.00  0.00    -0.249 A  
HETATM    4  C   UNL     1     -12.002  11.094  70.332  1.00  0.00    -0.378 A  
HETATM    5  C   UNL     1     -11.753  12.223  69.519  1.00  0.00    -0.398 A  
HETATM    6  C   UNL     1     -10.461   6.494  69.744  1.00  0.00    -0.211 C  
HETATM    7  C   UNL     1     -11.069   6.074  68.606  1.00  0.00    -0.293 C  
HETATM    8  C   UNL     1     -10.952  12.164  68.339  1.00  0.00    -0.271 A  
HETATM    9  C   UNL     1     -10.317  10.979  67.998  1.00  0.00    -0.209 A  
HETATM   10  C   UNL     1     -10.432   9.973  68.940  1.00  0.00    -0.229 A  
HETATM   11  C   UNL     1      -9.833   8.642  68.736  1.00  0.00    -0.180 C  
HETATM   12  C   UNL     1      -8.292   8.753  68.730  1.00  0.00    -0.124 C  
HETATM   13  C   UNL     1      -7.714   7.970  67.577  1.00  0.00    -0.106 C  
HETATM   14  N   UNL     1      -8.248   8.408  66.279  1.00  0.00    -0.107 NA 
HETATM   15  C   UNL     1      -8.091   7.285  65.345  1.00  0.00    -0.133 C  
HETATM   16  C   UNL     1      -9.632   8.967  66.335  1.00  0.00    -0.238 C  
HETATM   17  C   UNL     1      -9.640  10.588  66.672  1.00  0.00    -0.210 C  
HETATM   18  C   UNL     1     -10.507   8.264  67.399  1.00  0.00    -0.353 C  
HETATM   19  C   UNL     1     -10.927   6.798  67.281  1.00  0.00    -0.433 C  
ENDROOT
BRANCH   4  20
HETATM   20  O   UNL     1     -12.843  11.277  71.389  1.00  0.00    -0.406 OA 
HETATM   21  C   UNL     1     -13.160  10.146  72.198  1.00  0.00    -0.364 C  
ENDBRANCH   4  20
BRANCH   6  22
HETATM   22  O   UNL     1      -9.199   5.887  70.137  1.00  0.00    -0.149 OA 
BRANCH  22  23
HETATM   23  C   UNL     1      -9.059   4.568  70.444  1.00  0.00    -0.111 C  
HETATM   24  O   UNL     1      -9.250   4.051  71.541  1.00  0.00    -0.114 OA 
BRANCH  23  25
HETATM   25  C   UNL     1      -8.594   3.793  69.256  1.00  0.00    -0.112 A  
HETATM   26  C   UNL     1      -8.980   2.444  69.183  1.00  0.00    -0.168 A  
HETATM   27  C   UNL     1      -8.529   1.621  68.145  1.00  0.00    -0.083 A  
HETATM   28  C   UNL     1      -7.694   2.145  67.161  1.00  0.00    -0.065 A  
HETATM   29  C   UNL     1      -7.321   3.489  67.204  1.00  0.00    -0.063 A  
HETATM   30  C   UNL     1      -7.771   4.320  68.250  1.00  0.00    -0.075 A  
ENDBRANCH  23  25
ENDBRANCH  22  23
ENDBRANCH   6  22
TORSDOF 4
ENDMDL
MODEL      110
REMARK 921   NORMALIZED FREE ENERGY PREDICTED BY IDOCK:   -5.02 KCAL/MOL
REMARK 922        TOTAL FREE ENERGY PREDICTED BY IDOCK:   -6.74 KCAL/MOL
REMARK 923 INTER-LIGAND FREE ENERGY PREDICTED BY IDOCK:   -5.95 KCAL/MOL
REMARK 924 INTRA-LIGAND FREE ENERGY PREDICTED BY IDOCK:   -0.79 KCAL/MOL
REMARK 927      BINDING AFFINITY PREDICTED BY RF-SCORE:    0.00 PKD
ROOT
HETATM    1  C   UNL     1      -9.930   8.910  69.879  1.00  0.00    -0.188 C  
HETATM    2  O   UNL     1     -10.408  10.058  70.619  1.00  0.00    -0.254 OA 
HETATM    3  C   UNL     1     -11.682   9.666  70.993  1.00  0.00    -0.353 A  
HETATM    4  C   UNL     1     -12.728  10.425  71.450  1.00  0.00    -0.446 A  
HETATM    5  C   UNL     1     -13.814   9.713  72.007  1.00  0.00    -0.312 A  
HETATM    6  C   UNL     1      -8.434   8.715  69.863  1.00  0.00    -0.129 C  
HETATM    7  C   UNL     1      -7.824   8.238  70.977  1.00  0.00    -0.097 C  
HETATM    8  C   UNL     1     -13.801   8.295  72.183  1.00  0.00    -0.351 A  
HETATM    9  C   UNL     1     -12.721   7.557  71.724  1.00  0.00    -0.360 A  
HETATM   10  C   UNL     1     -11.789   8.285  71.006  1.00  0.00    -0.276 A  
HETATM   11  C   UNL     1     -10.570   7.664  70.457  1.00  0.00    -0.229 C  
HETATM   12  C   UNL     1     -10.947   6.652  69.352  1.00  0.00    -0.361 C  
HETATM   13  C   UNL     1     -10.186   5.362  69.540  1.00  0.00    -0.266 C  
HETATM   14  N   UNL     1     -10.419   4.763  70.863  1.00  0.00    -0.111 NA 
HETATM   15  C   UNL     1      -9.270   3.896  71.153  1.00  0.00    -0.132 C  
HETATM   16  C   UNL     1     -10.732   5.746  71.942  1.00  0.00    -0.242 C  
HETATM   17  C   UNL     1     -12.348   6.094  72.024  1.00  0.00    -0.113 C  
HETATM   18  C   UNL     1      -9.975   7.082  71.758  1.00  0.00    -0.187 C  
HETATM   19  C   UNL     1      -8.454   7.189  71.874  1.00  0.00    -0.112 C  
ENDROOT
BRANCH   4  20
HETATM   20  O   UNL     1     -12.846  11.782  71.408  1.00  0.00    -0.404 OA 
HETATM   21  C   UNL     1     -12.429  12.455  70.222  1.00  0.00    -0.078 C  
ENDBRANCH   4  20
BRANCH   6  22
HETATM   22  O   UNL     1      -8.089   8.148  68.570  1.00  0.00    -0.120 OA 
BRANCH  22  23
HETATM   23  C   UNL     1      -8.185   8.831  67.396  1.00  0.00    -0.109 C  
HETATM   24  O   UNL     1      -8.823   8.489  66.404  1.00  0.00    -0.133 OA 
BRANCH  23  25
HETATM   25  C   UNL     1      -7.367  10.079  67.438  1.00  0.00    -0.090 A  
HETATM   26  C   UNL     1      -8.053  11.297  67.298  1.00  0.00    -0.140 A  
HETATM   27  C   UNL     1      -7.360  12.512  67.250  1.00  0.00    -0.113 A  
HETATM   28  C   UNL     1      -5.972  12.521  67.355  1.00  0.00    -0.147 A  
HETATM   29  C   UNL     1      -5.276  11.322  67.520  1.00  0.00    -0.043 A  
HETATM   30  C   UNL     1      -5.971  10.096  67.565  1.00  0.00    -0.053 A  
ENDBRANCH  23  25
ENDBRANCH  22  23
ENDBRANCH   6  22
TORSDOF 4
ENDMDL
MODEL      111
REMARK 921   NORMALIZED FREE ENERGY PREDICTED BY IDOCK:   -5.01 KCAL/MOL
REMARK 922        TOTAL FREE ENERGY PREDICTED BY IDOCK:   -6.73 KCAL/MOL
REMARK 923 INTER-LIGAND FREE ENERGY PREDICTED BY IDOCK:   -6.09 KCAL/MOL
REMARK 924 INTRA-LIGAND FREE ENERGY PREDICTED BY IDOCK:   -0.64 KCAL/MOL
REMARK 927      BINDING AFFINITY PREDICTED BY RF-SCORE:    0.00 PKD
ROOT
HETATM    1  C   UNL     1      -8.346  10.705  69.363  1.00  0.00    -0.060 C  
HETATM    2  O   UNL     1      -7.781   9.714  70.253  1.00  0.00    -0.145 OA 
HETATM    3  C   UNL     1      -8.747   8.723  70.252  1.00  0.00    -0.161 A  
HETATM    4  C   UNL     1      -8.923   7.678  71.122  1.00  0.00    -0.138 A  
HETATM    5  C   UNL     1      -9.832   6.676  70.711  1.00  0.00    -0.198 A  
HETATM    6  C   UNL     1      -7.354  11.590  68.649  1.00  0.00    -0.106 C  
HETATM    7  C   UNL     1      -6.647  11.076  67.611  1.00  0.00    -0.065 C  
HETATM    8  C   UNL     1     -10.463   6.682  69.430  1.00  0.00    -0.254 A  
HETATM    9  C   UNL     1     -10.252   7.746  68.566  1.00  0.00    -0.227 A  
HETATM   10  C   UNL     1      -9.521   8.789  69.105  1.00  0.00    -0.157 A  
HETATM   11  C   UNL     1      -9.189   9.994  68.323  1.00  0.00    -0.129 C  
HETATM   12  C   UNL     1     -10.477  10.783  67.998  1.00  0.00    -0.225 C  
HETATM   13  C   UNL     1     -10.489  11.191  66.545  1.00  0.00    -0.255 C  
HETATM   14  N   UNL     1     -10.369  10.040  65.638  1.00  0.00    -0.184 NA 
HETATM   15  C   UNL     1      -9.834  10.544  64.367  1.00  0.00    -0.341 C  
HETATM   16  C   UNL     1      -9.613   8.883  66.203  1.00  0.00    -0.265 C  
HETATM   17  C   UNL     1     -10.586   7.860  67.068  1.00  0.00    -0.381 C  
HETATM   18  C   UNL     1      -8.462   9.330  67.133  1.00  0.00    -0.124 C  
HETATM   19  C   UNL     1      -7.238  10.091  66.621  1.00  0.00    -0.099 C  
ENDROOT
BRANCH   4  20
HETATM   20  O   UNL     1      -8.340   7.509  72.342  1.00  0.00    -0.102 OA 
HETATM   21  C   UNL     1      -8.978   8.091  73.476  1.00  0.00    -0.260 C  
ENDBRANCH   4  20
BRANCH   6  22
HETATM   22  O   UNL     1      -7.971  12.898  68.506  1.00  0.00    -0.144 OA 
BRANCH  22  23
HETATM   23  C   UNL     1      -7.393  13.938  67.845  1.00  0.00    -0.154 C  
HETATM   24  O   UNL     1      -6.189  14.129  67.698  1.00  0.00    -0.245 OA 
BRANCH  23  25
HETATM   25  C   UNL     1      -8.429  14.878  67.323  1.00  0.00    -0.229 A  
HETATM   26  C   UNL     1      -7.992  16.154  66.928  1.00  0.00    -0.279 A  
HETATM   27  C   UNL     1      -8.903  17.125  66.497  1.00  0.00    -0.293 A  
HETATM   28  C   UNL     1     -10.262  16.825  66.447  1.00  0.00    -0.329 A  
HETATM   29  C   UNL     1     -10.711  15.554  66.812  1.00  0.00    -0.305 A  
HETATM   30  C   UNL     1      -9.796  14.574  67.249  1.00  0.00    -0.236 A  
ENDBRANCH  23  25
ENDBRANCH  22  23
ENDBRANCH   6  22
TORSDOF 4
ENDMDL
MODEL      112
REMARK 921   NORMALIZED FREE ENERGY PREDICTED BY IDOCK:   -4.99 KCAL/MOL
REMARK 922        TOTAL FREE ENERGY PREDICTED BY IDOCK:   -6.71 KCAL/MOL
REMARK 923 INTER-LIGAND FREE ENERGY PREDICTED BY IDOCK:   -6.12 KCAL/MOL
REMARK 924 INTRA-LIGAND FREE ENERGY PREDICTED BY IDOCK:   -0.59 KCAL/MOL
REMARK 927      BINDING AFFINITY PREDICTED BY RF-SCORE:    0.00 PKD
ROOT
HETATM    1  C   UNL     1      -8.899   7.983  70.002  1.00  0.00    -0.143 C  
HETATM    2  O   UNL     1      -7.862   6.975  69.940  1.00  0.00    -0.109 OA 
HETATM    3  C   UNL     1      -7.851   6.476  71.232  1.00  0.00    -0.103 A  
HETATM    4  C   UNL     1      -6.899   5.720  71.865  1.00  0.00    -0.068 A  
HETATM    5  C   UNL     1      -7.288   5.133  73.091  1.00  0.00    -0.091 A  
HETATM    6  C   UNL     1      -9.604   8.281  68.701  1.00  0.00    -0.149 C  
HETATM    7  C   UNL     1     -10.513   7.390  68.231  1.00  0.00    -0.231 C  
HETATM    8  C   UNL     1      -8.616   5.227  73.607  1.00  0.00    -0.111 A  
HETATM    9  C   UNL     1      -9.562   5.987  72.934  1.00  0.00    -0.158 A  
HETATM   10  C   UNL     1      -9.067   6.701  71.858  1.00  0.00    -0.143 A  
HETATM   11  C   UNL     1      -9.934   7.548  71.020  1.00  0.00    -0.189 C  
HETATM   12  C   UNL     1     -10.458   8.744  71.845  1.00  0.00    -0.423 C  
HETATM   13  C   UNL     1     -11.940   8.925  71.624  1.00  0.00    -0.345 C  
HETATM   14  N   UNL     1     -12.708   7.717  71.957  1.00  0.00    -0.288 NA 
HETATM   15  C   UNL     1     -13.969   7.785  71.208  1.00  0.00    -0.236 C  
HETATM   16  C   UNL     1     -11.959   6.438  71.779  1.00  0.00    -0.316 C  
HETATM   17  C   UNL     1     -11.088   6.028  73.126  1.00  0.00    -0.236 C  
HETATM   18  C   UNL     1     -10.976   6.494  70.586  1.00  0.00    -0.340 C  
HETATM   19  C   UNL     1     -11.447   6.612  69.137  1.00  0.00    -0.199 C  
ENDROOT
BRANCH   4  20
HETATM   20  O   UNL     1      -5.619   5.490  71.458  1.00  0.00    -0.015 OA 
HETATM   21  C   UNL     1      -5.390   4.429  70.533  1.00  0.00    -0.004 C  
ENDBRANCH   4  20
BRANCH   6  22
HETATM   22  O   UNL     1      -9.938   9.696  68.709  1.00  0.00    -0.163 OA 
BRANCH  22  23
HETATM   23  C   UNL     1     -10.570  10.329  67.682  1.00  0.00    -0.263 C  
HETATM   24  O   UNL     1     -11.703  10.801  67.705  1.00  0.00    -0.547 OA 
BRANCH  23  25
HETATM   25  C   UNL     1      -9.708  10.357  66.464  1.00  0.00    -0.241 A  
HETATM   26  C   UNL     1     -10.361  10.336  65.220  1.00  0.00    -0.218 A  
HETATM   27  C   UNL     1      -9.632  10.284  64.026  1.00  0.00    -0.365 A  
HETATM   28  C   UNL     1      -8.240  10.265  64.065  1.00  0.00    -0.151 A  
HETATM   29  C   UNL     1      -7.575  10.311  65.292  1.00  0.00    -0.143 A  
HETATM   30  C   UNL     1      -8.306  10.360  66.497  1.00  0.00    -0.130 A  
ENDBRANCH  23  25
ENDBRANCH  22  23
ENDBRANCH   6  22
TORSDOF 4
ENDMDL
MODEL      113
REMARK 921   NORMALIZED FREE ENERGY PREDICTED BY IDOCK:   -4.98 KCAL/MOL
REMARK 922        TOTAL FREE ENERGY PREDICTED BY IDOCK:   -6.70 KCAL/MOL
REMARK 923 INTER-LIGAND FREE ENERGY PREDICTED BY IDOCK:   -5.79 KCAL/MOL
REMARK 924 INTRA-LIGAND FREE ENERGY PREDICTED BY IDOCK:   -0.92 KCAL/MOL
REMARK 927      BINDING AFFINITY PREDICTED BY RF-SCORE:    0.00 PKD
ROOT
HETATM    1  C   UNL     1      -9.022  11.252  67.234  1.00  0.00    -0.149 C  
HETATM    2  O   UNL     1     -10.361  11.797  67.318  1.00  0.00    -0.201 OA 
HETATM    3  C   UNL     1     -10.613  12.178  66.011  1.00  0.00    -0.257 A  
HETATM    4  C   UNL     1     -11.581  13.014  65.520  1.00  0.00    -0.347 A  
HETATM    5  C   UNL     1     -11.761  12.999  64.118  1.00  0.00    -0.470 A  
HETATM    6  C   UNL     1      -8.671  10.210  68.267  1.00  0.00    -0.120 C  
HETATM    7  C   UNL     1      -9.178   8.958  68.132  1.00  0.00    -0.145 C  
HETATM    8  C   UNL     1     -11.057  12.103  63.258  1.00  0.00    -0.408 A  
HETATM    9  C   UNL     1     -10.094  11.256  63.788  1.00  0.00    -0.412 A  
HETATM   10  C   UNL     1      -9.820  11.464  65.127  1.00  0.00    -0.302 A  
HETATM   11  C   UNL     1      -8.835  10.645  65.857  1.00  0.00    -0.187 C  
HETATM   12  C   UNL     1      -7.417  10.912  65.306  1.00  0.00     0.204 C  
HETATM   13  C   UNL     1      -6.687   9.610  65.086  1.00  0.00    -0.094 C  
HETATM   14  N   UNL     1      -7.411   8.708  64.178  1.00  0.00    -0.105 NA 
HETATM   15  C   UNL     1      -6.955   7.342  64.469  1.00  0.00    -0.052 C  
HETATM   16  C   UNL     1      -8.895   8.873  64.195  1.00  0.00     0.044 C  
HETATM   17  C   UNL     1      -9.408  10.041  63.139  1.00  0.00    -0.297 C  
HETATM   18  C   UNL     1      -9.429   9.244  65.598  1.00  0.00    -0.324 C  
HETATM   19  C   UNL     1      -9.358   8.284  66.786  1.00  0.00    -0.232 C  
ENDROOT
BRANCH   4  20
HETATM   20  O   UNL     1     -12.372  13.871  66.227  1.00  0.00    -0.453 OA 
HETATM   21  C   UNL     1     -11.735  14.838  67.059  1.00  0.00    -0.315 C  
ENDBRANCH   4  20
BRANCH   6  22
HETATM   22  O   UNL     1      -7.260  10.372  68.577  1.00  0.00    -0.079 OA 
BRANCH  22  23
HETATM   23  C   UNL     1      -6.798  10.867  69.759  1.00  0.00    -0.134 C  
HETATM   24  O   UNL     1      -6.848  10.308  70.851  1.00  0.00    -0.339 OA 
BRANCH  23  25
HETATM   25  C   UNL     1      -6.230  12.235  69.577  1.00  0.00    -0.127 A  
HETATM   26  C   UNL     1      -5.890  12.945  70.741  1.00  0.00    -0.068 A  
HETATM   27  C   UNL     1      -5.421  14.262  70.670  1.00  0.00    -0.141 A  
HETATM   28  C   UNL     1      -5.278  14.879  69.430  1.00  0.00    -0.087 A  
HETATM   29  C   UNL     1      -5.588  14.180  68.262  1.00  0.00    -0.113 A  
HETATM   30  C   UNL     1      -6.063  12.854  68.330  1.00  0.00    -0.074 A  
ENDBRANCH  23  25
ENDBRANCH  22  23
ENDBRANCH   6  22
TORSDOF 4
ENDMDL
MODEL      114
REMARK 921   NORMALIZED FREE ENERGY PREDICTED BY IDOCK:   -4.95 KCAL/MOL
REMARK 922        TOTAL FREE ENERGY PREDICTED BY IDOCK:   -6.66 KCAL/MOL
REMARK 923 INTER-LIGAND FREE ENERGY PREDICTED BY IDOCK:   -5.92 KCAL/MOL
REMARK 924 INTRA-LIGAND FREE ENERGY PREDICTED BY IDOCK:   -0.74 KCAL/MOL
REMARK 927      BINDING AFFINITY PREDICTED BY RF-SCORE:    0.00 PKD
ROOT
HETATM    1  C   UNL     1      -9.867   7.051  67.941  1.00  0.00    -0.138 C  
HETATM    2  O   UNL     1     -10.385   6.197  66.894  1.00  0.00    -0.196 OA 
HETATM    3  C   UNL     1      -9.303   5.379  66.612  1.00  0.00    -0.139 A  
HETATM    4  C   UNL     1      -9.080   4.577  65.524  1.00  0.00    -0.143 A  
HETATM    5  C   UNL     1      -8.015   3.654  65.642  1.00  0.00    -0.093 A  
HETATM    6  C   UNL     1     -10.892   7.614  68.897  1.00  0.00    -0.017 C  
HETATM    7  C   UNL     1     -11.423   6.796  69.840  1.00  0.00    -0.355 C  
HETATM    8  C   UNL     1      -7.269   3.484  66.848  1.00  0.00    -0.063 A  
HETATM    9  C   UNL     1      -7.531   4.302  67.938  1.00  0.00    -0.068 A  
HETATM   10  C   UNL     1      -8.437   5.317  67.691  1.00  0.00    -0.105 A  
HETATM   11  C   UNL     1      -8.844   6.269  68.740  1.00  0.00    -0.123 C  
HETATM   12  C   UNL     1      -7.642   7.152  69.145  1.00  0.00    -0.099 C  
HETATM   13  C   UNL     1      -7.542   7.245  70.648  1.00  0.00    -0.091 C  
HETATM   14  N   UNL     1      -7.426   5.925  71.284  1.00  0.00    -0.087 NA 
HETATM   15  C   UNL     1      -7.896   6.068  72.669  1.00  0.00    -0.104 C  
HETATM   16  C   UNL     1      -8.079   4.813  70.530  1.00  0.00    -0.083 C  
HETATM   17  C   UNL     1      -7.071   4.147  69.398  1.00  0.00    -0.050 C  
HETATM   18  C   UNL     1      -9.362   5.273  69.800  1.00  0.00    -0.182 C  
HETATM   19  C   UNL     1     -10.618   5.723  70.548  1.00  0.00    -0.359 C  
ENDROOT
BRANCH   4  20
HETATM   20  O   UNL     1      -9.752   4.583  64.338  1.00  0.00    -0.104 OA 
HETATM   21  C   UNL     1      -9.121   3.984  63.207  1.00  0.00    -0.121 C  
ENDBRANCH   4  20
BRANCH   6  22
HETATM   22  O   UNL     1     -10.435   8.939  69.283  1.00  0.00    -0.221 OA 
BRANCH  22  23
HETATM   23  C   UNL     1     -10.906  10.090  68.730  1.00  0.00    -0.219 C  
HETATM   24  O   UNL     1     -10.726  10.471  67.577  1.00  0.00    -0.235 OA 
BRANCH  23  25
HETATM   25  C   UNL     1     -11.670  10.889  69.734  1.00  0.00    -0.413 A  
HETATM   26  C   UNL     1     -11.752  12.275  69.518  1.00  0.00    -0.398 A  
HETATM   27  C   UNL     1     -12.383  13.112  70.446  1.00  0.00    -0.351 A  
HETATM   28  C   UNL     1     -12.948  12.566  71.596  1.00  0.00    -0.405 A  
HETATM   29  C   UNL     1     -12.898  11.189  71.814  1.00  0.00    -0.479 A  
HETATM   30  C   UNL     1     -12.260  10.343  70.883  1.00  0.00    -0.484 A  
ENDBRANCH  23  25
ENDBRANCH  22  23
ENDBRANCH   6  22
TORSDOF 4
ENDMDL
MODEL      115
REMARK 921   NORMALIZED FREE ENERGY PREDICTED BY IDOCK:   -4.94 KCAL/MOL
REMARK 922        TOTAL FREE ENERGY PREDICTED BY IDOCK:   -6.65 KCAL/MOL
REMARK 923 INTER-LIGAND FREE ENERGY PREDICTED BY IDOCK:   -6.24 KCAL/MOL
REMARK 924 INTRA-LIGAND FREE ENERGY PREDICTED BY IDOCK:   -0.42 KCAL/MOL
REMARK 927      BINDING AFFINITY PREDICTED BY RF-SCORE:    0.00 PKD
ROOT
HETATM    1  C   UNL     1     -10.544  10.385  68.025  1.00  0.00    -0.221 C  
HETATM    2  O   UNL     1     -11.374  11.251  67.215  1.00  0.00    -0.371 OA 
HETATM    3  C   UNL     1     -10.686  12.452  67.258  1.00  0.00    -0.230 A  
HETATM    4  C   UNL     1     -11.115  13.713  66.935  1.00  0.00    -0.304 A  
HETATM    5  C   UNL     1     -10.109  14.700  66.820  1.00  0.00    -0.266 A  
HETATM    6  C   UNL     1     -10.624   8.912  67.704  1.00  0.00    -0.224 C  
HETATM    7  C   UNL     1     -10.000   8.451  66.591  1.00  0.00    -0.354 C  
HETATM    8  C   UNL     1      -8.717  14.402  66.932  1.00  0.00    -0.218 A  
HETATM    9  C   UNL     1      -8.314  13.111  67.243  1.00  0.00    -0.182 A  
HETATM   10  C   UNL     1      -9.347  12.243  67.546  1.00  0.00    -0.183 A  
HETATM   11  C   UNL     1      -9.102  10.829  67.884  1.00  0.00    -0.150 C  
HETATM   12  C   UNL     1      -8.344  10.733  69.227  1.00  0.00    -0.072 C  
HETATM   13  C   UNL     1      -7.200   9.755  69.114  1.00  0.00    -0.073 C  
HETATM   14  N   UNL     1      -6.263  10.110  68.039  1.00  0.00    -0.056 NA 
HETATM   15  C   UNL     1      -5.565   8.879  67.648  1.00  0.00    -0.039 C  
HETATM   16  C   UNL     1      -6.881  10.851  66.899  1.00  0.00    -0.114 C  
HETATM   17  C   UNL     1      -6.910  12.486  67.156  1.00  0.00    -0.058 C  
HETATM   18  C   UNL     1      -8.332  10.396  66.619  1.00  0.00    -0.127 C  
HETATM   19  C   UNL     1      -8.670   8.995  66.107  1.00  0.00    -0.169 C  
ENDROOT
BRANCH   4  20
HETATM   20  O   UNL     1     -12.399  14.125  66.735  1.00  0.00    -0.438 OA 
HETATM   21  C   UNL     1     -12.946  14.001  65.424  1.00  0.00    -0.310 C  
ENDBRANCH   4  20
BRANCH   6  22
HETATM   22  O   UNL     1     -10.461   8.192  68.956  1.00  0.00    -0.219 OA 
BRANCH  22  23
HETATM   23  C   UNL     1     -10.968   8.620  70.145  1.00  0.00    -0.226 C  
HETATM   24  O   UNL     1     -11.836   9.474  70.301  1.00  0.00    -0.189 OA 
BRANCH  23  25
HETATM   25  C   UNL     1     -10.300   7.929  71.288  1.00  0.00    -0.222 A  
HETATM   26  C   UNL     1     -11.037   7.806  72.478  1.00  0.00    -0.403 A  
HETATM   27  C   UNL     1     -10.464   7.241  73.623  1.00  0.00    -0.391 A  
HETATM   28  C   UNL     1      -9.150   6.782  73.585  1.00  0.00    -0.169 A  
HETATM   29  C   UNL     1      -8.412   6.874  72.404  1.00  0.00    -0.120 A  
HETATM   30  C   UNL     1      -8.984   7.446  71.249  1.00  0.00    -0.140 A  
ENDBRANCH  23  25
ENDBRANCH  22  23
ENDBRANCH   6  22
TORSDOF 4
ENDMDL
MODEL      116
REMARK 921   NORMALIZED FREE ENERGY PREDICTED BY IDOCK:   -4.94 KCAL/MOL
REMARK 922        TOTAL FREE ENERGY PREDICTED BY IDOCK:   -6.65 KCAL/MOL
REMARK 923 INTER-LIGAND FREE ENERGY PREDICTED BY IDOCK:   -6.33 KCAL/MOL
REMARK 924 INTRA-LIGAND FREE ENERGY PREDICTED BY IDOCK:   -0.31 KCAL/MOL
REMARK 927      BINDING AFFINITY PREDICTED BY RF-SCORE:    0.00 PKD
ROOT
HETATM    1  C   UNL     1      -9.965  10.046  69.541  1.00  0.00    -0.228 C  
HETATM    2  O   UNL     1     -11.231  10.456  70.111  1.00  0.00    -0.279 OA 
HETATM    3  C   UNL     1     -11.297  11.795  69.765  1.00  0.00    -0.170 A  
HETATM    4  C   UNL     1     -12.102  12.784  70.265  1.00  0.00    -0.297 A  
HETATM    5  C   UNL     1     -12.133  13.990  69.528  1.00  0.00    -0.397 A  
HETATM    6  C   UNL     1      -9.850   8.586  69.177  1.00  0.00    -0.186 C  
HETATM    7  C   UNL     1     -10.484   8.138  68.064  1.00  0.00    -0.242 C  
HETATM    8  C   UNL     1     -11.453  14.154  68.283  1.00  0.00    -0.335 A  
HETATM    9  C   UNL     1     -10.658  13.127  67.795  1.00  0.00    -0.242 A  
HETATM   10  C   UNL     1     -10.504  12.058  68.659  1.00  0.00    -0.238 A  
HETATM   11  C   UNL     1      -9.706  10.873  68.297  1.00  0.00    -0.171 C  
HETATM   12  C   UNL     1      -8.216  11.260  68.172  1.00  0.00    -0.140 C  
HETATM   13  C   UNL     1      -7.625  10.671  66.914  1.00  0.00    -0.115 C  
HETATM   14  N   UNL     1      -8.351  11.088  65.705  1.00  0.00    -0.135 NA 
HETATM   15  C   UNL     1      -8.093  10.076  64.673  1.00  0.00    -0.155 C  
HETATM   16  C   UNL     1      -9.799  11.384  65.923  1.00  0.00    -0.226 C  
HETATM   17  C   UNL     1     -10.055  12.951  66.390  1.00  0.00    -0.272 C  
HETATM   18  C   UNL     1     -10.431  10.467  66.996  1.00  0.00    -0.304 C  
HETATM   19  C   UNL     1     -10.599   8.961  66.795  1.00  0.00    -0.212 C  
ENDROOT
BRANCH   4  20
HETATM   20  O   UNL     1     -12.856  12.744  71.400  1.00  0.00    -0.370 OA 
HETATM   21  C   UNL     1     -13.167  11.467  71.953  1.00  0.00    -0.374 C  
ENDBRANCH   4  20
BRANCH   6  22
HETATM   22  O   UNL     1      -8.470   8.193  69.413  1.00  0.00    -0.125 OA 
BRANCH  22  23
HETATM   23  C   UNL     1      -8.002   6.929  69.222  1.00  0.00    -0.116 C  
HETATM   24  O   UNL     1      -7.170   6.578  68.390  1.00  0.00    -0.080 OA 
BRANCH  23  25
HETATM   25  C   UNL     1      -8.665   5.970  70.154  1.00  0.00    -0.139 A  
HETATM   26  C   UNL     1      -8.497   6.198  71.530  1.00  0.00    -0.127 A  
HETATM   27  C   UNL     1      -9.020   5.308  72.476  1.00  0.00    -0.134 A  
HETATM   28  C   UNL     1      -9.726   4.185  72.053  1.00  0.00    -0.231 A  
HETATM   29  C   UNL     1      -9.924   3.956  70.690  1.00  0.00    -0.094 A  
HETATM   30  C   UNL     1      -9.396   4.849  69.734  1.00  0.00    -0.200 A  
ENDBRANCH  23  25
ENDBRANCH  22  23
ENDBRANCH   6  22
TORSDOF 4
ENDMDL
MODEL      117
REMARK 921   NORMALIZED FREE ENERGY PREDICTED BY IDOCK:   -4.93 KCAL/MOL
REMARK 922        TOTAL FREE ENERGY PREDICTED BY IDOCK:   -6.64 KCAL/MOL
REMARK 923 INTER-LIGAND FREE ENERGY PREDICTED BY IDOCK:   -5.93 KCAL/MOL
REMARK 924 INTRA-LIGAND FREE ENERGY PREDICTED BY IDOCK:   -0.71 KCAL/MOL
REMARK 927      BINDING AFFINITY PREDICTED BY RF-SCORE:    0.00 PKD
ROOT
HETATM    1  C   UNL     1      -9.444  15.755  66.561  1.00  0.00    -0.272 C  
HETATM    2  O   UNL     1      -9.921  15.170  65.326  1.00  0.00    -0.338 OA 
HETATM    3  C   UNL     1     -10.151  13.853  65.687  1.00  0.00    -0.313 A  
HETATM    4  C   UNL     1     -10.324  12.751  64.891  1.00  0.00    -0.309 A  
HETATM    5  C   UNL     1     -10.811  11.591  65.537  1.00  0.00    -0.313 A  
HETATM    6  C   UNL     1      -9.685  17.236  66.723  1.00  0.00    -0.281 C  
HETATM    7  C   UNL     1     -10.939  17.667  67.014  1.00  0.00     0.065 C  
HETATM    8  C   UNL     1     -11.199  11.575  66.911  1.00  0.00    -0.363 A  
HETATM    9  C   UNL     1     -11.027  12.713  67.686  1.00  0.00    -0.275 A  
HETATM   10  C   UNL     1     -10.357  13.744  67.053  1.00  0.00    -0.260 A  
HETATM   11  C   UNL     1     -10.100  15.033  67.721  1.00  0.00    -0.234 C  
HETATM   12  C   UNL     1      -9.116  14.830  68.895  1.00  0.00    -0.168 C  
HETATM   13  C   UNL     1      -9.611  15.551  70.125  1.00  0.00     0.206 C  
HETATM   14  N   UNL     1     -10.958  15.118  70.524  1.00  0.00    -0.262 NA 
HETATM   15  C   UNL     1     -11.548  16.208  71.312  1.00  0.00    -0.413 C  
HETATM   16  C   UNL     1     -11.816  14.644  69.398  1.00  0.00    -0.329 C  
HETATM   17  C   UNL     1     -11.598  13.034  69.078  1.00  0.00    -0.367 C  
HETATM   18  C   UNL     1     -11.549  15.421  68.088  1.00  0.00    -0.331 C  
HETATM   19  C   UNL     1     -11.878  16.906  67.931  1.00  0.00     0.941 C  
ENDROOT
BRANCH   4  20
HETATM   20  O   UNL     1     -10.060  12.641  63.559  1.00  0.00    -0.392 OA 
HETATM   21  C   UNL     1     -10.173  11.353  62.957  1.00  0.00    -0.263 C  
ENDBRANCH   4  20
BRANCH   6  22
HETATM   22  O   UNL     1      -8.560  17.775  67.469  1.00  0.00    -0.225 OA 
BRANCH  22  23
HETATM   23  C   UNL     1      -7.271  17.380  67.281  1.00  0.00    -0.167 C  
HETATM   24  O   UNL     1      -6.771  17.005  66.224  1.00  0.00    -0.222 OA 
BRANCH  23  25
HETATM   25  C   UNL     1      -6.508  17.426  68.563  1.00  0.00    -0.180 A  
HETATM   26  C   UNL     1      -5.931  16.223  69.005  1.00  0.00    -0.134 A  
HETATM   27  C   UNL     1      -5.262  16.155  70.233  1.00  0.00    -0.164 A  
HETATM   28  C   UNL     1      -5.154  17.294  71.026  1.00  0.00    -0.191 A  
HETATM   29  C   UNL     1      -5.700  18.503  70.591  1.00  0.00    -0.105 A  
HETATM   30  C   UNL     1      -6.377  18.575  69.356  1.00  0.00    -0.271 A  
ENDBRANCH  23  25
ENDBRANCH  22  23
ENDBRANCH   6  22
TORSDOF 4
ENDMDL
MODEL      118
REMARK 921   NORMALIZED FREE ENERGY PREDICTED BY IDOCK:   -4.90 KCAL/MOL
REMARK 922        TOTAL FREE ENERGY PREDICTED BY IDOCK:   -6.61 KCAL/MOL
REMARK 923 INTER-LIGAND FREE ENERGY PREDICTED BY IDOCK:   -6.19 KCAL/MOL
REMARK 924 INTRA-LIGAND FREE ENERGY PREDICTED BY IDOCK:   -0.42 KCAL/MOL
REMARK 927      BINDING AFFINITY PREDICTED BY RF-SCORE:    0.00 PKD
ROOT
HETATM    1  C   UNL     1      -8.257   9.010  68.704  1.00  0.00    -0.118 C  
HETATM    2  O   UNL     1      -7.200   9.073  69.691  1.00  0.00    -0.056 OA 
HETATM    3  C   UNL     1      -7.696   8.283  70.714  1.00  0.00    -0.079 A  
HETATM    4  C   UNL     1      -7.293   8.197  72.021  1.00  0.00    -0.091 A  
HETATM    5  C   UNL     1      -7.809   7.107  72.758  1.00  0.00    -0.100 A  
HETATM    6  C   UNL     1      -7.831   9.211  67.270  1.00  0.00    -0.099 C  
HETATM    7  C   UNL     1      -7.189   8.200  66.632  1.00  0.00    -0.081 C  
HETATM    8  C   UNL     1      -8.622   6.091  72.171  1.00  0.00    -0.128 A  
HETATM    9  C   UNL     1      -8.999   6.198  70.840  1.00  0.00    -0.144 A  
HETATM   10  C   UNL     1      -8.636   7.386  70.233  1.00  0.00    -0.145 A  
HETATM   11  C   UNL     1      -8.942   7.663  68.817  1.00  0.00    -0.133 C  
HETATM   12  C   UNL     1     -10.470   7.783  68.623  1.00  0.00    -0.199 C  
HETATM   13  C   UNL     1     -10.909   6.992  67.415  1.00  0.00    -0.300 C  
HETATM   14  N   UNL     1     -10.529   5.574  67.506  1.00  0.00    -0.217 NA 
HETATM   15  C   UNL     1     -10.476   5.051  66.135  1.00  0.00    -0.286 C  
HETATM   16  C   UNL     1      -9.297   5.313  68.308  1.00  0.00    -0.118 C  
HETATM   17  C   UNL     1      -9.625   5.134  69.921  1.00  0.00    -0.241 C  
HETATM   18  C   UNL     1      -8.253   6.445  68.166  1.00  0.00    -0.116 C  
HETATM   19  C   UNL     1      -7.532   6.739  66.850  1.00  0.00    -0.083 C  
ENDROOT
BRANCH   4  20
HETATM   20  O   UNL     1      -6.472   9.054  72.692  1.00  0.00    -0.287 OA 
HETATM   21  C   UNL     1      -5.334   9.568  72.005  1.00  0.00    -0.072 C  
ENDBRANCH   4  20
BRANCH   6  22
HETATM   22  O   UNL     1      -8.917   9.900  66.593  1.00  0.00    -0.137 OA 
BRANCH  22  23
HETATM   23  C   UNL     1      -8.942  11.244  66.380  1.00  0.00    -0.188 C  
HETATM   24  O   UNL     1      -8.119  12.061  66.784  1.00  0.00    -0.156 OA 
BRANCH  23  25
HETATM   25  C   UNL     1     -10.150  11.636  65.595  1.00  0.00    -0.278 A  
HETATM   26  C   UNL     1     -10.086  11.473  64.201  1.00  0.00    -0.354 A  
HETATM   27  C   UNL     1     -11.142  11.884  63.380  1.00  0.00    -0.463 A  
HETATM   28  C   UNL     1     -12.280  12.452  63.948  1.00  0.00    -0.603 A  
HETATM   29  C   UNL     1     -12.370  12.599  65.333  1.00  0.00    -0.499 A  
HETATM   30  C   UNL     1     -11.307  12.189  66.163  1.00  0.00    -0.414 A  
ENDBRANCH  23  25
ENDBRANCH  22  23
ENDBRANCH   6  22
TORSDOF 4
ENDMDL
MODEL      119
REMARK 921   NORMALIZED FREE ENERGY PREDICTED BY IDOCK:   -4.87 KCAL/MOL
REMARK 922        TOTAL FREE ENERGY PREDICTED BY IDOCK:   -6.57 KCAL/MOL
REMARK 923 INTER-LIGAND FREE ENERGY PREDICTED BY IDOCK:   -5.79 KCAL/MOL
REMARK 924 INTRA-LIGAND FREE ENERGY PREDICTED BY IDOCK:   -0.78 KCAL/MOL
REMARK 927      BINDING AFFINITY PREDICTED BY RF-SCORE:    0.00 PKD
ROOT
HETATM    1  C   UNL     1     -10.426   8.767  70.266  1.00  0.00    -0.208 C  
HETATM    2  O   UNL     1     -11.573   9.636  70.424  1.00  0.00    -0.258 OA 
HETATM    3  C   UNL     1     -11.329  10.628  69.489  1.00  0.00    -0.277 A  
HETATM    4  C   UNL     1     -11.894  11.871  69.371  1.00  0.00    -0.327 A  
HETATM    5  C   UNL     1     -11.641  12.555  68.160  1.00  0.00    -0.390 A  
HETATM    6  C   UNL     1     -10.642   7.321  70.640  1.00  0.00    -0.226 C  
HETATM    7  C   UNL     1     -11.347   6.526  69.796  1.00  0.00    -0.456 C  
HETATM    8  C   UNL     1     -10.925  11.966  67.074  1.00  0.00    -0.326 A  
HETATM    9  C   UNL     1     -10.379  10.699  67.219  1.00  0.00    -0.265 A  
HETATM   10  C   UNL     1     -10.483  10.169  68.492  1.00  0.00    -0.221 A  
HETATM   11  C   UNL     1      -9.971   8.827  68.822  1.00  0.00    -0.197 C  
HETATM   12  C   UNL     1      -8.430   8.810  68.710  1.00  0.00    -0.129 C  
HETATM   13  C   UNL     1      -7.973   7.587  67.952  1.00  0.00    -0.119 C  
HETATM   14  N   UNL     1      -8.570   7.505  66.611  1.00  0.00    -0.125 NA 
HETATM   15  C   UNL     1      -8.535   6.093  66.207  1.00  0.00    -0.132 C  
HETATM   16  C   UNL     1      -9.915   8.142  66.491  1.00  0.00    -0.232 C  
HETATM   17  C   UNL     1      -9.814   9.757  66.141  1.00  0.00    -0.329 C  
HETATM   18  C   UNL     1     -10.752   7.995  67.782  1.00  0.00    -0.174 C  
HETATM   19  C   UNL     1     -11.256   6.642  68.286  1.00  0.00    -0.208 C  
ENDROOT
BRANCH   4  20
HETATM   20  O   UNL     1     -12.652  12.527  70.295  1.00  0.00    -0.106 OA 
HETATM   21  C   UNL     1     -12.151  13.754  70.823  1.00  0.00    -0.319 C  
ENDBRANCH   4  20
BRANCH   6  22
HETATM   22  O   UNL     1      -9.391   6.830  71.195  1.00  0.00    -0.159 OA 
BRANCH  22  23
HETATM   23  C   UNL     1      -9.302   5.751  72.020  1.00  0.00    -0.150 C  
HETATM   24  O   UNL     1     -10.210   5.273  72.694  1.00  0.00    -0.172 OA 
BRANCH  23  25
HETATM   25  C   UNL     1      -7.911   5.209  72.040  1.00  0.00    -0.112 A  
HETATM   26  C   UNL     1      -7.120   5.440  70.902  1.00  0.00    -0.064 A  
HETATM   27  C   UNL     1      -5.831   4.905  70.801  1.00  0.00    -0.017 A  
HETATM   28  C   UNL     1      -5.315   4.142  71.846  1.00  0.00     0.000 A  
HETATM   29  C   UNL     1      -6.078   3.925  72.995  1.00  0.00    -0.012 A  
HETATM   30  C   UNL     1      -7.379   4.459  73.098  1.00  0.00    -0.076 A  
ENDBRANCH  23  25
ENDBRANCH  22  23
ENDBRANCH   6  22
TORSDOF 4
ENDMDL
MODEL      120
REMARK 921   NORMALIZED FREE ENERGY PREDICTED BY IDOCK:   -4.86 KCAL/MOL
REMARK 922        TOTAL FREE ENERGY PREDICTED BY IDOCK:   -6.55 KCAL/MOL
REMARK 923 INTER-LIGAND FREE ENERGY PREDICTED BY IDOCK:   -5.66 KCAL/MOL
REMARK 924 INTRA-LIGAND FREE ENERGY PREDICTED BY IDOCK:   -0.89 KCAL/MOL
REMARK 927      BINDING AFFINITY PREDICTED BY RF-SCORE:    0.00 PKD
ROOT
HETATM    1  C   UNL     1      -9.018   7.940  67.562  1.00  0.00    -0.127 C  
HETATM    2  O   UNL     1      -9.206   8.537  66.257  1.00  0.00    -0.179 OA 
HETATM    3  C   UNL     1      -8.014   8.242  65.618  1.00  0.00    -0.113 A  
HETATM    4  C   UNL     1      -7.478   8.787  64.480  1.00  0.00    -0.106 A  
HETATM    5  C   UNL     1      -6.380   8.097  63.919  1.00  0.00    -0.067 A  
HETATM    6  C   UNL     1     -10.277   7.520  68.280  1.00  0.00    -0.186 C  
HETATM    7  C   UNL     1     -10.920   6.397  67.870  1.00  0.00    -0.416 C  
HETATM    8  C   UNL     1      -5.904   6.852  64.433  1.00  0.00    -0.036 A  
HETATM    9  C   UNL     1      -6.478   6.318  65.577  1.00  0.00    -0.039 A  
HETATM   10  C   UNL     1      -7.404   7.139  66.194  1.00  0.00    -0.075 A  
HETATM   11  C   UNL     1      -8.123   6.725  67.412  1.00  0.00    -0.118 C  
HETATM   12  C   UNL     1      -7.133   6.599  68.591  1.00  0.00    -0.083 C  
HETATM   13  C   UNL     1      -7.375   5.314  69.344  1.00  0.00    -0.061 C  
HETATM   14  N   UNL     1      -7.273   4.130  68.480  1.00  0.00    -0.055 NA 
HETATM   15  C   UNL     1      -8.046   3.058  69.119  1.00  0.00    -0.055 C  
HETATM   16  C   UNL     1      -7.631   4.373  67.050  1.00  0.00    -0.085 C  
HETATM   17  C   UNL     1      -6.337   4.901  66.162  1.00  0.00    -0.036 C  
HETATM   18  C   UNL     1      -8.761   5.417  66.897  1.00  0.00    -0.112 C  
HETATM   19  C   UNL     1     -10.188   5.161  67.383  1.00  0.00    -0.224 C  
ENDROOT
BRANCH   4  20
HETATM   20  O   UNL     1      -7.870   9.928  63.844  1.00  0.00    -0.137 OA 
HETATM   21  C   UNL     1      -8.906   9.829  62.868  1.00  0.00    -0.250 C  
ENDBRANCH   4  20
BRANCH   6  22
HETATM   22  O   UNL     1     -10.050   7.726  69.701  1.00  0.00    -0.187 OA 
BRANCH  22  23
HETATM   23  C   UNL     1     -10.658   6.998  70.677  1.00  0.00    -0.225 C  
HETATM   24  O   UNL     1     -10.276   5.922  71.127  1.00  0.00    -0.198 OA 
BRANCH  23  25
HETATM   25  C   UNL     1     -11.913   7.665  71.135  1.00  0.00    -0.319 A  
HETATM   26  C   UNL     1     -13.084   6.889  71.137  1.00  0.00    -0.202 A  
HETATM   27  C   UNL     1     -14.320   7.451  71.479  1.00  0.00    -0.594 A  
HETATM   28  C   UNL     1     -14.392   8.796  71.834  1.00  0.00    -0.441 A  
HETATM   29  C   UNL     1     -13.235   9.575  71.862  1.00  0.00    -0.524 A  
HETATM   30  C   UNL     1     -11.989   9.012  71.515  1.00  0.00    -0.414 A  
ENDBRANCH  23  25
ENDBRANCH  22  23
ENDBRANCH   6  22
TORSDOF 4
ENDMDL
MODEL      121
REMARK 921   NORMALIZED FREE ENERGY PREDICTED BY IDOCK:   -4.79 KCAL/MOL
REMARK 922        TOTAL FREE ENERGY PREDICTED BY IDOCK:   -6.47 KCAL/MOL
REMARK 923 INTER-LIGAND FREE ENERGY PREDICTED BY IDOCK:   -5.68 KCAL/MOL
REMARK 924 INTRA-LIGAND FREE ENERGY PREDICTED BY IDOCK:   -0.78 KCAL/MOL
REMARK 927      BINDING AFFINITY PREDICTED BY RF-SCORE:    0.00 PKD
ROOT
HETATM    1  C   UNL     1      -9.394   8.191  68.753  1.00  0.00    -0.143 C  
HETATM    2  O   UNL     1      -9.352   7.155  69.763  1.00  0.00    -0.148 OA 
HETATM    3  C   UNL     1      -9.500   6.000  69.015  1.00  0.00    -0.127 A  
HETATM    4  C   UNL     1      -9.832   4.735  69.424  1.00  0.00    -0.212 A  
HETATM    5  C   UNL     1      -9.642   3.706  68.473  1.00  0.00    -0.163 A  
HETATM    6  C   UNL     1      -8.664   9.468  69.091  1.00  0.00    -0.146 C  
HETATM    7  C   UNL     1      -7.308   9.481  69.034  1.00  0.00    -0.072 C  
HETATM    8  C   UNL     1      -9.048   3.934  67.194  1.00  0.00    -0.174 A  
HETATM    9  C   UNL     1      -8.708   5.225  66.816  1.00  0.00    -0.112 A  
HETATM   10  C   UNL     1      -9.108   6.208  67.702  1.00  0.00    -0.109 A  
HETATM   11  C   UNL     1      -8.816   7.634  67.467  1.00  0.00    -0.124 C  
HETATM   12  C   UNL     1      -9.594   8.134  66.230  1.00  0.00    -0.248 C  
HETATM   13  C   UNL     1      -8.688   8.940  65.331  1.00  0.00    -0.191 C  
HETATM   14  N   UNL     1      -7.505   8.180  64.901  1.00  0.00    -0.087 NA 
HETATM   15  C   UNL     1      -6.469   9.157  64.544  1.00  0.00    -0.075 C  
HETATM   16  C   UNL     1      -7.054   7.135  65.869  1.00  0.00    -0.069 C  
HETATM   17  C   UNL     1      -7.832   5.692  65.640  1.00  0.00    -0.099 C  
HETATM   18  C   UNL     1      -7.279   7.560  67.338  1.00  0.00    -0.087 C  
HETATM   19  C   UNL     1      -6.521   8.720  67.984  1.00  0.00    -0.057 C  
ENDROOT
BRANCH   4  20
HETATM   20  O   UNL     1     -10.344   4.362  70.631  1.00  0.00    -0.110 OA 
HETATM   21  C   UNL     1      -9.478   3.701  71.551  1.00  0.00    -0.150 C  
ENDBRANCH   4  20
BRANCH   6  22
HETATM   22  O   UNL     1      -9.408  10.560  68.486  1.00  0.00    -0.154 OA 
BRANCH  22  23
HETATM   23  C   UNL     1     -10.668  10.915  68.862  1.00  0.00    -0.215 C  
HETATM   24  O   UNL     1     -11.295  10.469  69.819  1.00  0.00    -0.257 OA 
BRANCH  23  25
HETATM   25  C   UNL     1     -11.238  11.927  67.924  1.00  0.00    -0.325 A  
HETATM   26  C   UNL     1     -11.276  11.583  66.562  1.00  0.00    -0.324 A  
HETATM   27  C   UNL     1     -11.724  12.498  65.601  1.00  0.00    -0.473 A  
HETATM   28  C   UNL     1     -12.150  13.763  65.997  1.00  0.00    -0.470 A  
HETATM   29  C   UNL     1     -12.142  14.112  67.349  1.00  0.00    -0.379 A  
HETATM   30  C   UNL     1     -11.688  13.194  68.319  1.00  0.00    -0.384 A  
ENDBRANCH  23  25
ENDBRANCH  22  23
ENDBRANCH   6  22
TORSDOF 4
ENDMDL
MODEL      122
REMARK 921   NORMALIZED FREE ENERGY PREDICTED BY IDOCK:   -4.76 KCAL/MOL
REMARK 922        TOTAL FREE ENERGY PREDICTED BY IDOCK:   -6.43 KCAL/MOL
REMARK 923 INTER-LIGAND FREE ENERGY PREDICTED BY IDOCK:   -5.52 KCAL/MOL
REMARK 924 INTRA-LIGAND FREE ENERGY PREDICTED BY IDOCK:   -0.91 KCAL/MOL
REMARK 927      BINDING AFFINITY PREDICTED BY RF-SCORE:    0.00 PKD
ROOT
HETATM    1  C   UNL     1      -8.365   6.986  67.413  1.00  0.00    -0.122 C  
HETATM    2  O   UNL     1      -7.874   5.877  66.624  1.00  0.00    -0.099 OA 
HETATM    3  C   UNL     1      -7.197   5.116  67.562  1.00  0.00    -0.071 A  
HETATM    4  C   UNL     1      -6.282   4.114  67.374  1.00  0.00    -0.036 A  
HETATM    5  C   UNL     1      -5.966   3.340  68.514  1.00  0.00    -0.024 A  
HETATM    6  C   UNL     1      -9.618   7.654  66.901  1.00  0.00    -0.193 C  
HETATM    7  C   UNL     1     -10.808   7.024  67.065  1.00  0.00    -0.413 C  
HETATM    8  C   UNL     1      -6.623   3.511  69.771  1.00  0.00    -0.033 A  
HETATM    9  C   UNL     1      -7.557   4.524  69.925  1.00  0.00    -0.054 A  
HETATM   10  C   UNL     1      -7.669   5.374  68.839  1.00  0.00    -0.083 A  
HETATM   11  C   UNL     1      -8.625   6.496  68.824  1.00  0.00    -0.121 C  
HETATM   12  C   UNL     1      -8.215   7.550  69.877  1.00  0.00    -0.131 C  
HETATM   13  C   UNL     1      -9.418   7.985  70.679  1.00  0.00    -0.162 C  
HETATM   14  N   UNL     1     -10.088   6.856  71.340  1.00  0.00    -0.186 NA 
HETATM   15  C   UNL     1     -11.477   7.263  71.589  1.00  0.00    -0.265 C  
HETATM   16  C   UNL     1      -9.952   5.551  70.627  1.00  0.00    -0.207 C  
HETATM   17  C   UNL     1      -8.574   4.741  71.059  1.00  0.00    -0.126 C  
HETATM   18  C   UNL     1      -9.932   5.720  69.090  1.00  0.00    -0.232 C  
HETATM   19  C   UNL     1     -11.146   6.212  68.301  1.00  0.00    -0.336 C  
ENDROOT
BRANCH   4  20
HETATM   20  O   UNL     1      -5.628   3.796  66.221  1.00  0.00    -0.016 OA 
HETATM   21  C   UNL     1      -6.344   3.073  65.222  1.00  0.00    -0.028 C  
ENDBRANCH   4  20
BRANCH   6  22
HETATM   22  O   UNL     1      -9.514   9.067  67.226  1.00  0.00    -0.142 OA 
BRANCH  22  23
HETATM   23  C   UNL     1     -10.267  10.035  66.636  1.00  0.00    -0.223 C  
HETATM   24  O   UNL     1     -10.477  10.162  65.432  1.00  0.00    -0.197 OA 
BRANCH  23  25
HETATM   25  C   UNL     1     -10.805  10.985  67.653  1.00  0.00    -0.306 A  
HETATM   26  C   UNL     1     -10.928  10.509  68.969  1.00  0.00    -0.289 A  
HETATM   27  C   UNL     1     -11.493  11.304  69.973  1.00  0.00    -0.359 A  
HETATM   28  C   UNL     1     -11.930  12.591  69.671  1.00  0.00    -0.339 A  
HETATM   29  C   UNL     1     -11.794  13.089  68.374  1.00  0.00    -0.370 A  
HETATM   30  C   UNL     1     -11.228  12.289  67.360  1.00  0.00    -0.358 A  
ENDBRANCH  23  25
ENDBRANCH  22  23
ENDBRANCH   6  22
TORSDOF 4
ENDMDL
MODEL      123
REMARK 921   NORMALIZED FREE ENERGY PREDICTED BY IDOCK:   -4.76 KCAL/MOL
REMARK 922        TOTAL FREE ENERGY PREDICTED BY IDOCK:   -6.43 KCAL/MOL
REMARK 923 INTER-LIGAND FREE ENERGY PREDICTED BY IDOCK:   -5.71 KCAL/MOL
REMARK 924 INTRA-LIGAND FREE ENERGY PREDICTED BY IDOCK:   -0.72 KCAL/MOL
REMARK 927      BINDING AFFINITY PREDICTED BY RF-SCORE:    0.00 PKD
ROOT
HETATM    1  C   UNL     1     -10.930  12.278  69.709  1.00  0.00     0.281 C  
HETATM    2  O   UNL     1     -11.852  13.302  70.154  1.00  0.00    -0.312 OA 
HETATM    3  C   UNL     1     -11.249  14.464  69.703  1.00  0.00    -0.232 A  
HETATM    4  C   UNL     1     -11.485  15.764  70.069  1.00  0.00    -0.356 A  
HETATM    5  C   UNL     1     -10.907  16.754  69.242  1.00  0.00    -0.275 A  
HETATM    6  C   UNL     1     -11.531  10.915  69.466  1.00  0.00    -0.301 C  
HETATM    7  C   UNL     1     -12.273  10.717  68.348  1.00  0.00     0.421 C  
HETATM    8  C   UNL     1     -10.200  16.444  68.040  1.00  0.00    -0.264 A  
HETATM    9  C   UNL     1      -9.993  15.117  67.689  1.00  0.00    -0.229 A  
HETATM   10  C   UNL     1     -10.401  14.200  68.641  1.00  0.00    -0.243 A  
HETATM   11  C   UNL     1     -10.270  12.747  68.428  1.00  0.00    -0.237 C  
HETATM   12  C   UNL     1      -8.777  12.354  68.380  1.00  0.00    -0.132 C  
HETATM   13  C   UNL     1      -8.515  11.430  67.216  1.00  0.00    -0.148 C  
HETATM   14  N   UNL     1      -8.916  12.021  65.930  1.00  0.00    -0.044 NA 
HETATM   15  C   UNL     1      -9.155  10.911  64.999  1.00  0.00    -0.190 C  
HETATM   16  C   UNL     1     -10.042  12.997  66.021  1.00  0.00    -0.284 C  
HETATM   17  C   UNL     1      -9.516  14.532  66.349  1.00  0.00    -0.316 C  
HETATM   18  C   UNL     1     -11.067  12.612  67.112  1.00  0.00    -0.321 C  
HETATM   19  C   UNL     1     -11.942  11.361  67.015  1.00  0.00     0.444 C  
ENDROOT
BRANCH   4  20
HETATM   20  O   UNL     1     -12.192  16.207  71.147  1.00  0.00    -0.381 OA 
HETATM   21  C   UNL     1     -11.696  15.895  72.447  1.00  0.00    -0.477 C  
ENDBRANCH   4  20
BRANCH   6  22
HETATM   22  O   UNL     1     -10.523   9.932  69.829  1.00  0.00    -0.224 OA 
BRANCH  22  23
HETATM   23  C   UNL     1     -10.781   8.829  70.584  1.00  0.00    -0.225 C  
HETATM   24  O   UNL     1     -11.173   8.819  71.748  1.00  0.00    -0.292 OA 
BRANCH  23  25
HETATM   25  C   UNL     1     -10.491   7.580  69.819  1.00  0.00    -0.232 A  
HETATM   26  C   UNL     1     -10.713   7.615  68.433  1.00  0.00    -0.098 A  
HETATM   27  C   UNL     1     -10.540   6.469  67.647  1.00  0.00    -0.332 A  
HETATM   28  C   UNL     1     -10.131   5.278  68.242  1.00  0.00    -0.219 A  
HETATM   29  C   UNL     1      -9.881   5.233  69.615  1.00  0.00    -0.275 A  
HETATM   30  C   UNL     1     -10.058   6.384  70.410  1.00  0.00    -0.221 A  
ENDBRANCH  23  25
ENDBRANCH  22  23
ENDBRANCH   6  22
TORSDOF 4
ENDMDL
MODEL      124
REMARK 921   NORMALIZED FREE ENERGY PREDICTED BY IDOCK:   -4.75 KCAL/MOL
REMARK 922        TOTAL FREE ENERGY PREDICTED BY IDOCK:   -6.42 KCAL/MOL
REMARK 923 INTER-LIGAND FREE ENERGY PREDICTED BY IDOCK:   -5.38 KCAL/MOL
REMARK 924 INTRA-LIGAND FREE ENERGY PREDICTED BY IDOCK:   -1.04 KCAL/MOL
REMARK 927      BINDING AFFINITY PREDICTED BY RF-SCORE:    0.00 PKD
ROOT
HETATM    1  C   UNL     1      -9.825   7.828  68.376  1.00  0.00    -0.168 C  
HETATM    2  O   UNL     1     -10.040   9.049  69.122  1.00  0.00    -0.184 OA 
HETATM    3  C   UNL     1     -10.629   8.588  70.288  1.00  0.00    -0.226 A  
HETATM    4  C   UNL     1     -11.324   9.281  71.245  1.00  0.00    -0.353 A  
HETATM    5  C   UNL     1     -11.570   8.591  72.454  1.00  0.00    -0.425 A  
HETATM    6  C   UNL     1      -8.686   7.855  67.386  1.00  0.00    -0.128 C  
HETATM    7  C   UNL     1      -7.414   7.783  67.851  1.00  0.00    -0.104 C  
HETATM    8  C   UNL     1     -11.050   7.289  72.721  1.00  0.00    -0.362 A  
HETATM    9  C   UNL     1     -10.336   6.620  71.737  1.00  0.00    -0.218 A  
HETATM   10  C   UNL     1     -10.307   7.260  70.512  1.00  0.00    -0.215 A  
HETATM   11  C   UNL     1      -9.581   6.699  69.358  1.00  0.00    -0.148 C  
HETATM   12  C   UNL     1     -10.255   5.388  68.897  1.00  0.00    -0.266 C  
HETATM   13  C   UNL     1      -9.217   4.319  68.662  1.00  0.00    -0.140 C  
HETATM   14  N   UNL     1      -8.396   4.063  69.854  1.00  0.00    -0.060 NA 
HETATM   15  C   UNL     1      -7.130   3.480  69.392  1.00  0.00    -0.042 C  
HETATM   16  C   UNL     1      -8.233   5.241  70.759  1.00  0.00    -0.110 C  
HETATM   17  C   UNL     1      -9.463   5.359  71.861  1.00  0.00    -0.176 C  
HETATM   18  C   UNL     1      -8.173   6.575  69.980  1.00  0.00    -0.130 C  
HETATM   19  C   UNL     1      -7.020   6.929  69.041  1.00  0.00    -0.082 C  
ENDROOT
BRANCH   4  20
HETATM   20  O   UNL     1     -11.822  10.547  71.153  1.00  0.00    -0.346 OA 
HETATM   21  C   UNL     1     -13.059  10.829  71.804  1.00  0.00    -0.468 C  
ENDBRANCH   4  20
BRANCH   6  22
HETATM   22  O   UNL     1      -9.077   7.023  66.260  1.00  0.00    -0.162 OA 
BRANCH  22  23
HETATM   23  C   UNL     1      -8.199   6.539  65.338  1.00  0.00    -0.135 C  
HETATM   24  O   UNL     1      -7.401   7.198  64.677  1.00  0.00    -0.068 OA 
BRANCH  23  25
HETATM   25  C   UNL     1      -8.344   5.061  65.189  1.00  0.00    -0.138 A  
HETATM   26  C   UNL     1      -7.162   4.302  65.179  1.00  0.00    -0.071 A  
HETATM   27  C   UNL     1      -7.198   2.918  64.969  1.00  0.00    -0.066 A  
HETATM   28  C   UNL     1      -8.420   2.279  64.778  1.00  0.00    -0.091 A  
HETATM   29  C   UNL     1      -9.606   3.015  64.810  1.00  0.00    -0.121 A  
HETATM   30  C   UNL     1      -9.574   4.409  65.018  1.00  0.00    -0.175 A  
ENDBRANCH  23  25
ENDBRANCH  22  23
ENDBRANCH   6  22
TORSDOF 4
ENDMDL
MODEL      125
REMARK 921   NORMALIZED FREE ENERGY PREDICTED BY IDOCK:   -4.74 KCAL/MOL
REMARK 922        TOTAL FREE ENERGY PREDICTED BY IDOCK:   -6.40 KCAL/MOL
REMARK 923 INTER-LIGAND FREE ENERGY PREDICTED BY IDOCK:   -5.56 KCAL/MOL
REMARK 924 INTRA-LIGAND FREE ENERGY PREDICTED BY IDOCK:   -0.83 KCAL/MOL
REMARK 927      BINDING AFFINITY PREDICTED BY RF-SCORE:    0.00 PKD
ROOT
HETATM    1  C   UNL     1      -9.217  11.638  67.027  1.00  0.00    -0.183 C  
HETATM    2  O   UNL     1      -8.978  11.363  65.626  1.00  0.00    -0.198 OA 
HETATM    3  C   UNL     1      -8.227  10.201  65.672  1.00  0.00    -0.150 A  
HETATM    4  C   UNL     1      -7.457   9.622  64.697  1.00  0.00    -0.123 A  
HETATM    5  C   UNL     1      -7.028   8.299  64.949  1.00  0.00    -0.074 A  
HETATM    6  C   UNL     1     -10.469  12.422  67.338  1.00  0.00    -0.215 C  
HETATM    7  C   UNL     1     -11.669  11.792  67.267  1.00  0.00    -0.293 C  
HETATM    8  C   UNL     1      -7.440   7.558  66.097  1.00  0.00    -0.083 A  
HETATM    9  C   UNL     1      -8.233   8.167  67.060  1.00  0.00    -0.115 A  
HETATM   10  C   UNL     1      -8.446   9.518  66.858  1.00  0.00    -0.128 A  
HETATM   11  C   UNL     1      -9.278  10.320  67.773  1.00  0.00    -0.149 C  
HETATM   12  C   UNL     1      -8.595  10.417  69.156  1.00  0.00    -0.169 C  
HETATM   13  C   UNL     1      -9.596  10.152  70.254  1.00  0.00     0.126 C  
HETATM   14  N   UNL     1     -10.248   8.842  70.113  1.00  0.00    -0.188 NA 
HETATM   15  C   UNL     1     -11.529   8.917  70.829  1.00  0.00    -0.275 C  
HETATM   16  C   UNL     1     -10.362   8.355  68.706  1.00  0.00    -0.206 C  
HETATM   17  C   UNL     1      -9.015   7.525  68.219  1.00  0.00    -0.130 C  
HETATM   18  C   UNL     1     -10.589   9.508  67.701  1.00  0.00    -0.329 C  
HETATM   19  C   UNL     1     -11.867  10.348  67.688  1.00  0.00     0.955 C  
ENDROOT
BRANCH   4  20
HETATM   20  O   UNL     1      -7.044  10.185  63.526  1.00  0.00    -0.131 OA 
HETATM   21  C   UNL     1      -6.098   9.467  62.735  1.00  0.00    -0.098 C  
ENDBRANCH   4  20
BRANCH   6  22
HETATM   22  O   UNL     1     -10.176  13.259  68.490  1.00  0.00    -0.239 OA 
BRANCH  22  23
HETATM   23  C   UNL     1     -10.781  14.454  68.728  1.00  0.00    -0.252 C  
HETATM   24  O   UNL     1     -10.584  15.504  68.122  1.00  0.00    -0.253 OA 
BRANCH  23  25
HETATM   25  C   UNL     1     -11.727  14.352  69.878  1.00  0.00    -0.363 A  
HETATM   26  C   UNL     1     -11.936  13.073  70.420  1.00  0.00    -0.337 A  
HETATM   27  C   UNL     1     -12.863  12.870  71.450  1.00  0.00    -0.377 A  
HETATM   28  C   UNL     1     -13.581  13.950  71.956  1.00  0.00    -0.566 A  
HETATM   29  C   UNL     1     -13.368  15.232  71.446  1.00  0.00    -0.573 A  
HETATM   30  C   UNL     1     -12.438  15.439  70.406  1.00  0.00    -0.447 A  
ENDBRANCH  23  25
ENDBRANCH  22  23
ENDBRANCH   6  22
TORSDOF 4
ENDMDL
MODEL      126
REMARK 921   NORMALIZED FREE ENERGY PREDICTED BY IDOCK:   -4.73 KCAL/MOL
REMARK 922        TOTAL FREE ENERGY PREDICTED BY IDOCK:   -6.39 KCAL/MOL
REMARK 923 INTER-LIGAND FREE ENERGY PREDICTED BY IDOCK:   -5.67 KCAL/MOL
REMARK 924 INTRA-LIGAND FREE ENERGY PREDICTED BY IDOCK:   -0.71 KCAL/MOL
REMARK 927      BINDING AFFINITY PREDICTED BY RF-SCORE:    0.00 PKD
ROOT
HETATM    1  C   UNL     1      -8.870   9.425  66.624  1.00  0.00    -0.135 C  
HETATM    2  O   UNL     1      -9.131   8.546  65.504  1.00  0.00    -0.175 OA 
HETATM    3  C   UNL     1      -8.124   7.602  65.622  1.00  0.00    -0.127 A  
HETATM    4  C   UNL     1      -7.669   6.696  64.701  1.00  0.00    -0.112 A  
HETATM    5  C   UNL     1      -6.817   5.683  65.196  1.00  0.00    -0.052 A  
HETATM    6  C   UNL     1     -10.067  10.163  67.173  1.00  0.00    -0.209 C  
HETATM    7  C   UNL     1     -10.964   9.483  67.929  1.00  0.00    -0.172 C  
HETATM    8  C   UNL     1      -6.516   5.535  66.584  1.00  0.00    -0.050 A  
HETATM    9  C   UNL     1      -7.006   6.460  67.495  1.00  0.00    -0.078 A  
HETATM   10  C   UNL     1      -7.657   7.539  66.925  1.00  0.00    -0.102 A  
HETATM   11  C   UNL     1      -8.255   8.609  67.744  1.00  0.00    -0.118 C  
HETATM   12  C   UNL     1      -7.144   9.395  68.476  1.00  0.00    -0.071 C  
HETATM   13  C   UNL     1      -7.513   9.598  69.925  1.00  0.00    -0.127 C  
HETATM   14  N   UNL     1      -7.766   8.328  70.622  1.00  0.00    -0.079 NA 
HETATM   15  C   UNL     1      -8.626   8.630  71.773  1.00  0.00    -0.173 C  
HETATM   16  C   UNL     1      -8.277   7.232  69.746  1.00  0.00    -0.130 C  
HETATM   17  C   UNL     1      -7.053   6.378  69.031  1.00  0.00    -0.081 C  
HETATM   18  C   UNL     1      -9.199   7.759  68.622  1.00  0.00    -0.138 C  
HETATM   19  C   UNL     1     -10.561   8.393  68.905  1.00  0.00    -0.162 C  
ENDROOT
BRANCH   4  20
HETATM   20  O   UNL     1      -7.926   6.675  63.362  1.00  0.00    -0.117 OA 
HETATM   21  C   UNL     1      -6.868   7.020  62.471  1.00  0.00    -0.052 C  
ENDBRANCH   4  20
BRANCH   6  22
HETATM   22  O   UNL     1      -9.598  11.462  67.627  1.00  0.00    -0.166 OA 
BRANCH  22  23
HETATM   23  C   UNL     1      -9.482  12.549  66.817  1.00  0.00    -0.231 C  
HETATM   24  O   UNL     1      -8.677  13.468  66.941  1.00  0.00    -0.213 OA 
BRANCH  23  25
HETATM   25  C   UNL     1     -10.509  12.517  65.733  1.00  0.00    -0.296 A  
HETATM   26  C   UNL     1     -10.043  12.359  64.417  1.00  0.00    -0.293 A  
HETATM   27  C   UNL     1     -10.926  12.392  63.332  1.00  0.00    -0.442 A  
HETATM   28  C   UNL     1     -12.289  12.573  63.555  1.00  0.00    -0.623 A  
HETATM   29  C   UNL     1     -12.772  12.706  64.858  1.00  0.00    -0.450 A  
HETATM   30  C   UNL     1     -11.884  12.676  65.953  1.00  0.00    -0.499 A  
ENDBRANCH  23  25
ENDBRANCH  22  23
ENDBRANCH   6  22
TORSDOF 4
ENDMDL
MODEL      127
REMARK 921   NORMALIZED FREE ENERGY PREDICTED BY IDOCK:   -4.69 KCAL/MOL
REMARK 922        TOTAL FREE ENERGY PREDICTED BY IDOCK:   -6.34 KCAL/MOL
REMARK 923 INTER-LIGAND FREE ENERGY PREDICTED BY IDOCK:   -7.32 KCAL/MOL
REMARK 924 INTRA-LIGAND FREE ENERGY PREDICTED BY IDOCK:    0.98 KCAL/MOL
REMARK 927      BINDING AFFINITY PREDICTED BY RF-SCORE:    0.00 PKD
ROOT
HETATM    1  C   UNL     1      -7.749  15.519  66.498  1.00  0.00     0.224 C  
HETATM    2  O   UNL     1      -6.602  16.399  66.441  1.00  0.00    -0.181 OA 
HETATM    3  C   UNL     1      -7.186  17.643  66.275  1.00  0.00    -0.307 A  
HETATM    4  C   UNL     1      -6.620  18.822  65.864  1.00  0.00    -0.247 A  
HETATM    5  C   UNL     1      -7.403  19.984  66.051  1.00  0.00    -0.325 A  
HETATM    6  C   UNL     1      -7.556  14.237  67.271  1.00  0.00    -0.092 C  
HETATM    7  C   UNL     1      -7.540  14.286  68.626  1.00  0.00    -0.126 C  
HETATM    8  C   UNL     1      -8.667  19.966  66.716  1.00  0.00    -0.407 A  
HETATM    9  C   UNL     1      -9.205  18.758  67.135  1.00  0.00    -0.301 A  
HETATM   10  C   UNL     1      -8.491  17.642  66.740  1.00  0.00    -0.274 A  
HETATM   11  C   UNL     1      -8.909  16.278  67.110  1.00  0.00    -0.212 C  
HETATM   12  C   UNL     1     -10.246  15.931  66.417  1.00  0.00    -0.311 C  
HETATM   13  C   UNL     1     -11.199  15.300  67.402  1.00  0.00    -0.311 C  
HETATM   14  N   UNL     1     -11.452  16.161  68.567  1.00  0.00    -0.369 NA 
HETATM   15  C   UNL     1     -11.887  15.288  69.665  1.00  0.00    -0.339 C  
HETATM   16  C   UNL     1     -10.323  17.072  68.921  1.00  0.00    -0.337 C  
HETATM   17  C   UNL     1     -10.386  18.501  68.087  1.00  0.00    -0.391 C  
HETATM   18  C   UNL     1      -8.943  16.432  68.646  1.00  0.00    -0.233 C  
HETATM   19  C   UNL     1      -8.427  15.222  69.426  1.00  0.00    -0.231 C  
ENDROOT
BRANCH   4  20
HETATM   20  O   UNL     1      -5.402  18.996  65.277  1.00  0.00    -0.152 OA 
HETATM   21  C   UNL     1      -5.288  18.739  63.879  1.00  0.00    -0.148 C  
ENDBRANCH   4  20
BRANCH   6  22
HETATM   22  O   UNL     1      -8.350  13.214  66.609  1.00  0.00     0.005 OA 
BRANCH  22  23
HETATM   23  C   UNL     1      -9.390  12.565  67.200  1.00  0.00    -0.201 C  
HETATM   24  O   UNL     1      -9.414  12.118  68.343  1.00  0.00    -0.208 OA 
BRANCH  23  25
HETATM   25  C   UNL     1     -10.536  12.424  66.253  1.00  0.00    -0.271 A  
HETATM   26  C   UNL     1     -10.260  11.859  64.997  1.00  0.00    -0.316 A  
HETATM   27  C   UNL     1     -11.256  11.756  64.019  1.00  0.00    -0.461 A  
HETATM   28  C   UNL     1     -12.544  12.209  64.295  1.00  0.00    -0.432 A  
HETATM   29  C   UNL     1     -12.842  12.750  65.546  1.00  0.00     0.107 A  
HETATM   30  C   UNL     1     -11.840  12.858  66.532  1.00  0.00    -0.473 A  
ENDBRANCH  23  25
ENDBRANCH  22  23
ENDBRANCH   6  22
TORSDOF 4
ENDMDL
MODEL      128
REMARK 921   NORMALIZED FREE ENERGY PREDICTED BY IDOCK:   -4.69 KCAL/MOL
REMARK 922        TOTAL FREE ENERGY PREDICTED BY IDOCK:   -6.34 KCAL/MOL
REMARK 923 INTER-LIGAND FREE ENERGY PREDICTED BY IDOCK:   -5.55 KCAL/MOL
REMARK 924 INTRA-LIGAND FREE ENERGY PREDICTED BY IDOCK:   -0.79 KCAL/MOL
REMARK 927      BINDING AFFINITY PREDICTED BY RF-SCORE:    0.00 PKD
ROOT
HETATM    1  C   UNL     1      -8.050  16.110  68.708  1.00  0.00    -0.218 C  
HETATM    2  O   UNL     1      -7.700  17.329  69.406  1.00  0.00    -0.046 OA 
HETATM    3  C   UNL     1      -7.767  18.280  68.402  1.00  0.00    -0.299 A  
HETATM    4  C   UNL     1      -7.262  19.554  68.375  1.00  0.00    -0.319 A  
HETATM    5  C   UNL     1      -7.721  20.380  67.324  1.00  0.00    -0.372 A  
HETATM    6  C   UNL     1      -8.674  15.026  69.552  1.00  0.00    -0.059 C  
HETATM    7  C   UNL     1      -9.967  15.162  69.939  1.00  0.00    -0.107 C  
HETATM    8  C   UNL     1      -8.724  19.966  66.395  1.00  0.00    -0.397 A  
HETATM    9  C   UNL     1      -9.227  18.675  66.459  1.00  0.00    -0.322 A  
HETATM   10  C   UNL     1      -8.592  17.854  67.373  1.00  0.00    -0.239 A  
HETATM   11  C   UNL     1      -9.007  16.456  67.585  1.00  0.00    -0.198 C  
HETATM   12  C   UNL     1      -8.718  15.623  66.315  1.00  0.00    -0.325 C  
HETATM   13  C   UNL     1      -9.909  14.763  65.970  1.00  0.00    -0.324 C  
HETATM   14  N   UNL     1     -11.134  15.553  65.779  1.00  0.00    -0.268 NA 
HETATM   15  C   UNL     1     -12.271  14.654  66.014  1.00  0.00    -0.154 C  
HETATM   16  C   UNL     1     -11.184  16.820  66.568  1.00  0.00     0.492 C  
HETATM   17  C   UNL     1     -10.470  18.084  65.771  1.00  0.00    -0.202 C  
HETATM   18  C   UNL     1     -10.491  16.683  67.944  1.00  0.00    -0.322 C  
HETATM   19  C   UNL     1     -11.032  15.779  69.051  1.00  0.00    -0.262 C  
ENDROOT
BRANCH   4  20
HETATM   20  O   UNL     1      -6.354  20.103  69.230  1.00  0.00    -0.310 OA 
HETATM   21  C   UNL     1      -5.417  21.039  68.702  1.00  0.00    -0.336 C  
ENDBRANCH   4  20
BRANCH   6  22
HETATM   22  O   UNL     1      -8.228  13.752  69.012  1.00  0.00     0.024 OA 
BRANCH  22  23
HETATM   23  C   UNL     1      -6.923  13.453  68.763  1.00  0.00    -0.103 C  
HETATM   24  O   UNL     1      -5.943  13.995  69.267  1.00  0.00    -0.087 OA 
BRANCH  23  25
HETATM   25  C   UNL     1      -6.811  12.370  67.742  1.00  0.00    -0.113 A  
HETATM   26  C   UNL     1      -5.533  12.123  67.211  1.00  0.00    -0.124 A  
HETATM   27  C   UNL     1      -5.346  11.178  66.195  1.00  0.00    -0.141 A  
HETATM   28  C   UNL     1      -6.437  10.462  65.709  1.00  0.00    -0.123 A  
HETATM   29  C   UNL     1      -7.709  10.677  66.242  1.00  0.00    -0.143 A  
HETATM   30  C   UNL     1      -7.901  11.630  67.263  1.00  0.00    -0.157 A  
ENDBRANCH  23  25
ENDBRANCH  22  23
ENDBRANCH   6  22
TORSDOF 4
ENDMDL
MODEL      129
REMARK 921   NORMALIZED FREE ENERGY PREDICTED BY IDOCK:   -4.69 KCAL/MOL
REMARK 922        TOTAL FREE ENERGY PREDICTED BY IDOCK:   -6.34 KCAL/MOL
REMARK 923 INTER-LIGAND FREE ENERGY PREDICTED BY IDOCK:   -5.35 KCAL/MOL
REMARK 924 INTRA-LIGAND FREE ENERGY PREDICTED BY IDOCK:   -0.99 KCAL/MOL
REMARK 927      BINDING AFFINITY PREDICTED BY RF-SCORE:    0.00 PKD
ROOT
HETATM    1  C   UNL     1      -9.028   4.815  69.373  1.00  0.00    -0.094 C  
HETATM    2  O   UNL     1      -9.697   3.717  70.039  1.00  0.00    -0.197 OA 
HETATM    3  C   UNL     1      -9.931   4.230  71.303  1.00  0.00    -0.160 A  
HETATM    4  C   UNL     1     -10.260   3.575  72.461  1.00  0.00    -0.157 A  
HETATM    5  C   UNL     1     -10.702   4.389  73.529  1.00  0.00    -0.327 A  
HETATM    6  C   UNL     1      -9.180   4.864  67.872  1.00  0.00    -0.122 C  
HETATM    7  C   UNL     1     -10.361   5.280  67.349  1.00  0.00    -0.237 C  
HETATM    8  C   UNL     1     -10.894   5.798  73.401  1.00  0.00    -0.295 A  
HETATM    9  C   UNL     1     -10.566   6.430  72.210  1.00  0.00    -0.242 A  
HETATM   10  C   UNL     1      -9.948   5.616  71.278  1.00  0.00    -0.248 A  
HETATM   11  C   UNL     1      -9.545   6.117  69.951  1.00  0.00    -0.183 C  
HETATM   12  C   UNL     1      -8.416   7.160  70.103  1.00  0.00    -0.139 C  
HETATM   13  C   UNL     1      -8.703   8.371  69.249  1.00  0.00    -0.138 C  
HETATM   14  N   UNL     1      -9.998   8.989  69.569  1.00  0.00    -0.186 NA 
HETATM   15  C   UNL     1     -10.425   9.741  68.382  1.00  0.00    -0.218 C  
HETATM   16  C   UNL     1     -11.025   8.039  70.093  1.00  0.00    -0.226 C  
HETATM   17  C   UNL     1     -10.923   7.849  71.735  1.00  0.00    -0.290 C  
HETATM   18  C   UNL     1     -10.910   6.637  69.452  1.00  0.00    -0.340 C  
HETATM   19  C   UNL     1     -11.194   6.384  67.971  1.00  0.00    -0.260 C  
ENDROOT
BRANCH   4  20
HETATM   20  O   UNL     1     -10.190   2.236  72.704  1.00  0.00    -0.136 OA 
HETATM   21  C   UNL     1     -11.277   1.622  73.393  1.00  0.00    -0.179 C  
ENDBRANCH   4  20
BRANCH   6  22
HETATM   22  O   UNL     1      -7.940   5.396  67.333  1.00  0.00    -0.100 OA 
BRANCH  22  23
HETATM   23  C   UNL     1      -7.494   5.142  66.072  1.00  0.00    -0.082 C  
HETATM   24  O   UNL     1      -6.981   4.098  65.678  1.00  0.00    -0.059 OA 
BRANCH  23  25
HETATM   25  C   UNL     1      -7.674   6.335  65.193  1.00  0.00    -0.099 A  
HETATM   26  C   UNL     1      -7.930   7.562  65.827  1.00  0.00    -0.117 A  
HETATM   27  C   UNL     1      -8.187   8.718  65.081  1.00  0.00    -0.149 A  
HETATM   28  C   UNL     1      -8.178   8.658  63.689  1.00  0.00    -0.148 A  
HETATM   29  C   UNL     1      -7.901   7.453  63.043  1.00  0.00    -0.130 A  
HETATM   30  C   UNL     1      -7.645   6.286  63.792  1.00  0.00    -0.091 A  
ENDBRANCH  23  25
ENDBRANCH  22  23
ENDBRANCH   6  22
TORSDOF 4
ENDMDL
MODEL      130
REMARK 921   NORMALIZED FREE ENERGY PREDICTED BY IDOCK:   -4.62 KCAL/MOL
REMARK 922        TOTAL FREE ENERGY PREDICTED BY IDOCK:   -6.25 KCAL/MOL
REMARK 923 INTER-LIGAND FREE ENERGY PREDICTED BY IDOCK:   -5.59 KCAL/MOL
REMARK 924 INTRA-LIGAND FREE ENERGY PREDICTED BY IDOCK:   -0.67 KCAL/MOL
REMARK 927      BINDING AFFINITY PREDICTED BY RF-SCORE:    0.00 PKD
ROOT
HETATM    1  C   UNL     1      -9.692   6.636  71.551  1.00  0.00    -0.164 C  
HETATM    2  O   UNL     1      -9.859   5.236  71.882  1.00  0.00    -0.167 OA 
HETATM    3  C   UNL     1      -8.942   4.619  71.049  1.00  0.00    -0.125 A  
HETATM    4  C   UNL     1      -8.842   3.300  70.690  1.00  0.00    -0.083 A  
HETATM    5  C   UNL     1      -7.643   2.923  70.042  1.00  0.00    -0.043 A  
HETATM    6  C   UNL     1     -10.042   7.615  72.645  1.00  0.00    -0.242 C  
HETATM    7  C   UNL     1      -9.182   7.769  73.683  1.00  0.00    -0.344 C  
HETATM    8  C   UNL     1      -6.550   3.823  69.853  1.00  0.00    -0.033 A  
HETATM    9  C   UNL     1      -6.677   5.148  70.242  1.00  0.00    -0.040 A  
HETATM   10  C   UNL     1      -7.941   5.502  70.677  1.00  0.00    -0.103 A  
HETATM   11  C   UNL     1      -8.251   6.866  71.143  1.00  0.00    -0.118 C  
HETATM   12  C   UNL     1      -8.145   7.861  69.966  1.00  0.00    -0.117 C  
HETATM   13  C   UNL     1      -7.369   9.086  70.384  1.00  0.00    -0.084 C  
HETATM   14  N   UNL     1      -6.024   8.756  70.878  1.00  0.00    -0.035 NA 
HETATM   15  C   UNL     1      -5.598   9.861  71.746  1.00  0.00     0.034 C  
HETATM   16  C   UNL     1      -5.909   7.405  71.506  1.00  0.00    -0.036 C  
HETATM   17  C   UNL     1      -5.586   6.223  70.393  1.00  0.00    -0.018 C  
HETATM   18  C   UNL     1      -7.195   6.997  72.261  1.00  0.00    -0.073 C  
HETATM   19  C   UNL     1      -7.675   7.722  73.519  1.00  0.00    -0.179 C  
ENDROOT
BRANCH   4  20
HETATM   20  O   UNL     1      -9.773   2.321  70.867  1.00  0.00    -0.136 OA 
HETATM   21  C   UNL     1     -10.107   1.947  72.202  1.00  0.00    -0.158 C  
ENDBRANCH   4  20
BRANCH   6  22
HETATM   22  O   UNL     1     -10.594   8.796  72.002  1.00  0.00    -0.324 OA 
BRANCH  22  23
HETATM   23  C   UNL     1     -11.922   8.973  71.759  1.00  0.00    -0.368 C  
HETATM   24  O   UNL     1     -12.804   8.129  71.886  1.00  0.00    -0.320 OA 
BRANCH  23  25
HETATM   25  C   UNL     1     -12.193  10.357  71.270  1.00  0.00    -0.491 A  
HETATM   26  C   UNL     1     -11.565  10.747  70.075  1.00  0.00    -0.417 A  
HETATM   27  C   UNL     1     -11.702  12.049  69.581  1.00  0.00    -0.405 A  
HETATM   28  C   UNL     1     -12.481  12.973  70.274  1.00  0.00    -0.217 A  
HETATM   29  C   UNL     1     -13.132  12.596  71.449  1.00  0.00    -0.308 A  
HETATM   30  C   UNL     1     -12.994  11.285  71.951  1.00  0.00    -0.471 A  
ENDBRANCH  23  25
ENDBRANCH  22  23
ENDBRANCH   6  22
TORSDOF 4
ENDMDL
MODEL      131
REMARK 921   NORMALIZED FREE ENERGY PREDICTED BY IDOCK:   -4.61 KCAL/MOL
REMARK 922        TOTAL FREE ENERGY PREDICTED BY IDOCK:   -6.24 KCAL/MOL
REMARK 923 INTER-LIGAND FREE ENERGY PREDICTED BY IDOCK:   -5.49 KCAL/MOL
REMARK 924 INTRA-LIGAND FREE ENERGY PREDICTED BY IDOCK:   -0.75 KCAL/MOL
REMARK 927      BINDING AFFINITY PREDICTED BY RF-SCORE:    0.00 PKD
ROOT
HETATM    1  C   UNL     1      -8.933  11.822  66.959  1.00  0.00    -0.186 C  
HETATM    2  O   UNL     1      -9.504  11.000  65.913  1.00  0.00    -0.198 OA 
HETATM    3  C   UNL     1      -8.382  10.452  65.315  1.00  0.00    -0.166 A  
HETATM    4  C   UNL     1      -8.259   9.834  64.098  1.00  0.00    -0.158 A  
HETATM    5  C   UNL     1      -7.050   9.136  63.876  1.00  0.00    -0.093 A  
HETATM    6  C   UNL     1      -9.812  12.059  68.162  1.00  0.00    -0.201 C  
HETATM    7  C   UNL     1      -9.979  11.054  69.058  1.00  0.00    -0.184 C  
HETATM    8  C   UNL     1      -6.046   8.989  64.881  1.00  0.00    -0.065 A  
HETATM    9  C   UNL     1      -6.208   9.614  66.109  1.00  0.00    -0.068 A  
HETATM   10  C   UNL     1      -7.309  10.446  66.191  1.00  0.00    -0.131 A  
HETATM   11  C   UNL     1      -7.642  11.178  67.426  1.00  0.00    -0.113 C  
HETATM   12  C   UNL     1      -6.554  12.234  67.723  1.00  0.00    -0.108 C  
HETATM   13  C   UNL     1      -6.154  12.181  69.177  1.00  0.00    -0.082 C  
HETATM   14  N   UNL     1      -5.677  10.849  69.579  1.00  0.00    -0.039 NA 
HETATM   15  C   UNL     1      -5.859  10.744  71.032  1.00  0.00     0.030 C  
HETATM   16  C   UNL     1      -6.272   9.719  68.805  1.00  0.00    -0.042 C  
HETATM   17  C   UNL     1      -5.428   9.396  67.418  1.00  0.00    -0.037 C  
HETATM   18  C   UNL     1      -7.741   9.989  68.406  1.00  0.00    -0.084 C  
HETATM   19  C   UNL     1      -8.867  10.093  69.435  1.00  0.00    -0.197 C  
ENDROOT
BRANCH   4  20
HETATM   20  O   UNL     1      -9.159   9.834  63.074  1.00  0.00    -0.250 OA 
HETATM   21  C   UNL     1      -9.435  11.074  62.425  1.00  0.00    -0.129 C  
ENDBRANCH   4  20
BRANCH   6  22
HETATM   22  O   UNL     1      -9.522  13.399  68.647  1.00  0.00    -0.154 OA 
BRANCH  22  23
HETATM   23  C   UNL     1     -10.390  14.442  68.547  1.00  0.00    -0.248 C  
HETATM   24  O   UNL     1     -10.503  15.206  67.592  1.00  0.00    -0.246 OA 
BRANCH  23  25
HETATM   25  C   UNL     1     -11.200  14.582  69.793  1.00  0.00    -0.276 A  
HETATM   26  C   UNL     1     -10.859  15.633  70.661  1.00  0.00    -0.319 A  
HETATM   27  C   UNL     1     -11.514  15.794  71.888  1.00  0.00    -0.477 A  
HETATM   28  C   UNL     1     -12.527  14.910  72.252  1.00  0.00    -0.422 A  
HETATM   29  C   UNL     1     -12.895  13.876  71.390  1.00  0.00    -0.439 A  
HETATM   30  C   UNL     1     -12.235  13.708  70.156  1.00  0.00    -0.413 A  
ENDBRANCH  23  25
ENDBRANCH  22  23
ENDBRANCH   6  22
TORSDOF 4
ENDMDL
MODEL      132
REMARK 921   NORMALIZED FREE ENERGY PREDICTED BY IDOCK:   -4.59 KCAL/MOL
REMARK 922        TOTAL FREE ENERGY PREDICTED BY IDOCK:   -6.21 KCAL/MOL
REMARK 923 INTER-LIGAND FREE ENERGY PREDICTED BY IDOCK:   -5.39 KCAL/MOL
REMARK 924 INTRA-LIGAND FREE ENERGY PREDICTED BY IDOCK:   -0.82 KCAL/MOL
REMARK 927      BINDING AFFINITY PREDICTED BY RF-SCORE:    0.00 PKD
ROOT
HETATM    1  C   UNL     1      -9.315   6.642  69.194  1.00  0.00    -0.134 C  
HETATM    2  O   UNL     1     -10.485   6.032  69.789  1.00  0.00    -0.206 OA 
HETATM    3  C   UNL     1     -10.923   7.013  70.662  1.00  0.00    -0.260 A  
HETATM    4  C   UNL     1     -11.801   6.915  71.711  1.00  0.00    -0.316 A  
HETATM    5  C   UNL     1     -12.262   8.139  72.249  1.00  0.00    -0.397 A  
HETATM    6  C   UNL     1      -8.958   6.163  67.808  1.00  0.00    -0.115 C  
HETATM    7  C   UNL     1      -9.702   6.590  66.757  1.00  0.00    -0.208 C  
HETATM    8  C   UNL     1     -11.924   9.407  71.687  1.00  0.00    -0.465 A  
HETATM    9  C   UNL     1     -11.045   9.471  70.615  1.00  0.00    -0.364 A  
HETATM   10  C   UNL     1     -10.471   8.262  70.269  1.00  0.00    -0.221 A  
HETATM   11  C   UNL     1      -9.526   8.142  69.144  1.00  0.00    -0.155 C  
HETATM   12  C   UNL     1      -8.225   8.910  69.465  1.00  0.00    -0.107 C  
HETATM   13  C   UNL     1      -7.807   9.750  68.283  1.00  0.00    -0.089 C  
HETATM   14  N   UNL     1      -8.853  10.696  67.869  1.00  0.00    -0.130 NA 
HETATM   15  C   UNL     1      -8.606  11.026  66.460  1.00  0.00    -0.165 C  
HETATM   16  C   UNL     1     -10.247  10.242  68.155  1.00  0.00    -0.164 C  
HETATM   17  C   UNL     1     -10.740  10.655  69.681  1.00  0.00    -0.290 C  
HETATM   18  C   UNL     1     -10.407   8.711  68.011  1.00  0.00    -0.277 C  
HETATM   19  C   UNL     1     -10.273   7.992  66.668  1.00  0.00    -0.315 C  
ENDROOT
BRANCH   4  20
HETATM   20  O   UNL     1     -12.260   5.777  72.304  1.00  0.00    -0.188 OA 
HETATM   21  C   UNL     1     -11.344   5.011  73.083  1.00  0.00    -0.321 C  
ENDBRANCH   4  20
BRANCH   6  22
HETATM   22  O   UNL     1      -7.508   6.190  67.706  1.00  0.00    -0.085 OA 
BRANCH  22  23
HETATM   23  C   UNL     1      -6.722   5.085  67.827  1.00  0.00    -0.055 C  
HETATM   24  O   UNL     1      -5.916   4.859  68.726  1.00  0.00    -0.023 OA 
BRANCH  23  25
HETATM   25  C   UNL     1      -6.933   4.153  66.680  1.00  0.00    -0.059 A  
HETATM   26  C   UNL     1      -7.624   2.958  66.947  1.00  0.00    -0.074 A  
HETATM   27  C   UNL     1      -7.802   1.992  65.950  1.00  0.00    -0.073 A  
HETATM   28  C   UNL     1      -7.300   2.218  64.671  1.00  0.00    -0.062 A  
HETATM   29  C   UNL     1      -6.633   3.409  64.382  1.00  0.00    -0.035 A  
HETATM   30  C   UNL     1      -6.449   4.384  65.385  1.00  0.00    -0.039 A  
ENDBRANCH  23  25
ENDBRANCH  22  23
ENDBRANCH   6  22
TORSDOF 4
ENDMDL
MODEL      133
REMARK 921   NORMALIZED FREE ENERGY PREDICTED BY IDOCK:   -4.58 KCAL/MOL
REMARK 922        TOTAL FREE ENERGY PREDICTED BY IDOCK:   -6.21 KCAL/MOL
REMARK 923 INTER-LIGAND FREE ENERGY PREDICTED BY IDOCK:   -5.54 KCAL/MOL
REMARK 924 INTRA-LIGAND FREE ENERGY PREDICTED BY IDOCK:   -0.67 KCAL/MOL
REMARK 927      BINDING AFFINITY PREDICTED BY RF-SCORE:    0.00 PKD
ROOT
HETATM    1  C   UNL     1      -8.464   7.587  67.580  1.00  0.00    -0.119 C  
HETATM    2  O   UNL     1      -7.774   6.609  66.765  1.00  0.00    -0.102 OA 
HETATM    3  C   UNL     1      -6.989   5.946  67.693  1.00  0.00    -0.069 A  
HETATM    4  C   UNL     1      -5.909   5.127  67.492  1.00  0.00    -0.021 A  
HETATM    5  C   UNL     1      -5.480   4.379  68.613  1.00  0.00    -0.012 A  
HETATM    6  C   UNL     1      -9.806   8.043  67.062  1.00  0.00    -0.227 C  
HETATM    7  C   UNL     1     -10.870   7.209  67.180  1.00  0.00    -0.403 C  
HETATM    8  C   UNL     1      -6.176   4.387  69.860  1.00  0.00    -0.027 A  
HETATM    9  C   UNL     1      -7.276   5.216  70.027  1.00  0.00    -0.059 A  
HETATM   10  C   UNL     1      -7.519   6.070  68.967  1.00  0.00    -0.086 A  
HETATM   11  C   UNL     1      -8.656   7.009  68.968  1.00  0.00    -0.129 C  
HETATM   12  C   UNL     1      -8.454   8.079  70.063  1.00  0.00    -0.129 C  
HETATM   13  C   UNL     1      -9.727   8.268  70.852  1.00  0.00    -0.172 C  
HETATM   14  N   UNL     1     -10.199   7.016  71.461  1.00  0.00    -0.198 NA 
HETATM   15  C   UNL     1     -11.642   7.164  71.694  1.00  0.00    -0.276 C  
HETATM   16  C   UNL     1      -9.825   5.781  70.710  1.00  0.00    -0.183 C  
HETATM   17  C   UNL     1      -8.333   5.210  71.145  1.00  0.00    -0.121 C  
HETATM   18  C   UNL     1      -9.811   6.006  69.180  1.00  0.00    -0.185 C  
HETATM   19  C   UNL     1     -11.079   6.306  68.381  1.00  0.00    -0.371 C  
ENDROOT
BRANCH   4  20
HETATM   20  O   UNL     1      -5.191   4.969  66.344  1.00  0.00    -0.008 OA 
HETATM   21  C   UNL     1      -5.666   4.032  65.380  1.00  0.00    -0.022 C  
ENDBRANCH   4  20
BRANCH   6  22
HETATM   22  O   UNL     1      -9.957   9.440  67.435  1.00  0.00    -0.175 OA 
BRANCH  22  23
HETATM   23  C   UNL     1      -9.154  10.436  66.971  1.00  0.00    -0.139 C  
HETATM   24  O   UNL     1      -8.096  10.810  67.469  1.00  0.00    -0.110 OA 
BRANCH  23  25
HETATM   25  C   UNL     1      -9.744  11.072  65.756  1.00  0.00    -0.268 A  
HETATM   26  C   UNL     1     -10.372  12.317  65.929  1.00  0.00    -0.280 A  
HETATM   27  C   UNL     1     -11.018  12.952  64.861  1.00  0.00    -0.327 A  
HETATM   28  C   UNL     1     -11.031  12.350  63.605  1.00  0.00    -0.525 A  
HETATM   29  C   UNL     1     -10.390  11.125  63.410  1.00  0.00    -0.419 A  
HETATM   30  C   UNL     1      -9.742  10.482  64.484  1.00  0.00    -0.375 A  
ENDBRANCH  23  25
ENDBRANCH  22  23
ENDBRANCH   6  22
TORSDOF 4
ENDMDL
MODEL      134
REMARK 921   NORMALIZED FREE ENERGY PREDICTED BY IDOCK:   -4.47 KCAL/MOL
REMARK 922        TOTAL FREE ENERGY PREDICTED BY IDOCK:   -6.07 KCAL/MOL
REMARK 923 INTER-LIGAND FREE ENERGY PREDICTED BY IDOCK:   -5.19 KCAL/MOL
REMARK 924 INTRA-LIGAND FREE ENERGY PREDICTED BY IDOCK:   -0.88 KCAL/MOL
REMARK 927      BINDING AFFINITY PREDICTED BY RF-SCORE:    0.00 PKD
ROOT
HETATM    1  C   UNL     1      -8.813   9.269  66.226  1.00  0.00    -0.146 C  
HETATM    2  O   UNL     1      -9.580   8.055  66.409  1.00  0.00    -0.212 OA 
HETATM    3  C   UNL     1      -9.955   8.134  67.739  1.00  0.00    -0.181 A  
HETATM    4  C   UNL     1     -10.435   7.153  68.567  1.00  0.00    -0.204 A  
HETATM    5  C   UNL     1     -10.986   7.592  69.793  1.00  0.00    -0.195 A  
HETATM    6  C   UNL     1      -8.782   9.822  64.822  1.00  0.00    -0.192 C  
HETATM    7  C   UNL     1      -9.882  10.457  64.345  1.00  0.00    -0.395 C  
HETATM    8  C   UNL     1     -11.132   8.973  70.126  1.00  0.00    -0.228 A  
HETATM    9  C   UNL     1     -10.650   9.942  69.258  1.00  0.00    -0.245 A  
HETATM   10  C   UNL     1      -9.941   9.447  68.179  1.00  0.00    -0.202 A  
HETATM   11  C   UNL     1      -9.370  10.334  67.149  1.00  0.00    -0.175 C  
HETATM   12  C   UNL     1      -8.247  11.200  67.763  1.00  0.00    -0.119 C  
HETATM   13  C   UNL     1      -8.403  12.639  67.339  1.00  0.00    -0.184 C  
HETATM   14  N   UNL     1      -9.715  13.193  67.708  1.00  0.00    -0.211 NA 
HETATM   15  C   UNL     1      -9.979  14.319  66.804  1.00  0.00    -0.265 C  
HETATM   16  C   UNL     1     -10.817  12.186  67.769  1.00  0.00    -0.224 C  
HETATM   17  C   UNL     1     -10.917  11.458  69.252  1.00  0.00    -0.282 C  
HETATM   18  C   UNL     1     -10.654  11.071  66.710  1.00  0.00    -0.317 C  
HETATM   19  C   UNL     1     -10.761  11.340  65.209  1.00  0.00    -0.302 C  
ENDROOT
BRANCH   4  20
HETATM   20  O   UNL     1     -10.422   5.807  68.352  1.00  0.00    -0.197 OA 
HETATM   21  C   UNL     1      -9.635   4.997  69.223  1.00  0.00    -0.162 C  
ENDBRANCH   4  20
BRANCH   6  22
HETATM   22  O   UNL     1      -7.475  10.427  64.629  1.00  0.00    -0.126 OA 
BRANCH  22  23
HETATM   23  C   UNL     1      -6.307   9.844  65.017  1.00  0.00    -0.104 C  
HETATM   24  O   UNL     1      -5.493  10.304  65.813  1.00  0.00    -0.054 OA 
BRANCH  23  25
HETATM   25  C   UNL     1      -6.102   8.544  64.313  1.00  0.00    -0.066 A  
HETATM   26  C   UNL     1      -5.928   7.404  65.115  1.00  0.00    -0.038 A  
HETATM   27  C   UNL     1      -5.655   6.156  64.543  1.00  0.00    -0.021 A  
HETATM   28  C   UNL     1      -5.565   6.035  63.159  1.00  0.00    -0.018 A  
HETATM   29  C   UNL     1      -5.761   7.152  62.345  1.00  0.00    -0.045 A  
HETATM   30  C   UNL     1      -6.033   8.412  62.919  1.00  0.00    -0.082 A  
ENDBRANCH  23  25
ENDBRANCH  22  23
ENDBRANCH   6  22
TORSDOF 4
ENDMDL
MODEL      135
REMARK 921   NORMALIZED FREE ENERGY PREDICTED BY IDOCK:   -4.41 KCAL/MOL
REMARK 922        TOTAL FREE ENERGY PREDICTED BY IDOCK:   -5.99 KCAL/MOL
REMARK 923 INTER-LIGAND FREE ENERGY PREDICTED BY IDOCK:   -5.20 KCAL/MOL
REMARK 924 INTRA-LIGAND FREE ENERGY PREDICTED BY IDOCK:   -0.79 KCAL/MOL
REMARK 927      BINDING AFFINITY PREDICTED BY RF-SCORE:    0.00 PKD
ROOT
HETATM    1  C   UNL     1      -8.824   9.039  67.782  1.00  0.00    -0.124 C  
HETATM    2  O   UNL     1      -7.781   8.459  66.963  1.00  0.00    -0.091 OA 
HETATM    3  C   UNL     1      -8.209   8.753  65.679  1.00  0.00    -0.121 A  
HETATM    4  C   UNL     1      -7.806   8.218  64.484  1.00  0.00    -0.130 A  
HETATM    5  C   UNL     1      -8.225   8.908  63.323  1.00  0.00    -0.182 A  
HETATM    6  C   UNL     1      -8.411   9.459  69.172  1.00  0.00    -0.125 C  
HETATM    7  C   UNL     1      -7.678  10.591  69.322  1.00  0.00    -0.144 C  
HETATM    8  C   UNL     1      -8.941  10.143  63.373  1.00  0.00    -0.263 A  
HETATM    9  C   UNL     1      -9.320  10.667  64.601  1.00  0.00    -0.280 A  
HETATM   10  C   UNL     1      -9.063   9.844  65.682  1.00  0.00    -0.220 A  
HETATM   11  C   UNL     1      -9.386  10.248  67.063  1.00  0.00    -0.177 C  
HETATM   12  C   UNL     1     -10.918  10.353  67.236  1.00  0.00    -0.306 C  
HETATM   13  C   UNL     1     -11.278  11.630  67.954  1.00  0.00    -0.269 C  
HETATM   14  N   UNL     1     -10.773  12.824  67.261  1.00  0.00    -0.235 NA 
HETATM   15  C   UNL     1     -10.668  13.893  68.263  1.00  0.00    -0.251 C  
HETATM   16  C   UNL     1      -9.526  12.601  66.471  1.00  0.00    -0.247 C  
HETATM   17  C   UNL     1      -9.844  12.075  64.934  1.00  0.00    -0.198 C  
HETATM   18  C   UNL     1      -8.587  11.568  67.134  1.00  0.00    -0.155 C  
HETATM   19  C   UNL     1      -7.890  11.827  68.470  1.00  0.00    -0.144 C  
ENDROOT
BRANCH   4  20
HETATM   20  O   UNL     1      -7.068   7.089  64.288  1.00  0.00    -0.052 OA 
HETATM   21  C   UNL     1      -7.722   5.829  64.424  1.00  0.00    -0.100 C  
ENDBRANCH   4  20
BRANCH   6  22
HETATM   22  O   UNL     1      -9.551   9.232  70.045  1.00  0.00    -0.181 OA 
BRANCH  22  23
HETATM   23  C   UNL     1      -9.908   8.007  70.518  1.00  0.00    -0.182 C  
HETATM   24  O   UNL     1     -10.948   7.404  70.268  1.00  0.00    -0.248 OA 
BRANCH  23  25
HETATM   25  C   UNL     1      -8.865   7.469  71.442  1.00  0.00    -0.138 A  
HETATM   26  C   UNL     1      -8.957   7.840  72.793  1.00  0.00    -0.236 A  
HETATM   27  C   UNL     1      -7.981   7.445  73.716  1.00  0.00    -0.148 A  
HETATM   28  C   UNL     1      -6.908   6.662  73.295  1.00  0.00    -0.076 A  
HETATM   29  C   UNL     1      -6.815   6.263  71.961  1.00  0.00    -0.072 A  
HETATM   30  C   UNL     1      -7.795   6.663  71.028  1.00  0.00    -0.102 A  
ENDBRANCH  23  25
ENDBRANCH  22  23
ENDBRANCH   6  22
TORSDOF 4
ENDMDL
MODEL      136
REMARK 921   NORMALIZED FREE ENERGY PREDICTED BY IDOCK:   -4.38 KCAL/MOL
REMARK 922        TOTAL FREE ENERGY PREDICTED BY IDOCK:   -5.96 KCAL/MOL
REMARK 923 INTER-LIGAND FREE ENERGY PREDICTED BY IDOCK:   -5.27 KCAL/MOL
REMARK 924 INTRA-LIGAND FREE ENERGY PREDICTED BY IDOCK:   -0.69 KCAL/MOL
REMARK 927      BINDING AFFINITY PREDICTED BY RF-SCORE:    0.00 PKD
ROOT
HETATM    1  C   UNL     1      -9.072  10.132  67.626  1.00  0.00    -0.137 C  
HETATM    2  O   UNL     1      -8.696   9.213  68.679  1.00  0.00    -0.127 OA 
HETATM    3  C   UNL     1      -8.945   7.978  68.103  1.00  0.00    -0.135 A  
HETATM    4  C   UNL     1      -9.067   6.749  68.698  1.00  0.00    -0.127 A  
HETATM    5  C   UNL     1      -9.051   5.635  67.828  1.00  0.00    -0.106 A  
HETATM    6  C   UNL     1      -8.376  11.471  67.643  1.00  0.00    -0.135 C  
HETATM    7  C   UNL     1      -7.085  11.542  67.231  1.00  0.00    -0.128 C  
HETATM    8  C   UNL     1      -8.824   5.754  66.423  1.00  0.00    -0.131 A  
HETATM    9  C   UNL     1      -8.689   7.012  65.853  1.00  0.00    -0.140 A  
HETATM   10  C   UNL     1      -8.919   8.064  66.721  1.00  0.00    -0.169 A  
HETATM   11  C   UNL     1      -8.804   9.469  66.289  1.00  0.00    -0.172 C  
HETATM   12  C   UNL     1      -9.909   9.796  65.260  1.00  0.00    -0.335 C  
HETATM   13  C   UNL     1      -9.326  10.544  64.085  1.00  0.00    -0.267 C  
HETATM   14  N   UNL     1      -8.241   9.800  63.430  1.00  0.00    -0.145 NA 
HETATM   15  C   UNL     1      -7.406  10.781  62.726  1.00  0.00     0.057 C  
HETATM   16  C   UNL     1      -7.481   8.887  64.335  1.00  0.00    -0.106 C  
HETATM   17  C   UNL     1      -8.182   7.392  64.451  1.00  0.00    -0.004 C  
HETATM   18  C   UNL     1      -7.351   9.455  65.767  1.00  0.00    -0.095 C  
HETATM   19  C   UNL     1      -6.540  10.712  66.084  1.00  0.00    -0.130 C  
ENDROOT
BRANCH   4  20
HETATM   20  O   UNL     1      -9.222   6.483  70.026  1.00  0.00    -0.156 OA 
HETATM   21  C   UNL     1      -9.054   5.137  70.464  1.00  0.00    -0.139 C  
ENDBRANCH   4  20
BRANCH   6  22
HETATM   22  O   UNL     1      -9.329  12.455  67.159  1.00  0.00    -0.187 OA 
BRANCH  22  23
HETATM   23  C   UNL     1     -10.059  13.265  67.975  1.00  0.00    -0.235 C  
HETATM   24  O   UNL     1     -10.720  12.913  68.948  1.00  0.00    -0.228 OA 
BRANCH  23  25
HETATM   25  C   UNL     1      -9.990  14.684  67.516  1.00  0.00    -0.223 A  
HETATM   26  C   UNL     1     -10.609  15.648  68.329  1.00  0.00    -0.262 A  
HETATM   27  C   UNL     1     -10.660  16.992  67.940  1.00  0.00    -0.365 A  
HETATM   28  C   UNL     1     -10.079  17.386  66.738  1.00  0.00    -0.313 A  
HETATM   29  C   UNL     1      -9.437  16.446  65.930  1.00  0.00    -0.289 A  
HETATM   30  C   UNL     1      -9.388  15.090  66.317  1.00  0.00    -0.341 A  
ENDBRANCH  23  25
ENDBRANCH  22  23
ENDBRANCH   6  22
TORSDOF 4
ENDMDL
MODEL      137
REMARK 921   NORMALIZED FREE ENERGY PREDICTED BY IDOCK:   -4.36 KCAL/MOL
REMARK 922        TOTAL FREE ENERGY PREDICTED BY IDOCK:   -5.94 KCAL/MOL
REMARK 923 INTER-LIGAND FREE ENERGY PREDICTED BY IDOCK:   -4.80 KCAL/MOL
REMARK 924 INTRA-LIGAND FREE ENERGY PREDICTED BY IDOCK:   -1.13 KCAL/MOL
REMARK 927      BINDING AFFINITY PREDICTED BY RF-SCORE:    0.00 PKD
ROOT
HETATM    1  C   UNL     1      -8.577  12.005  67.548  1.00  0.00    -0.167 C  
HETATM    2  O   UNL     1      -8.390  13.362  67.080  1.00  0.00    -0.165 OA 
HETATM    3  C   UNL     1      -7.738  13.960  68.145  1.00  0.00    -0.142 A  
HETATM    4  C   UNL     1      -7.560  15.290  68.420  1.00  0.00    -0.116 A  
HETATM    5  C   UNL     1      -6.621  15.594  69.432  1.00  0.00    -0.166 A  
HETATM    6  C   UNL     1      -8.672  10.947  66.476  1.00  0.00    -0.163 C  
HETATM    7  C   UNL     1      -7.540  10.559  65.838  1.00  0.00    -0.148 C  
HETATM    8  C   UNL     1      -5.824  14.597  70.073  1.00  0.00    -0.131 A  
HETATM    9  C   UNL     1      -6.017  13.259  69.760  1.00  0.00    -0.128 A  
HETATM   10  C   UNL     1      -7.087  13.013  68.919  1.00  0.00    -0.068 A  
HETATM   11  C   UNL     1      -7.428  11.651  68.471  1.00  0.00    -0.113 C  
HETATM   12  C   UNL     1      -7.904  10.805  69.673  1.00  0.00     0.023 C  
HETATM   13  C   UNL     1      -7.238   9.451  69.658  1.00  0.00    -0.067 C  
HETATM   14  N   UNL     1      -5.771   9.548  69.667  1.00  0.00    -0.033 NA 
HETATM   15  C   UNL     1      -5.250   8.299  69.097  1.00  0.00    -0.027 C  
HETATM   16  C   UNL     1      -5.228  10.784  69.030  1.00  0.00    -0.041 C  
HETATM   17  C   UNL     1      -5.130  12.047  70.096  1.00  0.00    -0.083 C  
HETATM   18  C   UNL     1      -6.082  11.251  67.829  1.00  0.00    -0.048 C  
HETATM   19  C   UNL     1      -6.200  10.440  66.539  1.00  0.00    -0.078 C  
ENDROOT
BRANCH   4  20
HETATM   20  O   UNL     1      -8.199  16.348  67.845  1.00  0.00    -0.162 OA 
HETATM   21  C   UNL     1      -7.879  16.670  66.493  1.00  0.00    -0.307 C  
ENDBRANCH   4  20
BRANCH   6  22
HETATM   22  O   UNL     1      -9.597   9.933  66.955  1.00  0.00    -0.164 OA 
BRANCH  22  23
HETATM   23  C   UNL     1     -10.817  10.216  67.490  1.00  0.00    -0.290 C  
HETATM   24  O   UNL     1     -11.689  10.916  66.984  1.00  0.00    -0.330 OA 
BRANCH  23  25
HETATM   25  C   UNL     1     -10.970   9.579  68.832  1.00  0.00    -0.116 A  
HETATM   26  C   UNL     1     -11.597  10.340  69.832  1.00  0.00    -0.326 A  
HETATM   27  C   UNL     1     -11.716   9.853  71.139  1.00  0.00    -0.478 A  
HETATM   28  C   UNL     1     -11.219   8.591  71.454  1.00  0.00    -0.327 A  
HETATM   29  C   UNL     1     -10.616   7.811  70.467  1.00  0.00    -0.226 A  
HETATM   30  C   UNL     1     -10.491   8.300  69.150  1.00  0.00    -0.217 A  
ENDBRANCH  23  25
ENDBRANCH  22  23
ENDBRANCH   6  22
TORSDOF 4
ENDMDL
MODEL      138
REMARK 921   NORMALIZED FREE ENERGY PREDICTED BY IDOCK:   -4.35 KCAL/MOL
REMARK 922        TOTAL FREE ENERGY PREDICTED BY IDOCK:   -5.92 KCAL/MOL
REMARK 923 INTER-LIGAND FREE ENERGY PREDICTED BY IDOCK:   -5.40 KCAL/MOL
REMARK 924 INTRA-LIGAND FREE ENERGY PREDICTED BY IDOCK:   -0.51 KCAL/MOL
REMARK 927      BINDING AFFINITY PREDICTED BY RF-SCORE:    0.00 PKD
ROOT
HETATM    1  C   UNL     1      -9.621  13.823  67.700  1.00  0.00    -0.219 C  
HETATM    2  O   UNL     1     -10.007  14.680  66.599  1.00  0.00    -0.258 OA 
HETATM    3  C   UNL     1      -9.018  15.649  66.611  1.00  0.00    -0.284 A  
HETATM    4  C   UNL     1      -8.998  16.880  66.010  1.00  0.00    -0.163 A  
HETATM    5  C   UNL     1      -7.745  17.533  65.975  1.00  0.00    -0.237 A  
HETATM    6  C   UNL     1     -10.068  12.385  67.601  1.00  0.00    -0.198 C  
HETATM    7  C   UNL     1      -9.422  11.557  66.742  1.00  0.00    -0.202 C  
HETATM    8  C   UNL     1      -6.542  16.923  66.444  1.00  0.00    -0.121 A  
HETATM    9  C   UNL     1      -6.593  15.668  67.034  1.00  0.00     0.124 A  
HETATM   10  C   UNL     1      -7.870  15.174  67.224  1.00  0.00    -0.241 A  
HETATM   11  C   UNL     1      -8.111  13.848  67.823  1.00  0.00    -0.174 C  
HETATM   12  C   UNL     1      -7.661  13.849  69.301  1.00  0.00     0.150 C  
HETATM   13  C   UNL     1      -6.850  12.612  69.603  1.00  0.00     0.173 C  
HETATM   14  N   UNL     1      -5.677  12.484  68.726  1.00  0.00    -0.061 NA 
HETATM   15  C   UNL     1      -5.311  11.062  68.698  1.00  0.00    -0.040 C  
HETATM   16  C   UNL     1      -5.843  13.099  67.375  1.00  0.00     0.022 C  
HETATM   17  C   UNL     1      -5.439  14.705  67.365  1.00  0.00     0.358 C  
HETATM   18  C   UNL     1      -7.291  12.977  66.848  1.00  0.00     0.365 C  
HETATM   19  C   UNL     1      -7.927  11.632  66.494  1.00  0.00    -0.053 C  
ENDROOT
BRANCH   4  20
HETATM   20  O   UNL     1     -10.050  17.552  65.462  1.00  0.00    -0.576 OA 
HETATM   21  C   UNL     1     -10.438  18.788  66.058  1.00  0.00    -0.432 C  
ENDBRANCH   4  20
BRANCH   6  22
HETATM   22  O   UNL     1     -10.344  11.928  68.953  1.00  0.00    -0.191 OA 
BRANCH  22  23
HETATM   23  C   UNL     1     -11.579  11.552  69.386  1.00  0.00    -0.321 C  
HETATM   24  O   UNL     1     -12.180  10.528  69.072  1.00  0.00    -0.272 OA 
BRANCH  23  25
HETATM   25  C   UNL     1     -12.159  12.582  70.297  1.00  0.00    -0.373 A  
HETATM   26  C   UNL     1     -11.865  13.926  70.011  1.00  0.00    -0.384 A  
HETATM   27  C   UNL     1     -12.304  14.954  70.854  1.00  0.00    -0.392 A  
HETATM   28  C   UNL     1     -13.052  14.646  71.987  1.00  0.00    -0.418 A  
HETATM   29  C   UNL     1     -13.375  13.318  72.273  1.00  0.00    -0.630 A  
HETATM   30  C   UNL     1     -12.932  12.280  71.428  1.00  0.00    -0.354 A  
ENDBRANCH  23  25
ENDBRANCH  22  23
ENDBRANCH   6  22
TORSDOF 4
ENDMDL
MODEL      139
REMARK 921   NORMALIZED FREE ENERGY PREDICTED BY IDOCK:   -4.33 KCAL/MOL
REMARK 922        TOTAL FREE ENERGY PREDICTED BY IDOCK:   -5.90 KCAL/MOL
REMARK 923 INTER-LIGAND FREE ENERGY PREDICTED BY IDOCK:   -4.97 KCAL/MOL
REMARK 924 INTRA-LIGAND FREE ENERGY PREDICTED BY IDOCK:   -0.93 KCAL/MOL
REMARK 927      BINDING AFFINITY PREDICTED BY RF-SCORE:    0.00 PKD
ROOT
HETATM    1  C   UNL     1     -10.634   5.838  68.838  1.00  0.00    -0.267 C  
HETATM    2  O   UNL     1     -11.081   7.135  69.302  1.00  0.00    -0.180 OA 
HETATM    3  C   UNL     1     -10.961   7.019  70.677  1.00  0.00    -0.260 A  
HETATM    4  C   UNL     1     -11.503   7.797  71.666  1.00  0.00    -0.261 A  
HETATM    5  C   UNL     1     -10.985   7.598  72.966  1.00  0.00    -0.457 A  
HETATM    6  C   UNL     1     -10.047   5.805  67.448  1.00  0.00    -0.175 C  
HETATM    7  C   UNL     1      -8.796   6.293  67.254  1.00  0.00    -0.107 C  
HETATM    8  C   UNL     1      -9.895   6.716  73.237  1.00  0.00    -0.199 A  
HETATM    9  C   UNL     1      -9.357   5.954  72.211  1.00  0.00    -0.152 A  
HETATM   10  C   UNL     1     -10.039   6.040  71.011  1.00  0.00    -0.241 A  
HETATM   11  C   UNL     1      -9.598   5.309  69.809  1.00  0.00    -0.230 C  
HETATM   12  C   UNL     1      -9.752   3.788  70.032  1.00  0.00    -0.211 C  
HETATM   13  C   UNL     1      -8.508   3.064  69.578  1.00  0.00    -0.061 C  
HETATM   14  N   UNL     1      -7.298   3.546  70.259  1.00  0.00    -0.041 NA 
HETATM   15  C   UNL     1      -6.156   3.223  69.394  1.00  0.00    -0.024 C  
HETATM   16  C   UNL     1      -7.356   4.976  70.687  1.00  0.00    -0.065 C  
HETATM   17  C   UNL     1      -8.042   5.155  72.183  1.00  0.00    -0.113 C  
HETATM   18  C   UNL     1      -8.157   5.853  69.697  1.00  0.00    -0.106 C  
HETATM   19  C   UNL     1      -7.682   6.128  68.270  1.00  0.00    -0.103 C  
ENDROOT
BRANCH   4  20
HETATM   20  O   UNL     1     -12.497   8.722  71.541  1.00  0.00    -0.307 OA 
HETATM   21  C   UNL     1     -12.132  10.056  71.193  1.00  0.00    -0.380 C  
ENDBRANCH   4  20
BRANCH   6  22
HETATM   22  O   UNL     1     -10.405   4.523  66.863  1.00  0.00    -0.169 OA 
BRANCH  22  23
HETATM   23  C   UNL     1     -10.443   4.289  65.522  1.00  0.00    -0.150 C  
HETATM   24  O   UNL     1     -11.363   4.572  64.759  1.00  0.00    -0.188 OA 
BRANCH  23  25
HETATM   25  C   UNL     1      -9.203   3.592  65.068  1.00  0.00    -0.149 A  
HETATM   26  C   UNL     1      -8.935   2.335  65.634  1.00  0.00    -0.118 A  
HETATM   27  C   UNL     1      -7.758   1.643  65.324  1.00  0.00    -0.071 A  
HETATM   28  C   UNL     1      -6.842   2.199  64.435  1.00  0.00    -0.042 A  
HETATM   29  C   UNL     1      -7.105   3.437  63.844  1.00  0.00    -0.050 A  
HETATM   30  C   UNL     1      -8.288   4.138  64.156  1.00  0.00    -0.099 A  
ENDBRANCH  23  25
ENDBRANCH  22  23
ENDBRANCH   6  22
TORSDOF 4
ENDMDL
MODEL      140
REMARK 921   NORMALIZED FREE ENERGY PREDICTED BY IDOCK:   -4.26 KCAL/MOL
REMARK 922        TOTAL FREE ENERGY PREDICTED BY IDOCK:   -5.82 KCAL/MOL
REMARK 923 INTER-LIGAND FREE ENERGY PREDICTED BY IDOCK:   -5.55 KCAL/MOL
REMARK 924 INTRA-LIGAND FREE ENERGY PREDICTED BY IDOCK:   -0.26 KCAL/MOL
REMARK 927      BINDING AFFINITY PREDICTED BY RF-SCORE:    0.00 PKD
ROOT
HETATM    1  C   UNL     1     -10.574  13.273  68.470  1.00  0.00    -0.256 C  
HETATM    2  O   UNL     1     -10.981  14.611  68.094  1.00  0.00    -0.249 OA 
HETATM    3  C   UNL     1      -9.827  15.347  68.306  1.00  0.00    -0.213 A  
HETATM    4  C   UNL     1      -9.668  16.704  68.412  1.00  0.00    -0.243 A  
HETATM    5  C   UNL     1      -8.338  17.178  68.356  1.00  0.00    -0.251 A  
HETATM    6  C   UNL     1     -11.324  12.146  67.804  1.00  0.00    -0.307 C  
HETATM    7  C   UNL     1     -11.050  11.855  66.507  1.00  0.00    -0.357 C  
HETATM    8  C   UNL     1      -7.221  16.323  68.105  1.00  0.00    -0.147 A  
HETATM    9  C   UNL     1      -7.418  14.955  67.986  1.00  0.00    -0.133 A  
HETATM   10  C   UNL     1      -8.707  14.533  68.256  1.00  0.00    -0.173 A  
HETATM   11  C   UNL     1      -9.098  13.115  68.162  1.00  0.00    -0.200 C  
HETATM   12  C   UNL     1      -8.374  12.296  69.254  1.00  0.00     0.738 C  
HETATM   13  C   UNL     1      -7.799  11.031  68.666  1.00  0.00    -0.136 C  
HETATM   14  N   UNL     1      -6.877  11.300  67.553  1.00  0.00    -0.080 NA 
HETATM   15  C   UNL     1      -6.831  10.087  66.726  1.00  0.00    -0.081 C  
HETATM   16  C   UNL     1      -7.174  12.549  66.790  1.00  0.00     0.316 C  
HETATM   17  C   UNL     1      -6.451  13.879  67.461  1.00  0.00    -0.077 C  
HETATM   18  C   UNL     1      -8.690  12.836  66.700  1.00  0.00    -0.065 C  
HETATM   19  C   UNL     1      -9.653  11.937  65.923  1.00  0.00    -0.248 C  
ENDROOT
BRANCH   4  20
HETATM   20  O   UNL     1     -10.643  17.641  68.587  1.00  0.00    -0.335 OA 
HETATM   21  C   UNL     1     -10.692  18.735  67.674  1.00  0.00    -0.385 C  
ENDBRANCH   4  20
BRANCH   6  22
HETATM   22  O   UNL     1     -11.417  11.063  68.769  1.00  0.00    -0.255 OA 
BRANCH  22  23
HETATM   23  C   UNL     1     -11.924  11.211  70.024  1.00  0.00    -0.367 C  
HETATM   24  O   UNL     1     -12.071  12.269  70.629  1.00  0.00    -0.363 OA 
BRANCH  23  25
HETATM   25  C   UNL     1     -12.265   9.885  70.619  1.00  0.00    -0.325 A  
HETATM   26  C   UNL     1     -13.627   9.612  70.830  1.00  0.00    -0.070 A  
HETATM   27  C   UNL     1     -14.034   8.426  71.453  1.00  0.00    -0.333 A  
HETATM   28  C   UNL     1     -13.081   7.496  71.860  1.00  0.00    -0.291 A  
HETATM   29  C   UNL     1     -11.725   7.740  71.635  1.00  0.00    -0.316 A  
HETATM   30  C   UNL     1     -11.311   8.935  71.011  1.00  0.00    -0.350 A  
ENDBRANCH  23  25
ENDBRANCH  22  23
ENDBRANCH   6  22
TORSDOF 4
ENDMDL
MODEL      141
REMARK 921   NORMALIZED FREE ENERGY PREDICTED BY IDOCK:   -4.25 KCAL/MOL
REMARK 922        TOTAL FREE ENERGY PREDICTED BY IDOCK:   -5.80 KCAL/MOL
REMARK 923 INTER-LIGAND FREE ENERGY PREDICTED BY IDOCK:   -4.65 KCAL/MOL
REMARK 924 INTRA-LIGAND FREE ENERGY PREDICTED BY IDOCK:   -1.15 KCAL/MOL
REMARK 927      BINDING AFFINITY PREDICTED BY RF-SCORE:    0.00 PKD
ROOT
HETATM    1  C   UNL     1      -9.433   7.091  68.654  1.00  0.00    -0.135 C  
HETATM    2  O   UNL     1      -9.074   8.385  68.113  1.00  0.00    -0.138 OA 
HETATM    3  C   UNL     1      -7.707   8.263  67.924  1.00  0.00    -0.103 A  
HETATM    4  C   UNL     1      -6.767   9.239  67.721  1.00  0.00    -0.068 A  
HETATM    5  C   UNL     1      -5.495   8.794  67.290  1.00  0.00    -0.038 A  
HETATM    6  C   UNL     1     -10.852   6.644  68.400  1.00  0.00    -0.255 C  
HETATM    7  C   UNL     1     -11.188   6.207  67.160  1.00  0.00    -0.192 C  
HETATM    8  C   UNL     1      -5.216   7.427  66.986  1.00  0.00    -0.022 A  
HETATM    9  C   UNL     1      -6.195   6.465  67.187  1.00  0.00    -0.036 A  
HETATM   10  C   UNL     1      -7.343   6.932  67.802  1.00  0.00    -0.097 A  
HETATM   11  C   UNL     1      -8.492   6.051  68.079  1.00  0.00    -0.115 C  
HETATM   12  C   UNL     1      -8.101   4.993  69.135  1.00  0.00    -0.083 C  
HETATM   13  C   UNL     1      -8.569   3.624  68.703  1.00  0.00    -0.091 C  
HETATM   14  N   UNL     1      -8.035   3.237  67.390  1.00  0.00    -0.077 NA 
HETATM   15  C   UNL     1      -8.945   2.229  66.832  1.00  0.00    -0.126 C  
HETATM   16  C   UNL     1      -7.755   4.382  66.473  1.00  0.00    -0.094 C  
HETATM   17  C   UNL     1      -6.238   5.008  66.696  1.00  0.00    -0.032 C  
HETATM   18  C   UNL     1      -8.768   5.537  66.649  1.00  0.00    -0.116 C  
HETATM   19  C   UNL     1     -10.247   5.397  66.290  1.00  0.00    -0.234 C  
ENDROOT
BRANCH   4  20
HETATM   20  O   UNL     1      -6.912  10.582  67.906  1.00  0.00    -0.076 OA 
HETATM   21  C   UNL     1      -6.831  11.086  69.237  1.00  0.00    -0.110 C  
ENDBRANCH   4  20
BRANCH   6  22
HETATM   22  O   UNL     1     -11.272   5.875  69.560  1.00  0.00    -0.389 OA 
BRANCH  22  23
HETATM   23  C   UNL     1     -11.827   6.428  70.673  1.00  0.00    -0.250 C  
HETATM   24  O   UNL     1     -12.884   7.051  70.726  1.00  0.00    -0.246 OA 
BRANCH  23  25
HETATM   25  C   UNL     1     -10.956   6.213  71.866  1.00  0.00    -0.311 A  
HETATM   26  C   UNL     1     -10.724   7.323  72.695  1.00  0.00    -0.318 A  
HETATM   27  C   UNL     1      -9.860   7.233  73.793  1.00  0.00    -0.358 A  
HETATM   28  C   UNL     1      -9.228   6.025  74.078  1.00  0.00    -0.132 A  
HETATM   29  C   UNL     1      -9.467   4.906  73.279  1.00  0.00    -0.134 A  
HETATM   30  C   UNL     1     -10.334   4.994  72.171  1.00  0.00    -0.276 A  
ENDBRANCH  23  25
ENDBRANCH  22  23
ENDBRANCH   6  22
TORSDOF 4
ENDMDL
MODEL      142
REMARK 921   NORMALIZED FREE ENERGY PREDICTED BY IDOCK:   -4.24 KCAL/MOL
REMARK 922        TOTAL FREE ENERGY PREDICTED BY IDOCK:   -5.78 KCAL/MOL
REMARK 923 INTER-LIGAND FREE ENERGY PREDICTED BY IDOCK:   -5.03 KCAL/MOL
REMARK 924 INTRA-LIGAND FREE ENERGY PREDICTED BY IDOCK:   -0.75 KCAL/MOL
REMARK 927      BINDING AFFINITY PREDICTED BY RF-SCORE:    0.00 PKD
ROOT
HETATM    1  C   UNL     1      -9.556   7.898  68.550  1.00  0.00    -0.150 C  
HETATM    2  O   UNL     1     -10.786   8.633  68.342  1.00  0.00    -0.160 OA 
HETATM    3  C   UNL     1     -10.414   9.583  67.406  1.00  0.00    -0.272 A  
HETATM    4  C   UNL     1     -11.051  10.738  67.038  1.00  0.00    -0.174 A  
HETATM    5  C   UNL     1     -10.571  11.366  65.866  1.00  0.00    -0.317 A  
HETATM    6  C   UNL     1      -9.714   6.465  68.994  1.00  0.00    -0.134 C  
HETATM    7  C   UNL     1     -10.102   5.537  68.084  1.00  0.00    -0.221 C  
HETATM    8  C   UNL     1      -9.550  10.795  65.046  1.00  0.00    -0.305 A  
HETATM    9  C   UNL     1      -8.935   9.615  65.437  1.00  0.00    -0.231 A  
HETATM   10  C   UNL     1      -9.303   9.163  66.691  1.00  0.00    -0.228 A  
HETATM   11  C   UNL     1      -8.760   7.916  67.260  1.00  0.00    -0.131 C  
HETATM   12  C   UNL     1      -7.247   8.075  67.528  1.00  0.00    -0.088 C  
HETATM   13  C   UNL     1      -6.495   6.868  67.021  1.00  0.00    -0.046 C  
HETATM   14  N   UNL     1      -6.724   6.626  65.589  1.00  0.00    -0.050 NA 
HETATM   15  C   UNL     1      -6.450   5.205  65.341  1.00  0.00    -0.036 C  
HETATM   16  C   UNL     1      -8.052   7.089  65.087  1.00  0.00    -0.124 C  
HETATM   17  C   UNL     1      -8.027   8.678  64.622  1.00  0.00    -0.141 C  
HETATM   18  C   UNL     1      -9.169   6.929  66.145  1.00  0.00    -0.118 C  
HETATM   19  C   UNL     1      -9.647   5.563  66.637  1.00  0.00    -0.163 C  
ENDROOT
BRANCH   4  20
HETATM   20  O   UNL     1     -12.078  11.360  67.684  1.00  0.00    -0.630 OA 
HETATM   21  C   UNL     1     -11.852  11.817  69.016  1.00  0.00    -0.317 C  
ENDBRANCH   4  20
BRANCH   6  22
HETATM   22  O   UNL     1      -8.601   6.165  69.880  1.00  0.00    -0.129 OA 
BRANCH  22  23
HETATM   23  C   UNL     1      -8.029   4.934  69.984  1.00  0.00    -0.073 C  
HETATM   24  O   UNL     1      -7.283   4.406  69.163  1.00  0.00    -0.051 OA 
BRANCH  23  25
HETATM   25  C   UNL     1      -8.452   4.255  71.244  1.00  0.00    -0.111 A  
HETATM   26  C   UNL     1      -7.974   4.795  72.451  1.00  0.00    -0.099 A  
HETATM   27  C   UNL     1      -8.258   4.180  73.676  1.00  0.00    -0.089 A  
HETATM   28  C   UNL     1      -9.034   3.023  73.706  1.00  0.00    -0.075 A  
HETATM   29  C   UNL     1      -9.537   2.488  72.519  1.00  0.00    -0.175 A  
HETATM   30  C   UNL     1      -9.250   3.104  71.283  1.00  0.00    -0.193 A  
ENDBRANCH  23  25
ENDBRANCH  22  23
ENDBRANCH   6  22
TORSDOF 4
ENDMDL
MODEL      143
REMARK 921   NORMALIZED FREE ENERGY PREDICTED BY IDOCK:   -4.17 KCAL/MOL
REMARK 922        TOTAL FREE ENERGY PREDICTED BY IDOCK:   -5.70 KCAL/MOL
REMARK 923 INTER-LIGAND FREE ENERGY PREDICTED BY IDOCK:   -5.06 KCAL/MOL
REMARK 924 INTRA-LIGAND FREE ENERGY PREDICTED BY IDOCK:   -0.64 KCAL/MOL
REMARK 927      BINDING AFFINITY PREDICTED BY RF-SCORE:    0.00 PKD
ROOT
HETATM    1  C   UNL     1      -9.404  15.457  67.898  1.00  0.00    -0.192 C  
HETATM    2  O   UNL     1      -9.653  16.304  66.751  1.00  0.00    -0.223 OA 
HETATM    3  C   UNL     1      -8.749  17.336  66.938  1.00  0.00    -0.240 A  
HETATM    4  C   UNL     1      -8.710  18.575  66.354  1.00  0.00    -0.260 A  
HETATM    5  C   UNL     1      -7.518  19.311  66.539  1.00  0.00    -0.258 A  
HETATM    6  C   UNL     1      -9.727  13.994  67.718  1.00  0.00    -0.228 C  
HETATM    7  C   UNL     1      -8.888  13.225  66.980  1.00  0.00    -0.216 C  
HETATM    8  C   UNL     1      -6.374  18.776  67.206  1.00  0.00    -0.189 A  
HETATM    9  C   UNL     1      -6.440  17.511  67.773  1.00  0.00    -0.163 A  
HETATM   10  C   UNL     1      -7.694  16.929  67.738  1.00  0.00    -0.184 A  
HETATM   11  C   UNL     1      -7.942  15.581  68.281  1.00  0.00    -0.132 C  
HETATM   12  C   UNL     1      -7.754  15.589  69.814  1.00  0.00    -0.049 C  
HETATM   13  C   UNL     1      -6.924  14.404  70.246  1.00  0.00     0.177 C  
HETATM   14  N   UNL     1      -5.612  14.368  69.584  1.00  0.00    -0.093 NA 
HETATM   15  C   UNL     1      -5.150  12.975  69.614  1.00  0.00    -0.077 C  
HETATM   16  C   UNL     1      -5.585  14.992  68.228  1.00  0.00    -0.118 C  
HETATM   17  C   UNL     1      -5.297  16.622  68.294  1.00  0.00    -0.115 C  
HETATM   18  C   UNL     1      -6.909  14.782  67.458  1.00  0.00    -0.181 C  
HETATM   19  C   UNL     1      -7.381  13.404  66.994  1.00  0.00     0.292 C  
ENDROOT
BRANCH   4  20
HETATM   20  O   UNL     1      -9.697  19.184  65.636  1.00  0.00    -0.350 OA 
HETATM   21  C   UNL     1     -10.642  19.985  66.342  1.00  0.00    -0.344 C  
ENDBRANCH   4  20
BRANCH   6  22
HETATM   22  O   UNL     1     -10.200  13.498  69.000  1.00  0.00    -0.112 OA 
BRANCH  22  23
HETATM   23  C   UNL     1     -11.312  12.728  69.149  1.00  0.00    -0.281 C  
HETATM   24  O   UNL     1     -12.465  13.131  69.272  1.00  0.00    -0.071 OA 
BRANCH  23  25
HETATM   25  C   UNL     1     -10.956  11.278  69.179  1.00  0.00    -0.292 A  
HETATM   26  C   UNL     1     -10.872  10.616  67.943  1.00  0.00    -0.328 A  
HETATM   27  C   UNL     1     -10.618   9.241  67.880  1.00  0.00    -0.288 A  
HETATM   28  C   UNL     1     -10.433   8.517  69.055  1.00  0.00    -0.216 A  
HETATM   29  C   UNL     1     -10.488   9.164  70.291  1.00  0.00    -0.257 A  
HETATM   30  C   UNL     1     -10.747  10.549  70.358  1.00  0.00    -0.074 A  
ENDBRANCH  23  25
ENDBRANCH  22  23
ENDBRANCH   6  22
TORSDOF 4
ENDMDL
MODEL      144
REMARK 921   NORMALIZED FREE ENERGY PREDICTED BY IDOCK:   -4.16 KCAL/MOL
REMARK 922        TOTAL FREE ENERGY PREDICTED BY IDOCK:   -5.69 KCAL/MOL
REMARK 923 INTER-LIGAND FREE ENERGY PREDICTED BY IDOCK:   -5.00 KCAL/MOL
REMARK 924 INTRA-LIGAND FREE ENERGY PREDICTED BY IDOCK:   -0.69 KCAL/MOL
REMARK 927      BINDING AFFINITY PREDICTED BY RF-SCORE:    0.00 PKD
ROOT
HETATM    1  C   UNL     1      -9.200   9.506  67.488  1.00  0.00    -0.126 C  
HETATM    2  O   UNL     1     -10.542   9.925  67.145  1.00  0.00    -0.245 OA 
HETATM    3  C   UNL     1     -10.341  10.662  65.990  1.00  0.00    -0.225 A  
HETATM    4  C   UNL     1     -11.178  11.551  65.368  1.00  0.00    -0.140 A  
HETATM    5  C   UNL     1     -10.806  11.942  64.061  1.00  0.00    -0.438 A  
HETATM    6  C   UNL     1      -9.094   8.225  68.280  1.00  0.00    -0.135 C  
HETATM    7  C   UNL     1      -9.289   7.044  67.642  1.00  0.00    -0.128 C  
HETATM    8  C   UNL     1      -9.686  11.382  63.375  1.00  0.00    -0.385 A  
HETATM    9  C   UNL     1      -8.867  10.472  64.027  1.00  0.00    -0.206 A  
HETATM   10  C   UNL     1      -9.161  10.289  65.366  1.00  0.00    -0.236 A  
HETATM   11  C   UNL     1      -8.403   9.346  66.208  1.00  0.00    -0.117 C  
HETATM   12  C   UNL     1      -6.950   9.843  66.377  1.00  0.00    -0.095 C  
HETATM   13  C   UNL     1      -5.979   8.708  66.162  1.00  0.00    -0.048 C  
HETATM   14  N   UNL     1      -6.139   8.077  64.844  1.00  0.00    -0.045 NA 
HETATM   15  C   UNL     1      -5.601   6.714  64.947  1.00  0.00    -0.030 C  
HETATM   16  C   UNL     1      -7.523   8.146  64.287  1.00  0.00    -0.101 C  
HETATM   17  C   UNL     1      -7.788   9.544  63.440  1.00  0.00    -0.132 C  
HETATM   18  C   UNL     1      -8.605   8.054  65.388  1.00  0.00    -0.138 C  
HETATM   19  C   UNL     1      -8.826   6.790  66.219  1.00  0.00    -0.158 C  
ENDROOT
BRANCH   4  20
HETATM   20  O   UNL     1     -12.311  12.115  65.873  1.00  0.00    -0.561 OA 
HETATM   21  C   UNL     1     -12.172  13.099  66.896  1.00  0.00    -0.222 C  
ENDBRANCH   4  20
BRANCH   6  22
HETATM   22  O   UNL     1      -7.957   8.368  69.174  1.00  0.00    -0.106 OA 
BRANCH  22  23
HETATM   23  C   UNL     1      -7.358   7.321  69.807  1.00  0.00    -0.084 C  
HETATM   24  O   UNL     1      -6.597   6.503  69.300  1.00  0.00    -0.041 OA 
BRANCH  23  25
HETATM   25  C   UNL     1      -7.774   7.257  71.239  1.00  0.00    -0.088 A  
HETATM   26  C   UNL     1      -7.418   8.343  72.057  1.00  0.00    -0.135 A  
HETATM   27  C   UNL     1      -7.700   8.335  73.428  1.00  0.00    -0.183 A  
HETATM   28  C   UNL     1      -8.354   7.243  73.992  1.00  0.00    -0.198 A  
HETATM   29  C   UNL     1      -8.737   6.166  73.191  1.00  0.00    -0.120 A  
HETATM   30  C   UNL     1      -8.451   6.170  71.810  1.00  0.00    -0.129 A  
ENDBRANCH  23  25
ENDBRANCH  22  23
ENDBRANCH   6  22
TORSDOF 4
ENDMDL
MODEL      145
REMARK 921   NORMALIZED FREE ENERGY PREDICTED BY IDOCK:   -4.13 KCAL/MOL
REMARK 922        TOTAL FREE ENERGY PREDICTED BY IDOCK:   -5.65 KCAL/MOL
REMARK 923 INTER-LIGAND FREE ENERGY PREDICTED BY IDOCK:   -5.18 KCAL/MOL
REMARK 924 INTRA-LIGAND FREE ENERGY PREDICTED BY IDOCK:   -0.47 KCAL/MOL
REMARK 927      BINDING AFFINITY PREDICTED BY RF-SCORE:    0.00 PKD
ROOT
HETATM    1  C   UNL     1      -9.293   8.703  68.661  1.00  0.00    -0.142 C  
HETATM    2  O   UNL     1      -9.365   8.047  67.373  1.00  0.00    -0.140 OA 
HETATM    3  C   UNL     1      -8.070   7.590  67.196  1.00  0.00    -0.118 A  
HETATM    4  C   UNL     1      -7.448   7.159  66.053  1.00  0.00    -0.080 A  
HETATM    5  C   UNL     1      -6.211   6.497  66.232  1.00  0.00    -0.038 A  
HETATM    6  C   UNL     1     -10.583   8.762  69.441  1.00  0.00    -0.209 C  
HETATM    7  C   UNL     1     -11.032   7.636  70.051  1.00  0.00    -0.237 C  
HETATM    8  C   UNL     1      -5.673   6.199  67.521  1.00  0.00    -0.016 A  
HETATM    9  C   UNL     1      -6.335   6.635  68.659  1.00  0.00    -0.031 A  
HETATM   10  C   UNL     1      -7.425   7.451  68.414  1.00  0.00    -0.105 A  
HETATM   11  C   UNL     1      -8.254   7.992  69.506  1.00  0.00    -0.122 C  
HETATM   12  C   UNL     1      -7.428   8.989  70.350  1.00  0.00    -0.089 C  
HETATM   13  C   UNL     1      -7.625   8.719  71.822  1.00  0.00    -0.038 C  
HETATM   14  N   UNL     1      -7.270   7.341  72.191  1.00  0.00    -0.067 NA 
HETATM   15  C   UNL     1      -7.998   7.022  73.426  1.00  0.00    -0.096 C  
HETATM   16  C   UNL     1      -7.452   6.340  71.098  1.00  0.00    -0.085 C  
HETATM   17  C   UNL     1      -6.117   6.223  70.126  1.00  0.00    -0.030 C  
HETATM   18  C   UNL     1      -8.662   6.671  70.193  1.00  0.00    -0.141 C  
HETATM   19  C   UNL     1     -10.104   6.626  70.699  1.00  0.00    -0.205 C  
ENDROOT
BRANCH   4  20
HETATM   20  O   UNL     1      -7.875   7.314  64.768  1.00  0.00    -0.114 OA 
HETATM   21  C   UNL     1      -6.943   7.069  63.718  1.00  0.00    -0.057 C  
ENDBRANCH   4  20
BRANCH   6  22
HETATM   22  O   UNL     1     -10.580  10.014  70.181  1.00  0.00    -0.264 OA 
BRANCH  22  23
HETATM   23  C   UNL     1     -11.701  10.591  70.695  1.00  0.00    -0.357 C  
HETATM   24  O   UNL     1     -12.560  10.034  71.373  1.00  0.00    -0.349 OA 
BRANCH  23  25
HETATM   25  C   UNL     1     -11.790  12.027  70.298  1.00  0.00    -0.356 A  
HETATM   26  C   UNL     1     -12.529  12.876  71.139  1.00  0.00    -0.344 A  
HETATM   27  C   UNL     1     -12.729  14.221  70.806  1.00  0.00    -0.419 A  
HETATM   28  C   UNL     1     -12.181  14.733  69.633  1.00  0.00    -0.310 A  
HETATM   29  C   UNL     1     -11.423  13.909  68.799  1.00  0.00    -0.327 A  
HETATM   30  C   UNL     1     -11.222  12.553  69.129  1.00  0.00    -0.297 A  
ENDBRANCH  23  25
ENDBRANCH  22  23
ENDBRANCH   6  22
TORSDOF 4
ENDMDL
MODEL      146
REMARK 921   NORMALIZED FREE ENERGY PREDICTED BY IDOCK:   -4.03 KCAL/MOL
REMARK 922        TOTAL FREE ENERGY PREDICTED BY IDOCK:   -5.52 KCAL/MOL
REMARK 923 INTER-LIGAND FREE ENERGY PREDICTED BY IDOCK:   -4.33 KCAL/MOL
REMARK 924 INTRA-LIGAND FREE ENERGY PREDICTED BY IDOCK:   -1.19 KCAL/MOL
REMARK 927      BINDING AFFINITY PREDICTED BY RF-SCORE:    0.00 PKD
ROOT
HETATM    1  C   UNL     1     -10.089   6.436  70.192  1.00  0.00    -0.173 C  
HETATM    2  O   UNL     1     -11.007   5.832  71.135  1.00  0.00    -0.265 OA 
HETATM    3  C   UNL     1     -10.151   5.245  72.052  1.00  0.00    -0.194 A  
HETATM    4  C   UNL     1     -10.414   4.289  72.998  1.00  0.00    -0.180 A  
HETATM    5  C   UNL     1      -9.405   4.083  73.967  1.00  0.00    -0.109 A  
HETATM    6  C   UNL     1     -10.611   7.640  69.447  1.00  0.00    -0.215 C  
HETATM    7  C   UNL     1     -10.701   8.825  70.102  1.00  0.00    -0.239 C  
HETATM    8  C   UNL     1      -8.222   4.879  74.034  1.00  0.00    -0.104 A  
HETATM    9  C   UNL     1      -7.993   5.850  73.070  1.00  0.00    -0.106 A  
HETATM   10  C   UNL     1      -8.911   5.862  72.036  1.00  0.00    -0.137 A  
HETATM   11  C   UNL     1      -8.831   6.838  70.934  1.00  0.00    -0.146 C  
HETATM   12  C   UNL     1      -7.563   6.576  70.090  1.00  0.00    -0.096 C  
HETATM   13  C   UNL     1      -6.839   7.870  69.816  1.00  0.00    -0.042 C  
HETATM   14  N   UNL     1      -6.475   8.581  71.050  1.00  0.00    -0.041 NA 
HETATM   15  C   UNL     1      -6.316   9.999  70.703  1.00  0.00    -0.100 C  
HETATM   16  C   UNL     1      -7.394   8.334  72.201  1.00  0.00    -0.102 C  
HETATM   17  C   UNL     1      -6.962   6.992  73.070  1.00  0.00    -0.073 C  
HETATM   18  C   UNL     1      -8.861   8.147  71.752  1.00  0.00    -0.206 C  
HETATM   19  C   UNL     1      -9.681   9.278  71.129  1.00  0.00    -0.327 C  
ENDROOT
BRANCH   4  20
HETATM   20  O   UNL     1     -11.523   3.502  73.096  1.00  0.00    -0.049 OA 
HETATM   21  C   UNL     1     -11.363   2.178  73.600  1.00  0.00    -0.220 C  
ENDBRANCH   4  20
BRANCH   6  22
HETATM   22  O   UNL     1     -10.024   7.609  68.117  1.00  0.00    -0.163 OA 
BRANCH  22  23
HETATM   23  C   UNL     1     -10.386   6.719  67.153  1.00  0.00    -0.258 C  
HETATM   24  O   UNL     1     -11.524   6.523  66.733  1.00  0.00    -0.155 OA 
BRANCH  23  25
HETATM   25  C   UNL     1      -9.202   5.952  66.664  1.00  0.00    -0.147 A  
HETATM   26  C   UNL     1      -8.415   6.557  65.670  1.00  0.00    -0.146 A  
HETATM   27  C   UNL     1      -7.331   5.881  65.100  1.00  0.00    -0.076 A  
HETATM   28  C   UNL     1      -7.016   4.594  65.528  1.00  0.00    -0.062 A  
HETATM   29  C   UNL     1      -7.772   3.987  66.532  1.00  0.00    -0.089 A  
HETATM   30  C   UNL     1      -8.867   4.664  67.107  1.00  0.00    -0.109 A  
ENDBRANCH  23  25
ENDBRANCH  22  23
ENDBRANCH   6  22
TORSDOF 4
ENDMDL
MODEL      147
REMARK 921   NORMALIZED FREE ENERGY PREDICTED BY IDOCK:   -4.00 KCAL/MOL
REMARK 922        TOTAL FREE ENERGY PREDICTED BY IDOCK:   -5.49 KCAL/MOL
REMARK 923 INTER-LIGAND FREE ENERGY PREDICTED BY IDOCK:   -4.51 KCAL/MOL
REMARK 924 INTRA-LIGAND FREE ENERGY PREDICTED BY IDOCK:   -0.98 KCAL/MOL
REMARK 927      BINDING AFFINITY PREDICTED BY RF-SCORE:    0.00 PKD
ROOT
HETATM    1  C   UNL     1      -9.294   8.157  67.528  1.00  0.00    -0.140 C  
HETATM    2  O   UNL     1      -9.491   7.634  66.193  1.00  0.00    -0.149 OA 
HETATM    3  C   UNL     1      -8.224   7.189  65.854  1.00  0.00    -0.132 A  
HETATM    4  C   UNL     1      -7.714   6.871  64.623  1.00  0.00    -0.116 A  
HETATM    5  C   UNL     1      -6.476   6.188  64.622  1.00  0.00    -0.034 A  
HETATM    6  C   UNL     1     -10.508   8.146  68.425  1.00  0.00    -0.161 C  
HETATM    7  C   UNL     1     -10.916   6.967  68.958  1.00  0.00    -0.225 C  
HETATM    8  C   UNL     1      -5.829   5.759  65.820  1.00  0.00    -0.021 A  
HETATM    9  C   UNL     1      -6.379   6.083  67.052  1.00  0.00    -0.042 A  
HETATM   10  C   UNL     1      -7.474   6.925  66.989  1.00  0.00    -0.087 A  
HETATM   11  C   UNL     1      -8.193   7.360  68.200  1.00  0.00    -0.124 C  
HETATM   12  C   UNL     1      -7.280   8.262  69.060  1.00  0.00    -0.073 C  
HETATM   13  C   UNL     1      -7.348   7.847  70.509  1.00  0.00    -0.067 C  
HETATM   14  N   UNL     1      -6.981   6.438  70.706  1.00  0.00    -0.066 NA 
HETATM   15  C   UNL     1      -7.599   6.001  71.965  1.00  0.00    -0.097 C  
HETATM   16  C   UNL     1      -7.276   5.552  69.541  1.00  0.00    -0.065 C  
HETATM   17  C   UNL     1      -6.036   5.525  68.444  1.00  0.00    -0.017 C  
HETATM   18  C   UNL     1      -8.557   5.979  68.788  1.00  0.00    -0.112 C  
HETATM   19  C   UNL     1      -9.948   5.891  69.416  1.00  0.00    -0.229 C  
ENDROOT
BRANCH   4  20
HETATM   20  O   UNL     1      -8.253   7.157  63.404  1.00  0.00    -0.048 OA 
HETATM   21  C   UNL     1      -8.194   8.505  62.944  1.00  0.00    -0.172 C  
ENDBRANCH   4  20
BRANCH   6  22
HETATM   22  O   UNL     1     -10.419   9.317  69.281  1.00  0.00    -0.210 OA 
BRANCH  22  23
HETATM   23  C   UNL     1     -11.228  10.405  69.158  1.00  0.00    -0.246 C  
HETATM   24  O   UNL     1     -12.274  10.607  69.770  1.00  0.00    -0.305 OA 
BRANCH  23  25
HETATM   25  C   UNL     1     -10.698  11.349  68.131  1.00  0.00    -0.241 A  
HETATM   26  C   UNL     1      -9.371  11.782  68.286  1.00  0.00    -0.193 A  
HETATM   27  C   UNL     1      -8.815  12.725  67.414  1.00  0.00    -0.190 A  
HETATM   28  C   UNL     1      -9.580  13.236  66.369  1.00  0.00    -0.260 A  
HETATM   29  C   UNL     1     -10.893  12.799  66.185  1.00  0.00    -0.303 A  
HETATM   30  C   UNL     1     -11.457  11.851  67.064  1.00  0.00    -0.384 A  
ENDBRANCH  23  25
ENDBRANCH  22  23
ENDBRANCH   6  22
TORSDOF 4
ENDMDL
MODEL      148
REMARK 921   NORMALIZED FREE ENERGY PREDICTED BY IDOCK:   -3.96 KCAL/MOL
REMARK 922        TOTAL FREE ENERGY PREDICTED BY IDOCK:   -5.44 KCAL/MOL
REMARK 923 INTER-LIGAND FREE ENERGY PREDICTED BY IDOCK:   -4.97 KCAL/MOL
REMARK 924 INTRA-LIGAND FREE ENERGY PREDICTED BY IDOCK:   -0.47 KCAL/MOL
REMARK 927      BINDING AFFINITY PREDICTED BY RF-SCORE:    0.00 PKD
ROOT
HETATM    1  C   UNL     1      -8.544   7.622  69.545  1.00  0.00    -0.132 C  
HETATM    2  O   UNL     1      -7.955   6.493  68.856  1.00  0.00    -0.108 OA 
HETATM    3  C   UNL     1      -7.848   5.549  69.863  1.00  0.00    -0.082 A  
HETATM    4  C   UNL     1      -7.106   4.398  69.902  1.00  0.00    -0.046 A  
HETATM    5  C   UNL     1      -7.408   3.499  70.950  1.00  0.00    -0.037 A  
HETATM    6  C   UNL     1      -9.357   8.562  68.689  1.00  0.00    -0.142 C  
HETATM    7  C   UNL     1     -10.594   8.176  68.287  1.00  0.00    -0.153 C  
HETATM    8  C   UNL     1      -8.484   3.712  71.865  1.00  0.00    -0.097 A  
HETATM    9  C   UNL     1      -9.228   4.881  71.789  1.00  0.00    -0.175 A  
HETATM   10  C   UNL     1      -8.753   5.808  70.880  1.00  0.00    -0.135 A  
HETATM   11  C   UNL     1      -9.430   7.098  70.658  1.00  0.00    -0.161 C  
HETATM   12  C   UNL     1      -9.325   7.973  71.927  1.00  0.00    -0.225 C  
HETATM   13  C   UNL     1     -10.665   8.585  72.254  1.00  0.00    -0.341 C  
HETATM   14  N   UNL     1     -11.715   7.572  72.433  1.00  0.00    -0.302 NA 
HETATM   15  C   UNL     1     -13.002   8.233  72.181  1.00  0.00    -0.299 C  
HETATM   16  C   UNL     1     -11.507   6.319  71.649  1.00  0.00    -0.296 C  
HETATM   17  C   UNL     1     -10.571   5.220  72.460  1.00  0.00    -0.276 C  
HETATM   18  C   UNL     1     -10.836   6.586  70.282  1.00  0.00    -0.333 C  
HETATM   19  C   UNL     1     -11.529   7.366  69.164  1.00  0.00     0.385 C  
ENDROOT
BRANCH   4  20
HETATM   20  O   UNL     1      -6.097   4.033  69.059  1.00  0.00    -0.026 OA 
HETATM   21  C   UNL     1      -5.948   2.649  68.753  1.00  0.00    -0.024 C  
ENDBRANCH   4  20
BRANCH   6  22
HETATM   22  O   UNL     1      -9.173   9.899  69.229  1.00  0.00    -0.174 OA 
BRANCH  22  23
HETATM   23  C   UNL     1     -10.168  10.825  69.308  1.00  0.00    -0.194 C  
HETATM   24  O   UNL     1     -10.774  11.158  70.323  1.00  0.00     0.144 OA 
BRANCH  23  25
HETATM   25  C   UNL     1     -10.477  11.391  67.961  1.00  0.00    -0.215 A  
HETATM   26  C   UNL     1      -9.425  11.434  67.031  1.00  0.00    -0.186 A  
HETATM   27  C   UNL     1      -9.602  12.016  65.771  1.00  0.00    -0.227 A  
HETATM   28  C   UNL     1     -10.840  12.551  65.424  1.00  0.00    -0.316 A  
HETATM   29  C   UNL     1     -11.903  12.495  66.327  1.00  0.00    -0.453 A  
HETATM   30  C   UNL     1     -11.727  11.912  67.599  1.00  0.00    -0.346 A  
ENDBRANCH  23  25
ENDBRANCH  22  23
ENDBRANCH   6  22
TORSDOF 4
ENDMDL
MODEL      149
REMARK 921   NORMALIZED FREE ENERGY PREDICTED BY IDOCK:   -3.93 KCAL/MOL
REMARK 922        TOTAL FREE ENERGY PREDICTED BY IDOCK:   -5.40 KCAL/MOL
REMARK 923 INTER-LIGAND FREE ENERGY PREDICTED BY IDOCK:   -4.90 KCAL/MOL
REMARK 924 INTRA-LIGAND FREE ENERGY PREDICTED BY IDOCK:   -0.50 KCAL/MOL
REMARK 927      BINDING AFFINITY PREDICTED BY RF-SCORE:    0.00 PKD
ROOT
HETATM    1  C   UNL     1      -8.656   8.336  67.782  1.00  0.00    -0.131 C  
HETATM    2  O   UNL     1      -8.973   8.291  69.194  1.00  0.00    -0.146 OA 
HETATM    3  C   UNL     1      -9.494   7.016  69.345  1.00  0.00    -0.145 A  
HETATM    4  C   UNL     1     -10.234   6.495  70.374  1.00  0.00    -0.193 A  
HETATM    5  C   UNL     1     -10.391   5.090  70.374  1.00  0.00    -0.297 A  
HETATM    6  C   UNL     1      -7.544   9.276  67.388  1.00  0.00    -0.088 C  
HETATM    7  C   UNL     1      -6.262   8.919  67.654  1.00  0.00    -0.056 C  
HETATM    8  C   UNL     1      -9.744   4.239  69.427  1.00  0.00    -0.257 A  
HETATM    9  C   UNL     1      -8.988   4.797  68.407  1.00  0.00    -0.134 A  
HETATM   10  C   UNL     1      -9.043   6.177  68.339  1.00  0.00    -0.113 A  
HETATM   11  C   UNL     1      -8.288   6.938  67.327  1.00  0.00    -0.121 C  
HETATM   12  C   UNL     1      -8.843   6.634  65.917  1.00  0.00    -0.126 C  
HETATM   13  C   UNL     1      -7.712   6.366  64.955  1.00  0.00    -0.104 C  
HETATM   14  N   UNL     1      -6.849   5.261  65.398  1.00  0.00    -0.059 NA 
HETATM   15  C   UNL     1      -5.542   5.448  64.755  1.00  0.00    -0.017 C  
HETATM   16  C   UNL     1      -6.782   5.083  66.879  1.00  0.00    -0.055 C  
HETATM   17  C   UNL     1      -7.997   4.113  67.449  1.00  0.00    -0.092 C  
HETATM   18  C   UNL     1      -6.864   6.428  67.637  1.00  0.00    -0.076 C  
HETATM   19  C   UNL     1      -5.766   7.490  67.550  1.00  0.00    -0.035 C  
ENDROOT
BRANCH   4  20
HETATM   20  O   UNL     1     -10.851   7.177  71.379  1.00  0.00    -0.229 OA 
HETATM   21  C   UNL     1     -11.943   6.547  72.045  1.00  0.00    -0.326 C  
ENDBRANCH   4  20
BRANCH   6  22
HETATM   22  O   UNL     1      -7.874   9.804  66.075  1.00  0.00    -0.104 OA 
BRANCH  22  23
HETATM   23  C   UNL     1      -9.126  10.195  65.711  1.00  0.00    -0.171 C  
HETATM   24  O   UNL     1      -9.716   9.882  64.681  1.00  0.00    -0.303 OA 
BRANCH  23  25
HETATM   25  C   UNL     1      -9.715  11.111  66.732  1.00  0.00    -0.220 A  
HETATM   26  C   UNL     1      -8.991  12.277  67.036  1.00  0.00    -0.204 A  
HETATM   27  C   UNL     1      -9.429  13.155  68.034  1.00  0.00    -0.220 A  
HETATM   28  C   UNL     1     -10.604  12.881  68.730  1.00  0.00    -0.217 A  
HETATM   29  C   UNL     1     -11.348  11.741  68.423  1.00  0.00    -0.328 A  
HETATM   30  C   UNL     1     -10.908  10.852  67.421  1.00  0.00    -0.333 A  
ENDBRANCH  23  25
ENDBRANCH  22  23
ENDBRANCH   6  22
TORSDOF 4
ENDMDL
MODEL      150
REMARK 921   NORMALIZED FREE ENERGY PREDICTED BY IDOCK:   -3.91 KCAL/MOL
REMARK 922        TOTAL FREE ENERGY PREDICTED BY IDOCK:   -5.38 KCAL/MOL
REMARK 923 INTER-LIGAND FREE ENERGY PREDICTED BY IDOCK:   -4.97 KCAL/MOL
REMARK 924 INTRA-LIGAND FREE ENERGY PREDICTED BY IDOCK:   -0.41 KCAL/MOL
REMARK 927      BINDING AFFINITY PREDICTED BY RF-SCORE:    0.00 PKD
ROOT
HETATM    1  C   UNL     1      -9.268   7.975  69.886  1.00  0.00    -0.152 C  
HETATM    2  O   UNL     1      -9.293   7.686  71.304  1.00  0.00    -0.148 OA 
HETATM    3  C   UNL     1      -9.040   6.326  71.339  1.00  0.00    -0.142 A  
HETATM    4  C   UNL     1      -9.230   5.431  72.359  1.00  0.00    -0.141 A  
HETATM    5  C   UNL     1      -8.627   4.163  72.192  1.00  0.00    -0.115 A  
HETATM    6  C   UNL     1      -8.887   9.386  69.509  1.00  0.00    -0.162 C  
HETATM    7  C   UNL     1      -7.585   9.757  69.597  1.00  0.00    -0.120 C  
HETATM    8  C   UNL     1      -7.785   3.847  71.083  1.00  0.00    -0.055 A  
HETATM    9  C   UNL     1      -7.600   4.781  70.074  1.00  0.00    -0.055 A  
HETATM   10  C   UNL     1      -8.377   5.918  70.192  1.00  0.00    -0.118 A  
HETATM   11  C   UNL     1      -8.298   7.021  69.217  1.00  0.00    -0.129 C  
HETATM   12  C   UNL     1      -8.821   6.548  67.843  1.00  0.00    -0.114 C  
HETATM   13  C   UNL     1      -7.880   6.983  66.746  1.00  0.00    -0.107 C  
HETATM   14  N   UNL     1      -6.511   6.490  66.953  1.00  0.00    -0.041 NA 
HETATM   15  C   UNL     1      -5.612   7.385  66.214  1.00  0.00    -0.028 C  
HETATM   16  C   UNL     1      -6.134   6.291  68.385  1.00  0.00    -0.027 C  
HETATM   17  C   UNL     1      -6.558   4.790  68.941  1.00  0.00    -0.045 C  
HETATM   18  C   UNL     1      -6.790   7.337  69.316  1.00  0.00    -0.054 C  
HETATM   19  C   UNL     1      -6.438   8.824  69.259  1.00  0.00    -0.042 C  
ENDROOT
BRANCH   4  20
HETATM   20  O   UNL     1      -9.950   5.617  73.501  1.00  0.00    -0.161 OA 
HETATM   21  C   UNL     1     -10.095   6.949  73.992  1.00  0.00    -0.348 C  
ENDBRANCH   4  20
BRANCH   6  22
HETATM   22  O   UNL     1      -9.642   9.729  68.315  1.00  0.00    -0.142 OA 
BRANCH  22  23
HETATM   23  C   UNL     1     -10.167  10.963  68.082  1.00  0.00    -0.176 C  
HETATM   24  O   UNL     1     -10.466  11.799  68.930  1.00  0.00    -0.207 OA 
BRANCH  23  25
HETATM   25  C   UNL     1     -10.379  11.184  66.621  1.00  0.00    -0.286 A  
HETATM   26  C   UNL     1      -9.717  10.311  65.741  1.00  0.00    -0.297 A  
HETATM   27  C   UNL     1      -9.797  10.490  64.354  1.00  0.00    -0.405 A  
HETATM   28  C   UNL     1     -10.552  11.538  63.835  1.00  0.00    -0.448 A  
HETATM   29  C   UNL     1     -11.237  12.400  64.694  1.00  0.00    -0.356 A  
HETATM   30  C   UNL     1     -11.155  12.225  66.091  1.00  0.00    -0.349 A  
ENDBRANCH  23  25
ENDBRANCH  22  23
ENDBRANCH   6  22
TORSDOF 4
ENDMDL
MODEL      151
REMARK 921   NORMALIZED FREE ENERGY PREDICTED BY IDOCK:   -3.83 KCAL/MOL
REMARK 922        TOTAL FREE ENERGY PREDICTED BY IDOCK:   -5.28 KCAL/MOL
REMARK 923 INTER-LIGAND FREE ENERGY PREDICTED BY IDOCK:   -4.67 KCAL/MOL
REMARK 924 INTRA-LIGAND FREE ENERGY PREDICTED BY IDOCK:   -0.61 KCAL/MOL
REMARK 927      BINDING AFFINITY PREDICTED BY RF-SCORE:    0.00 PKD
ROOT
HETATM    1  C   UNL     1      -8.801   7.584  67.321  1.00  0.00    -0.124 C  
HETATM    2  O   UNL     1      -8.735   8.476  66.182  1.00  0.00    -0.134 OA 
HETATM    3  C   UNL     1      -7.614   8.020  65.509  1.00  0.00    -0.085 A  
HETATM    4  C   UNL     1      -6.876   8.635  64.532  1.00  0.00    -0.069 A  
HETATM    5  C   UNL     1      -5.952   7.816  63.844  1.00  0.00    -0.057 A  
HETATM    6  C   UNL     1     -10.175   7.368  67.907  1.00  0.00    -0.194 C  
HETATM    7  C   UNL     1     -11.051   6.571  67.245  1.00  0.00    -0.429 C  
HETATM    8  C   UNL     1      -5.848   6.410  64.069  1.00  0.00    -0.023 A  
HETATM    9  C   UNL     1      -6.621   5.813  65.055  1.00  0.00    -0.043 A  
HETATM   10  C   UNL     1      -7.349   6.698  65.829  1.00  0.00    -0.075 A  
HETATM   11  C   UNL     1      -8.237   6.238  66.912  1.00  0.00    -0.109 C  
HETATM   12  C   UNL     1      -7.400   5.604  68.045  1.00  0.00    -0.073 C  
HETATM   13  C   UNL     1      -8.016   4.298  68.484  1.00  0.00    -0.073 C  
HETATM   14  N   UNL     1      -8.156   3.343  67.376  1.00  0.00    -0.081 NA 
HETATM   15  C   UNL     1      -9.222   2.403  67.745  1.00  0.00    -0.192 C  
HETATM   16  C   UNL     1      -8.335   3.974  66.034  1.00  0.00    -0.109 C  
HETATM   17  C   UNL     1      -6.889   4.319  65.305  1.00  0.00    -0.053 C  
HETATM   18  C   UNL     1      -9.148   5.287  66.105  1.00  0.00    -0.148 C  
HETATM   19  C   UNL     1     -10.625   5.320  66.501  1.00  0.00    -0.348 C  
ENDROOT
BRANCH   4  20
HETATM   20  O   UNL     1      -6.917   9.948  64.165  1.00  0.00    -0.120 OA 
HETATM   21  C   UNL     1      -6.727  10.265  62.788  1.00  0.00    -0.139 C  
ENDBRANCH   4  20
BRANCH   6  22
HETATM   22  O   UNL     1     -10.006   7.197  69.341  1.00  0.00    -0.160 OA 
BRANCH  22  23
HETATM   23  C   UNL     1      -9.663   8.207  70.187  1.00  0.00    -0.175 C  
HETATM   24  O   UNL     1      -9.363   9.354  69.867  1.00  0.00    -0.183 OA 
BRANCH  23  25
HETATM   25  C   UNL     1      -9.658   7.737  71.603  1.00  0.00    -0.191 A  
HETATM   26  C   UNL     1     -10.405   6.583  71.895  1.00  0.00    -0.223 A  
HETATM   27  C   UNL     1     -10.519   6.113  73.209  1.00  0.00    -0.261 A  
HETATM   28  C   UNL     1      -9.876   6.788  74.243  1.00  0.00    -0.348 A  
HETATM   29  C   UNL     1      -9.110   7.921  73.968  1.00  0.00    -0.143 A  
HETATM   30  C   UNL     1      -8.995   8.399  72.646  1.00  0.00    -0.304 A  
ENDBRANCH  23  25
ENDBRANCH  22  23
ENDBRANCH   6  22
TORSDOF 4
ENDMDL
MODEL      152
REMARK 921   NORMALIZED FREE ENERGY PREDICTED BY IDOCK:   -3.61 KCAL/MOL
REMARK 922        TOTAL FREE ENERGY PREDICTED BY IDOCK:   -5.01 KCAL/MOL
REMARK 923 INTER-LIGAND FREE ENERGY PREDICTED BY IDOCK:   -4.52 KCAL/MOL
REMARK 924 INTRA-LIGAND FREE ENERGY PREDICTED BY IDOCK:   -0.49 KCAL/MOL
REMARK 927      BINDING AFFINITY PREDICTED BY RF-SCORE:    0.00 PKD
ROOT
HETATM    1  C   UNL     1      -9.836   6.404  71.460  1.00  0.00    -0.168 C  
HETATM    2  O   UNL     1     -10.689   5.658  72.361  1.00  0.00    -0.216 OA 
HETATM    3  C   UNL     1      -9.886   4.586  72.715  1.00  0.00    -0.145 A  
HETATM    4  C   UNL     1     -10.233   3.396  73.300  1.00  0.00    -0.151 A  
HETATM    5  C   UNL     1      -9.163   2.611  73.789  1.00  0.00    -0.091 A  
HETATM    6  C   UNL     1     -10.108   7.886  71.375  1.00  0.00    -0.176 C  
HETATM    7  C   UNL     1      -9.708   8.684  72.397  1.00  0.00    -0.313 C  
HETATM    8  C   UNL     1      -7.806   3.056  73.773  1.00  0.00    -0.064 A  
HETATM    9  C   UNL     1      -7.490   4.274  73.188  1.00  0.00    -0.080 A  
HETATM   10  C   UNL     1      -8.546   4.896  72.547  1.00  0.00    -0.120 A  
HETATM   11  C   UNL     1      -8.394   6.204  71.885  1.00  0.00    -0.118 C  
HETATM   12  C   UNL     1      -7.455   6.071  70.665  1.00  0.00    -0.087 C  
HETATM   13  C   UNL     1      -6.444   7.191  70.658  1.00  0.00    -0.043 C  
HETATM   14  N   UNL     1      -5.650   7.237  71.894  1.00  0.00    -0.036 NA 
HETATM   15  C   UNL     1      -5.144   8.609  72.033  1.00  0.00    -0.038 C  
HETATM   16  C   UNL     1      -6.356   6.721  73.104  1.00  0.00    -0.062 C  
HETATM   17  C   UNL     1      -6.185   5.083  73.279  1.00  0.00    -0.039 C  
HETATM   18  C   UNL     1      -7.871   7.032  73.078  1.00  0.00    -0.102 C  
HETATM   19  C   UNL     1      -8.419   8.457  73.163  1.00  0.00    -0.201 C  
ENDROOT
BRANCH   4  20
HETATM   20  O   UNL     1     -11.485   2.877  73.444  1.00  0.00    -0.178 OA 
HETATM   21  C   UNL     1     -11.719   1.552  72.972  1.00  0.00    -0.006 C  
ENDBRANCH   4  20
BRANCH   6  22
HETATM   22  O   UNL     1      -9.829   8.294  70.008  1.00  0.00    -0.179 OA 
BRANCH  22  23
HETATM   23  C   UNL     1      -9.258   9.485  69.677  1.00  0.00    -0.200 C  
HETATM   24  O   UNL     1      -8.194   9.925  70.102  1.00  0.00    -0.186 OA 
BRANCH  23  25
HETATM   25  C   UNL     1     -10.121  10.243  68.723  1.00  0.00    -0.198 A  
HETATM   26  C   UNL     1      -9.708  10.282  67.381  1.00  0.00    -0.189 A  
HETATM   27  C   UNL     1     -10.415  11.031  66.433  1.00  0.00    -0.312 A  
HETATM   28  C   UNL     1     -11.550  11.740  66.817  1.00  0.00    -0.287 A  
HETATM   29  C   UNL     1     -11.989  11.691  68.142  1.00  0.00    -0.214 A  
HETATM   30  C   UNL     1     -11.278  10.941  69.100  1.00  0.00    -0.318 A  
ENDBRANCH  23  25
ENDBRANCH  22  23
ENDBRANCH   6  22
TORSDOF 4
ENDMDL
MODEL      153
REMARK 921   NORMALIZED FREE ENERGY PREDICTED BY IDOCK:   -3.59 KCAL/MOL
REMARK 922        TOTAL FREE ENERGY PREDICTED BY IDOCK:   -4.98 KCAL/MOL
REMARK 923 INTER-LIGAND FREE ENERGY PREDICTED BY IDOCK:   -4.60 KCAL/MOL
REMARK 924 INTRA-LIGAND FREE ENERGY PREDICTED BY IDOCK:   -0.38 KCAL/MOL
REMARK 927      BINDING AFFINITY PREDICTED BY RF-SCORE:    0.00 PKD
ROOT
HETATM    1  C   UNL     1      -8.097   7.942  69.676  1.00  0.00    -0.117 C  
HETATM    2  O   UNL     1      -6.859   7.910  70.425  1.00  0.00    -0.041 OA 
HETATM    3  C   UNL     1      -6.929   6.686  71.069  1.00  0.00    -0.067 A  
HETATM    4  C   UNL     1      -6.206   6.222  72.136  1.00  0.00    -0.042 A  
HETATM    5  C   UNL     1      -6.309   4.837  72.400  1.00  0.00    -0.033 A  
HETATM    6  C   UNL     1      -8.086   8.783  68.423  1.00  0.00    -0.117 C  
HETATM    7  C   UNL     1      -7.445   8.309  67.324  1.00  0.00    -0.089 C  
HETATM    8  C   UNL     1      -7.038   3.942  71.560  1.00  0.00    -0.032 A  
HETATM    9  C   UNL     1      -7.747   4.441  70.476  1.00  0.00    -0.053 A  
HETATM   10  C   UNL     1      -7.775   5.821  70.394  1.00  0.00    -0.095 A  
HETATM   11  C   UNL     1      -8.469   6.522  69.298  1.00  0.00    -0.127 C  
HETATM   12  C   UNL     1      -9.992   6.285  69.403  1.00  0.00    -0.192 C  
HETATM   13  C   UNL     1     -10.561   5.927  68.052  1.00  0.00    -0.252 C  
HETATM   14  N   UNL     1      -9.913   4.744  67.466  1.00  0.00    -0.165 NA 
HETATM   15  C   UNL     1     -10.105   4.820  66.012  1.00  0.00    -0.257 C  
HETATM   16  C   UNL     1      -8.493   4.544  67.886  1.00  0.00    -0.102 C  
HETATM   17  C   UNL     1      -8.372   3.681  69.293  1.00  0.00    -0.086 C  
HETATM   18  C   UNL     1      -7.747   5.883  68.092  1.00  0.00    -0.100 C  
HETATM   19  C   UNL     1      -7.445   6.842  66.940  1.00  0.00    -0.083 C  
ENDROOT
BRANCH   4  20
HETATM   20  O   UNL     1      -5.419   6.946  72.982  1.00  0.00    -0.038 OA 
HETATM   21  C   UNL     1      -6.025   7.513  74.141  1.00  0.00    -0.072 C  
ENDBRANCH   4  20
BRANCH   6  22
HETATM   22  O   UNL     1      -9.415   9.353  68.277  1.00  0.00    -0.137 OA 
BRANCH  22  23
HETATM   23  C   UNL     1     -10.108   9.362  67.105  1.00  0.00    -0.231 C  
HETATM   24  O   UNL     1     -10.500   8.379  66.483  1.00  0.00    -0.249 OA 
BRANCH  23  25
HETATM   25  C   UNL     1     -10.319  10.759  66.623  1.00  0.00    -0.294 A  
HETATM   26  C   UNL     1     -10.822  11.686  67.551  1.00  0.00    -0.287 A  
HETATM   27  C   UNL     1     -11.122  12.998  67.168  1.00  0.00    -0.304 A  
HETATM   28  C   UNL     1     -10.909  13.400  65.852  1.00  0.00    -0.282 A  
HETATM   29  C   UNL     1     -10.386  12.499  64.922  1.00  0.00    -0.323 A  
HETATM   30  C   UNL     1     -10.086  11.175  65.304  1.00  0.00    -0.329 A  
ENDBRANCH  23  25
ENDBRANCH  22  23
ENDBRANCH   6  22
TORSDOF 4
ENDMDL
MODEL      154
REMARK 921   NORMALIZED FREE ENERGY PREDICTED BY IDOCK:   -3.51 KCAL/MOL
REMARK 922        TOTAL FREE ENERGY PREDICTED BY IDOCK:   -4.89 KCAL/MOL
REMARK 923 INTER-LIGAND FREE ENERGY PREDICTED BY IDOCK:   -4.32 KCAL/MOL
REMARK 924 INTRA-LIGAND FREE ENERGY PREDICTED BY IDOCK:   -0.56 KCAL/MOL
REMARK 927      BINDING AFFINITY PREDICTED BY RF-SCORE:    0.00 PKD
ROOT
HETATM    1  C   UNL     1      -8.447   6.905  68.508  1.00  0.00    -0.123 C  
HETATM    2  O   UNL     1      -8.784   8.307  68.630  1.00  0.00    -0.132 OA 
HETATM    3  C   UNL     1      -8.062   8.880  67.597  1.00  0.00    -0.106 A  
HETATM    4  C   UNL     1      -7.740  10.196  67.386  1.00  0.00    -0.095 A  
HETATM    5  C   UNL     1      -7.228  10.511  66.106  1.00  0.00    -0.136 A  
HETATM    6  C   UNL     1      -9.480   5.934  69.025  1.00  0.00    -0.127 C  
HETATM    7  C   UNL     1     -10.600   5.717  68.290  1.00  0.00    -0.286 C  
HETATM    8  C   UNL     1      -7.136   9.552  65.052  1.00  0.00    -0.109 A  
HETATM    9  C   UNL     1      -7.486   8.231  65.293  1.00  0.00    -0.083 A  
HETATM   10  C   UNL     1      -7.781   7.946  66.614  1.00  0.00    -0.098 A  
HETATM   11  C   UNL     1      -8.187   6.597  67.047  1.00  0.00    -0.113 C  
HETATM   12  C   UNL     1      -7.009   5.611  66.875  1.00  0.00    -0.065 C  
HETATM   13  C   UNL     1      -7.483   4.339  66.217  1.00  0.00    -0.085 C  
HETATM   14  N   UNL     1      -8.121   4.584  64.915  1.00  0.00    -0.098 NA 
HETATM   15  C   UNL     1      -9.009   3.446  64.646  1.00  0.00    -0.127 C  
HETATM   16  C   UNL     1      -8.781   5.918  64.791  1.00  0.00     0.076 C  
HETATM   17  C   UNL     1      -7.730   7.093  64.286  1.00  0.00    -0.117 C  
HETATM   18  C   UNL     1      -9.407   6.390  66.124  1.00  0.00    -0.110 C  
HETATM   19  C   UNL     1     -10.594   5.679  66.773  1.00  0.00    -0.372 C  
ENDROOT
BRANCH   4  20
HETATM   20  O   UNL     1      -7.837  11.225  68.274  1.00  0.00    -0.115 OA 
HETATM   21  C   UNL     1      -6.773  11.408  69.206  1.00  0.00    -0.113 C  
ENDBRANCH   4  20
BRANCH   6  22
HETATM   22  O   UNL     1      -8.762   4.794  69.572  1.00  0.00    -0.084 OA 
BRANCH  22  23
HETATM   23  C   UNL     1      -8.803   4.435  70.885  1.00  0.00    -0.105 C  
HETATM   24  O   UNL     1      -8.401   3.378  71.363  1.00  0.00    -0.066 OA 
BRANCH  23  25
HETATM   25  C   UNL     1      -9.449   5.500  71.708  1.00  0.00    -0.175 A  
HETATM   26  C   UNL     1     -10.819   5.353  71.980  1.00  0.00    -0.266 A  
HETATM   27  C   UNL     1     -11.524   6.340  72.679  1.00  0.00    -0.255 A  
HETATM   28  C   UNL     1     -10.859   7.480  73.125  1.00  0.00    -0.448 A  
HETATM   29  C   UNL     1      -9.492   7.630  72.885  1.00  0.00    -0.262 A  
HETATM   30  C   UNL     1      -8.780   6.639  72.178  1.00  0.00    -0.130 A  
ENDBRANCH  23  25
ENDBRANCH  22  23
ENDBRANCH   6  22
TORSDOF 4
ENDMDL
MODEL      155
REMARK 921   NORMALIZED FREE ENERGY PREDICTED BY IDOCK:   -3.36 KCAL/MOL
REMARK 922        TOTAL FREE ENERGY PREDICTED BY IDOCK:   -4.70 KCAL/MOL
REMARK 923 INTER-LIGAND FREE ENERGY PREDICTED BY IDOCK:   -4.23 KCAL/MOL
REMARK 924 INTRA-LIGAND FREE ENERGY PREDICTED BY IDOCK:   -0.46 KCAL/MOL
REMARK 927      BINDING AFFINITY PREDICTED BY RF-SCORE:    0.00 PKD
ROOT
HETATM    1  C   UNL     1      -8.247   8.540  69.984  1.00  0.00    -0.121 C  
HETATM    2  O   UNL     1      -7.054   9.077  70.601  1.00  0.00    -0.063 OA 
HETATM    3  C   UNL     1      -6.782   8.147  71.590  1.00  0.00    -0.060 A  
HETATM    4  C   UNL     1      -5.963   8.253  72.684  1.00  0.00    -0.065 A  
HETATM    5  C   UNL     1      -5.676   7.047  73.363  1.00  0.00    -0.050 A  
HETATM    6  C   UNL     1      -8.465   8.914  68.538  1.00  0.00    -0.129 C  
HETATM    7  C   UNL     1      -7.712   8.308  67.586  1.00  0.00    -0.099 C  
HETATM    8  C   UNL     1      -6.122   5.772  72.898  1.00  0.00    -0.044 A  
HETATM    9  C   UNL     1      -6.937   5.697  71.778  1.00  0.00    -0.076 A  
HETATM   10  C   UNL     1      -7.349   6.920  71.282  1.00  0.00    -0.081 A  
HETATM   11  C   UNL     1      -8.205   7.029  70.088  1.00  0.00    -0.133 C  
HETATM   12  C   UNL     1      -9.602   6.439  70.386  1.00  0.00    -0.178 C  
HETATM   13  C   UNL     1     -10.041   5.536  69.260  1.00  0.00    -0.223 C  
HETATM   14  N   UNL     1      -9.086   4.447  69.009  1.00  0.00    -0.116 NA 
HETATM   15  C   UNL     1      -9.284   4.007  67.622  1.00  0.00    -0.160 C  
HETATM   16  C   UNL     1      -7.669   4.776  69.349  1.00  0.00    -0.063 C  
HETATM   17  C   UNL     1      -7.318   4.465  70.937  1.00  0.00    -0.048 C  
HETATM   18  C   UNL     1      -7.328   6.259  69.076  1.00  0.00    -0.085 C  
HETATM   19  C   UNL     1      -7.299   6.851  67.667  1.00  0.00    -0.096 C  
ENDROOT
BRANCH   4  20
HETATM   20  O   UNL     1      -5.414   9.389  73.200  1.00  0.00    -0.196 OA 
HETATM   21  C   UNL     1      -5.636  10.615  72.508  1.00  0.00     0.748 C  
ENDBRANCH   4  20
BRANCH   6  22
HETATM   22  O   UNL     1      -9.900   9.033  68.337  1.00  0.00    -0.157 OA 
BRANCH  22  23
HETATM   23  C   UNL     1     -10.539  10.218  68.137  1.00  0.00    -0.221 C  
HETATM   24  O   UNL     1     -10.521  10.890  67.109  1.00  0.00    -0.213 OA 
BRANCH  23  25
HETATM   25  C   UNL     1     -11.267  10.645  69.367  1.00  0.00    -0.329 A  
HETATM   26  C   UNL     1     -11.559   9.649  70.314  1.00  0.00    -0.255 A  
HETATM   27  C   UNL     1     -12.305   9.943  71.462  1.00  0.00    -0.504 A  
HETATM   28  C   UNL     1     -12.756  11.243  71.679  1.00  0.00    -0.448 A  
HETATM   29  C   UNL     1     -12.454  12.250  70.761  1.00  0.00    -0.356 A  
HETATM   30  C   UNL     1     -11.706  11.956  69.602  1.00  0.00    -0.413 A  
ENDBRANCH  23  25
ENDBRANCH  22  23
ENDBRANCH   6  22
TORSDOF 4
ENDMDL
MODEL      156
REMARK 921   NORMALIZED FREE ENERGY PREDICTED BY IDOCK:   -3.33 KCAL/MOL
REMARK 922        TOTAL FREE ENERGY PREDICTED BY IDOCK:   -4.67 KCAL/MOL
REMARK 923 INTER-LIGAND FREE ENERGY PREDICTED BY IDOCK:   -3.89 KCAL/MOL
REMARK 924 INTRA-LIGAND FREE ENERGY PREDICTED BY IDOCK:   -0.77 KCAL/MOL
REMARK 927      BINDING AFFINITY PREDICTED BY RF-SCORE:    0.00 PKD
ROOT
HETATM    1  C   UNL     1      -7.208   6.001  70.026  1.00  0.00    -0.073 C  
HETATM    2  O   UNL     1      -7.114   5.657  71.429  1.00  0.00    -0.068 OA 
HETATM    3  C   UNL     1      -8.155   6.379  71.987  1.00  0.00    -0.108 A  
HETATM    4  C   UNL     1      -8.390   6.695  73.299  1.00  0.00    -0.119 A  
HETATM    5  C   UNL     1      -9.673   7.210  73.593  1.00  0.00    -0.311 A  
HETATM    6  C   UNL     1      -6.677   4.971  69.060  1.00  0.00    -0.049 C  
HETATM    7  C   UNL     1      -7.411   3.855  68.824  1.00  0.00    -0.054 C  
HETATM    8  C   UNL     1     -10.710   7.309  72.615  1.00  0.00    -0.318 A  
HETATM    9  C   UNL     1     -10.445   6.965  71.297  1.00  0.00    -0.228 A  
HETATM   10  C   UNL     1      -9.120   6.668  71.035  1.00  0.00    -0.156 A  
HETATM   11  C   UNL     1      -8.663   6.267  69.692  1.00  0.00    -0.136 C  
HETATM   12  C   UNL     1      -8.814   7.450  68.710  1.00  0.00    -0.130 C  
HETATM   13  C   UNL     1      -9.449   6.984  67.423  1.00  0.00    -0.133 C  
HETATM   14  N   UNL     1     -10.757   6.349  67.641  1.00  0.00    -0.273 NA 
HETATM   15  C   UNL     1     -11.008   5.468  66.494  1.00  0.00    -0.041 C  
HETATM   16  C   UNL     1     -10.908   5.682  68.969  1.00  0.00    -0.181 C  
HETATM   17  C   UNL     1     -11.431   6.729  70.140  1.00  0.00    -0.404 C  
HETATM   18  C   UNL     1      -9.586   5.051  69.463  1.00  0.00    -0.237 C  
HETATM   19  C   UNL     1      -8.926   3.865  68.758  1.00  0.00    -0.172 C  
ENDROOT
BRANCH   4  20
HETATM   20  O   UNL     1      -7.521   6.591  74.345  1.00  0.00    -0.098 OA 
HETATM   21  C   UNL     1      -6.839   5.352  74.528  1.00  0.00    -0.077 C  
ENDBRANCH   4  20
BRANCH   6  22
HETATM   22  O   UNL     1      -6.106   5.694  67.934  1.00  0.00    -0.023 OA 
BRANCH  22  23
HETATM   23  C   UNL     1      -6.011   5.180  66.677  1.00  0.00    -0.023 C  
HETATM   24  O   UNL     1      -5.493   4.112  66.365  1.00  0.00    -0.012 OA 
BRANCH  23  25
HETATM   25  C   UNL     1      -6.602   6.115  65.674  1.00  0.00    -0.047 A  
HETATM   26  C   UNL     1      -7.348   5.542  64.630  1.00  0.00    -0.064 A  
HETATM   27  C   UNL     1      -7.875   6.334  63.604  1.00  0.00    -0.113 A  
HETATM   28  C   UNL     1      -7.671   7.712  63.620  1.00  0.00    -0.123 A  
HETATM   29  C   UNL     1      -6.953   8.300  64.662  1.00  0.00    -0.075 A  
HETATM   30  C   UNL     1      -6.418   7.504  65.696  1.00  0.00    -0.045 A  
ENDBRANCH  23  25
ENDBRANCH  22  23
ENDBRANCH   6  22
TORSDOF 4
ENDMDL
MODEL      157
REMARK 921   NORMALIZED FREE ENERGY PREDICTED BY IDOCK:   -3.31 KCAL/MOL
REMARK 922        TOTAL FREE ENERGY PREDICTED BY IDOCK:   -4.64 KCAL/MOL
REMARK 923 INTER-LIGAND FREE ENERGY PREDICTED BY IDOCK:   -3.93 KCAL/MOL
REMARK 924 INTRA-LIGAND FREE ENERGY PREDICTED BY IDOCK:   -0.71 KCAL/MOL
REMARK 927      BINDING AFFINITY PREDICTED BY RF-SCORE:    0.00 PKD
ROOT
HETATM    1  C   UNL     1      -7.941  11.599  66.870  1.00  0.00    -0.161 C  
HETATM    2  O   UNL     1      -8.884  11.103  65.891  1.00  0.00    -0.190 OA 
HETATM    3  C   UNL     1      -8.191  10.054  65.310  1.00  0.00    -0.148 A  
HETATM    4  C   UNL     1      -8.436   9.394  64.135  1.00  0.00    -0.190 A  
HETATM    5  C   UNL     1      -7.720   8.191  63.938  1.00  0.00    -0.138 A  
HETATM    6  C   UNL     1      -8.541  12.289  68.070  1.00  0.00    -0.176 C  
HETATM    7  C   UNL     1      -9.127  11.534  69.033  1.00  0.00     0.125 C  
HETATM    8  C   UNL     1      -6.863   7.629  64.933  1.00  0.00    -0.051 A  
HETATM    9  C   UNL     1      -6.649   8.314  66.121  1.00  0.00    -0.050 A  
HETATM   10  C   UNL     1      -7.211   9.577  66.166  1.00  0.00    -0.093 A  
HETATM   11  C   UNL     1      -7.096  10.439  67.356  1.00  0.00    -0.087 C  
HETATM   12  C   UNL     1      -5.622  10.855  67.564  1.00  0.00    -0.044 C  
HETATM   13  C   UNL     1      -5.229  10.688  69.011  1.00  0.00    -0.041 C  
HETATM   14  N   UNL     1      -5.430   9.313  69.491  1.00  0.00    -0.034 NA 
HETATM   15  C   UNL     1      -5.571   9.380  70.951  1.00  0.00    -0.051 C  
HETATM   16  C   UNL     1      -6.529   8.571  68.804  1.00  0.00    -0.053 C  
HETATM   17  C   UNL     1      -6.008   7.814  67.427  1.00  0.00    -0.048 C  
HETATM   18  C   UNL     1      -7.706   9.493  68.414  1.00  0.00    -0.085 C  
HETATM   19  C   UNL     1      -8.595  10.177  69.453  1.00  0.00    -0.183 C  
ENDROOT
BRANCH   4  20
HETATM   20  O   UNL     1      -9.272   9.776  63.128  1.00  0.00    -0.265 OA 
HETATM   21  C   UNL     1      -9.064  11.056  62.534  1.00  0.00    -0.323 C  
ENDBRANCH   4  20
BRANCH   6  22
HETATM   22  O   UNL     1      -7.623  13.347  68.461  1.00  0.00    -0.124 OA 
BRANCH  22  23
HETATM   23  C   UNL     1      -8.016  14.613  68.769  1.00  0.00    -0.151 C  
HETATM   24  O   UNL     1      -7.570  15.315  69.672  1.00  0.00    -0.216 OA 
BRANCH  23  25
HETATM   25  C   UNL     1      -9.120  15.061  67.869  1.00  0.00    -0.180 A  
HETATM   26  C   UNL     1      -8.780  15.354  66.538  1.00  0.00    -0.335 A  
HETATM   27  C   UNL     1      -9.735  15.852  65.644  1.00  0.00    -0.306 A  
HETATM   28  C   UNL     1     -11.045  16.051  66.072  1.00  0.00     0.016 A  
HETATM   29  C   UNL     1     -11.407  15.741  67.384  1.00  0.00    -0.106 A  
HETATM   30  C   UNL     1     -10.446  15.242  68.288  1.00  0.00    -0.244 A  
ENDBRANCH  23  25
ENDBRANCH  22  23
ENDBRANCH   6  22
TORSDOF 4
ENDMDL
MODEL      158
REMARK 921   NORMALIZED FREE ENERGY PREDICTED BY IDOCK:   -3.30 KCAL/MOL
REMARK 922        TOTAL FREE ENERGY PREDICTED BY IDOCK:   -4.63 KCAL/MOL
REMARK 923 INTER-LIGAND FREE ENERGY PREDICTED BY IDOCK:   -3.80 KCAL/MOL
REMARK 924 INTRA-LIGAND FREE ENERGY PREDICTED BY IDOCK:   -0.83 KCAL/MOL
REMARK 927      BINDING AFFINITY PREDICTED BY RF-SCORE:    0.00 PKD
ROOT
HETATM    1  C   UNL     1      -8.703   7.541  68.666  1.00  0.00    -0.128 C  
HETATM    2  O   UNL     1      -8.957   8.942  68.409  1.00  0.00    -0.134 OA 
HETATM    3  C   UNL     1      -8.214   9.177  67.264  1.00  0.00    -0.114 A  
HETATM    4  C   UNL     1      -7.818  10.368  66.713  1.00  0.00    -0.117 A  
HETATM    5  C   UNL     1      -7.303  10.301  65.398  1.00  0.00    -0.144 A  
HETATM    6  C   UNL     1      -9.785   6.804  69.418  1.00  0.00    -0.152 C  
HETATM    7  C   UNL     1     -10.923   6.467  68.761  1.00  0.00    -0.404 C  
HETATM    8  C   UNL     1      -7.279   9.093  64.637  1.00  0.00    -0.098 A  
HETATM    9  C   UNL     1      -7.702   7.906  65.219  1.00  0.00    -0.097 A  
HETATM   10  C   UNL     1      -7.998   8.000  66.566  1.00  0.00    -0.102 A  
HETATM   11  C   UNL     1      -8.477   6.841  67.341  1.00  0.00    -0.121 C  
HETATM   12  C   UNL     1      -7.361   5.778  67.442  1.00  0.00    -0.077 C  
HETATM   13  C   UNL     1      -7.915   4.406  67.143  1.00  0.00    -0.101 C  
HETATM   14  N   UNL     1      -8.552   4.334  65.820  1.00  0.00    -0.113 NA 
HETATM   15  C   UNL     1      -9.507   3.220  65.859  1.00  0.00    -0.081 C  
HETATM   16  C   UNL     1      -9.135   5.623  65.343  1.00  0.00    -0.014 C  
HETATM   17  C   UNL     1      -8.024   6.559  64.549  1.00  0.00    -0.110 C  
HETATM   18  C   UNL     1      -9.717   6.469  66.499  1.00  0.00    -0.177 C  
HETATM   19  C   UNL     1     -10.936   6.027  67.309  1.00  0.00    -0.356 C  
ENDROOT
BRANCH   4  20
HETATM   20  O   UNL     1      -7.845  11.600  67.295  1.00  0.00    -0.140 OA 
HETATM   21  C   UNL     1      -6.795  11.938  68.198  1.00  0.00    -0.071 C  
ENDBRANCH   4  20
BRANCH   6  22
HETATM   22  O   UNL     1      -9.127   5.811  70.251  1.00  0.00    -0.141 OA 
BRANCH  22  23
HETATM   23  C   UNL     1      -9.421   5.614  71.566  1.00  0.00    -0.150 C  
HETATM   24  O   UNL     1     -10.534   5.401  72.039  1.00  0.00    -0.209 OA 
BRANCH  23  25
HETATM   25  C   UNL     1      -8.193   5.723  72.408  1.00  0.00    -0.107 A  
HETATM   26  C   UNL     1      -6.991   6.030  71.747  1.00  0.00    -0.073 A  
HETATM   27  C   UNL     1      -5.779   6.078  72.444  1.00  0.00    -0.036 A  
HETATM   28  C   UNL     1      -5.759   5.830  73.814  1.00  0.00    -0.047 A  
HETATM   29  C   UNL     1      -6.947   5.548  74.491  1.00  0.00    -0.078 A  
HETATM   30  C   UNL     1      -8.170   5.496  73.791  1.00  0.00    -0.111 A  
ENDBRANCH  23  25
ENDBRANCH  22  23
ENDBRANCH   6  22
TORSDOF 4
ENDMDL
MODEL      159
REMARK 921   NORMALIZED FREE ENERGY PREDICTED BY IDOCK:   -3.24 KCAL/MOL
REMARK 922        TOTAL FREE ENERGY PREDICTED BY IDOCK:   -4.55 KCAL/MOL
REMARK 923 INTER-LIGAND FREE ENERGY PREDICTED BY IDOCK:   -4.02 KCAL/MOL
REMARK 924 INTRA-LIGAND FREE ENERGY PREDICTED BY IDOCK:   -0.53 KCAL/MOL
REMARK 927      BINDING AFFINITY PREDICTED BY RF-SCORE:    0.00 PKD
ROOT
HETATM    1  C   UNL     1      -9.225  12.131  67.157  1.00  0.00    -0.193 C  
HETATM    2  O   UNL     1      -9.186  11.990  65.717  1.00  0.00    -0.178 OA 
HETATM    3  C   UNL     1      -8.882  10.649  65.555  1.00  0.00    -0.188 A  
HETATM    4  C   UNL     1      -8.424   9.989  64.444  1.00  0.00    -0.173 A  
HETATM    5  C   UNL     1      -8.464   8.577  64.502  1.00  0.00    -0.108 A  
HETATM    6  C   UNL     1     -10.106  13.237  67.686  1.00  0.00    -0.229 C  
HETATM    7  C   UNL     1     -11.451  13.061  67.677  1.00  0.00    -0.369 C  
HETATM    8  C   UNL     1      -9.032   7.864  65.600  1.00  0.00    -0.077 A  
HETATM    9  C   UNL     1      -9.502   8.562  66.703  1.00  0.00    -0.268 A  
HETATM   10  C   UNL     1      -9.248   9.921  66.675  1.00  0.00    -0.185 A  
HETATM   11  C   UNL     1      -9.690  10.819  67.757  1.00  0.00    -0.179 C  
HETATM   12  C   UNL     1      -8.928  10.487  69.060  1.00  0.00    -0.183 C  
HETATM   13  C   UNL     1      -9.886  10.421  70.225  1.00  0.00     0.351 C  
HETATM   14  N   UNL     1     -10.959   9.439  70.012  1.00  0.00    -0.236 NA 
HETATM   15  C   UNL     1     -12.086   9.837  70.866  1.00  0.00    -0.321 C  
HETATM   16  C   UNL     1     -11.325   9.220  68.581  1.00  0.00     0.391 C  
HETATM   17  C   UNL     1     -10.382   8.064  67.864  1.00  0.00    -0.282 C  
HETATM   18  C   UNL     1     -11.203  10.511  67.739  1.00  0.00    -0.344 C  
HETATM   19  C   UNL     1     -12.109  11.723  67.956  1.00  0.00    -0.003 C  
ENDROOT
BRANCH   4  20
HETATM   20  O   UNL     1      -7.918  10.539  63.304  1.00  0.00    -0.145 OA 
HETATM   21  C   UNL     1      -7.103   9.718  62.469  1.00  0.00    -0.109 C  
ENDBRANCH   4  20
BRANCH   6  22
HETATM   22  O   UNL     1      -9.468  13.757  68.884  1.00  0.00    -0.073 OA 
BRANCH  22  23
HETATM   23  C   UNL     1      -9.621  15.036  69.326  1.00  0.00    -0.180 C  
HETATM   24  O   UNL     1     -10.685  15.611  69.537  1.00  0.00    -0.229 OA 
BRANCH  23  25
HETATM   25  C   UNL     1      -8.295  15.700  69.502  1.00  0.00    -0.176 A  
HETATM   26  C   UNL     1      -7.308  14.981  70.196  1.00  0.00     0.168 A  
HETATM   27  C   UNL     1      -6.061  15.554  70.473  1.00  0.00     0.044 A  
HETATM   28  C   UNL     1      -5.787  16.851  70.047  1.00  0.00    -0.213 A  
HETATM   29  C   UNL     1      -6.747  17.571  69.335  1.00  0.00    -0.179 A  
HETATM   30  C   UNL     1      -8.005  16.997  69.057  1.00  0.00    -0.153 A  
ENDBRANCH  23  25
ENDBRANCH  22  23
ENDBRANCH   6  22
TORSDOF 4
ENDMDL
MODEL      160
REMARK 921   NORMALIZED FREE ENERGY PREDICTED BY IDOCK:   -3.20 KCAL/MOL
REMARK 922        TOTAL FREE ENERGY PREDICTED BY IDOCK:   -4.50 KCAL/MOL
REMARK 923 INTER-LIGAND FREE ENERGY PREDICTED BY IDOCK:   -4.17 KCAL/MOL
REMARK 924 INTRA-LIGAND FREE ENERGY PREDICTED BY IDOCK:   -0.33 KCAL/MOL
REMARK 927      BINDING AFFINITY PREDICTED BY RF-SCORE:    0.00 PKD
ROOT
HETATM    1  C   UNL     1      -8.310  12.051  67.073  1.00  0.00    -0.178 C  
HETATM    2  O   UNL     1      -8.171  13.287  66.332  1.00  0.00     0.361 OA 
HETATM    3  C   UNL     1      -7.955  14.216  67.336  1.00  0.00    -0.184 A  
HETATM    4  C   UNL     1      -8.046  15.583  67.290  1.00  0.00    -0.198 A  
HETATM    5  C   UNL     1      -7.505  16.277  68.397  1.00  0.00    -0.163 A  
HETATM    6  C   UNL     1      -7.937  10.793  66.328  1.00  0.00    -0.160 C  
HETATM    7  C   UNL     1      -6.624  10.514  66.132  1.00  0.00    -0.123 C  
HETATM    8  C   UNL     1      -6.815  15.620  69.460  1.00  0.00    -0.189 A  
HETATM    9  C   UNL     1      -6.727  14.235  69.469  1.00  0.00    -0.130 A  
HETATM   10  C   UNL     1      -7.450  13.606  68.473  1.00  0.00    -0.119 A  
HETATM   11  C   UNL     1      -7.458  12.140  68.323  1.00  0.00    -0.107 C  
HETATM   12  C   UNL     1      -8.159  11.490  69.537  1.00  0.00     0.593 C  
HETATM   13  C   UNL     1      -7.347  10.326  70.050  1.00  0.00    -0.149 C  
HETATM   14  N   UNL     1      -5.978  10.716  70.417  1.00  0.00    -0.106 NA 
HETATM   15  C   UNL     1      -5.149   9.505  70.348  1.00  0.00    -0.027 C  
HETATM   16  C   UNL     1      -5.435  11.873  69.643  1.00  0.00    -0.077 C  
HETATM   17  C   UNL     1      -5.831  13.327  70.329  1.00  0.00    -0.158 C  
HETATM   18  C   UNL     1      -5.940  11.892  68.182  1.00  0.00    -0.051 C  
HETATM   19  C   UNL     1      -5.555  10.818  67.164  1.00  0.00    -0.045 C  
ENDROOT
BRANCH   4  20
HETATM   20  O   UNL     1      -8.615  16.343  66.312  1.00  0.00    -0.296 OA 
HETATM   21  C   UNL     1     -10.020  16.221  66.102  1.00  0.00    -0.334 C  
ENDBRANCH   4  20
BRANCH   6  22
HETATM   22  O   UNL     1      -8.822   9.739  66.797  1.00  0.00    -0.136 OA 
BRANCH  22  23
HETATM   23  C   UNL     1      -9.995   9.412  66.190  1.00  0.00    -0.281 C  
HETATM   24  O   UNL     1     -10.500   8.294  66.135  1.00  0.00     0.156 OA 
BRANCH  23  25
HETATM   25  C   UNL     1     -10.611  10.608  65.544  1.00  0.00    -0.180 A  
HETATM   26  C   UNL     1     -11.459  11.398  66.338  1.00  0.00    -0.058 A  
HETATM   27  C   UNL     1     -12.139  12.494  65.795  1.00  0.00    -0.443 A  
HETATM   28  C   UNL     1     -11.966  12.819  64.452  1.00  0.00    -0.464 A  
HETATM   29  C   UNL     1     -11.107  12.061  63.654  1.00  0.00    -0.525 A  
HETATM   30  C   UNL     1     -10.424  10.953  64.197  1.00  0.00    -0.397 A  
ENDBRANCH  23  25
ENDBRANCH  22  23
ENDBRANCH   6  22
TORSDOF 4
ENDMDL
MODEL      161
REMARK 921   NORMALIZED FREE ENERGY PREDICTED BY IDOCK:   -3.07 KCAL/MOL
REMARK 922        TOTAL FREE ENERGY PREDICTED BY IDOCK:   -4.35 KCAL/MOL
REMARK 923 INTER-LIGAND FREE ENERGY PREDICTED BY IDOCK:   -3.23 KCAL/MOL
REMARK 924 INTRA-LIGAND FREE ENERGY PREDICTED BY IDOCK:   -1.11 KCAL/MOL
REMARK 927      BINDING AFFINITY PREDICTED BY RF-SCORE:    0.00 PKD
ROOT
HETATM    1  C   UNL     1      -9.220   6.578  69.400  1.00  0.00    -0.144 C  
HETATM    2  O   UNL     1      -9.683   6.038  70.661  1.00  0.00    -0.170 OA 
HETATM    3  C   UNL     1      -8.534   6.053  71.434  1.00  0.00    -0.128 A  
HETATM    4  C   UNL     1      -8.266   5.399  72.608  1.00  0.00    -0.114 A  
HETATM    5  C   UNL     1      -7.109   5.820  73.303  1.00  0.00    -0.086 A  
HETATM    6  C   UNL     1     -10.264   7.275  68.562  1.00  0.00    -0.181 C  
HETATM    7  C   UNL     1     -10.677   8.514  68.929  1.00  0.00    -0.100 C  
HETATM    8  C   UNL     1      -6.309   6.924  72.876  1.00  0.00    -0.058 A  
HETATM    9  C   UNL     1      -6.616   7.576  71.690  1.00  0.00    -0.042 A  
HETATM   10  C   UNL     1      -7.630   6.988  70.956  1.00  0.00    -0.086 A  
HETATM   11  C   UNL     1      -8.096   7.556  69.678  1.00  0.00    -0.127 C  
HETATM   12  C   UNL     1      -6.978   7.454  68.617  1.00  0.00    -0.079 C  
HETATM   13  C   UNL     1      -6.837   8.761  67.876  1.00  0.00    -0.070 C  
HETATM   14  N   UNL     1      -6.566   9.890  68.777  1.00  0.00    -0.046 NA 
HETATM   15  C   UNL     1      -7.000  11.111  68.086  1.00  0.00    -0.069 C  
HETATM   16  C   UNL     1      -7.126   9.734  70.152  1.00  0.00    -0.130 C  
HETATM   17  C   UNL     1      -6.094   8.923  71.162  1.00  0.00    -0.053 C  
HETATM   18  C   UNL     1      -8.474   8.975  70.155  1.00  0.00    -0.165 C  
HETATM   19  C   UNL     1      -9.743   9.550  69.525  1.00  0.00    -0.201 C  
ENDROOT
BRANCH   4  20
HETATM   20  O   UNL     1      -8.975   4.378  73.168  1.00  0.00    -0.114 OA 
HETATM   21  C   UNL     1      -9.042   3.142  72.460  1.00  0.00    -0.092 C  
ENDBRANCH   4  20
BRANCH   6  22
HETATM   22  O   UNL     1      -9.933   7.023  67.169  1.00  0.00    -0.159 OA 
BRANCH  22  23
HETATM   23  C   UNL     1      -9.892   5.780  66.616  1.00  0.00    -0.165 C  
HETATM   24  O   UNL     1     -10.623   4.834  66.896  1.00  0.00    -0.158 OA 
BRANCH  23  25
HETATM   25  C   UNL     1      -8.791   5.680  65.612  1.00  0.00    -0.150 A  
HETATM   26  C   UNL     1      -8.354   6.879  65.023  1.00  0.00    -0.054 A  
HETATM   27  C   UNL     1      -7.380   6.873  64.018  1.00  0.00    -0.087 A  
HETATM   28  C   UNL     1      -6.825   5.666  63.600  1.00  0.00    -0.041 A  
HETATM   29  C   UNL     1      -7.229   4.469  64.192  1.00  0.00    -0.054 A  
HETATM   30  C   UNL     1      -8.213   4.470  65.202  1.00  0.00    -0.112 A  
ENDBRANCH  23  25
ENDBRANCH  22  23
ENDBRANCH   6  22
TORSDOF 4
ENDMDL
MODEL      162
REMARK 921   NORMALIZED FREE ENERGY PREDICTED BY IDOCK:   -3.02 KCAL/MOL
REMARK 922        TOTAL FREE ENERGY PREDICTED BY IDOCK:   -4.28 KCAL/MOL
REMARK 923 INTER-LIGAND FREE ENERGY PREDICTED BY IDOCK:   -3.32 KCAL/MOL
REMARK 924 INTRA-LIGAND FREE ENERGY PREDICTED BY IDOCK:   -0.96 KCAL/MOL
REMARK 927      BINDING AFFINITY PREDICTED BY RF-SCORE:    0.00 PKD
ROOT
HETATM    1  C   UNL     1     -10.162   6.238  71.770  1.00  0.00    -0.196 C  
HETATM    2  O   UNL     1     -11.217   5.606  72.534  1.00  0.00    -0.268 OA 
HETATM    3  C   UNL     1     -10.695   4.348  72.784  1.00  0.00    -0.158 A  
HETATM    4  C   UNL     1     -11.333   3.209  73.201  1.00  0.00     0.059 A  
HETATM    5  C   UNL     1     -10.497   2.153  73.630  1.00  0.00    -0.213 A  
HETATM    6  C   UNL     1     -10.096   7.743  71.860  1.00  0.00    -0.182 C  
HETATM    7  C   UNL     1      -9.602   8.309  72.990  1.00  0.00    -0.295 C  
HETATM    8  C   UNL     1      -9.078   2.279  73.727  1.00  0.00    -0.079 A  
HETATM    9  C   UNL     1      -8.464   3.452  73.312  1.00  0.00    -0.078 A  
HETATM   10  C   UNL     1      -9.311   4.365  72.712  1.00  0.00    -0.151 A  
HETATM   11  C   UNL     1      -8.832   5.671  72.226  1.00  0.00    -0.132 C  
HETATM   12  C   UNL     1      -7.863   5.468  71.039  1.00  0.00    -0.105 C  
HETATM   13  C   UNL     1      -6.633   6.324  71.214  1.00  0.00    -0.051 C  
HETATM   14  N   UNL     1      -5.935   6.050  72.478  1.00  0.00    -0.037 NA 
HETATM   15  C   UNL     1      -5.151   7.248  72.809  1.00  0.00    -0.037 C  
HETATM   16  C   UNL     1      -6.818   5.573  73.583  1.00  0.00    -0.080 C  
HETATM   17  C   UNL     1      -7.022   3.930  73.558  1.00  0.00    -0.051 C  
HETATM   18  C   UNL     1      -8.222   6.219  73.534  1.00  0.00    -0.117 C  
HETATM   19  C   UNL     1      -8.450   7.712  73.775  1.00  0.00    -0.260 C  
ENDROOT
BRANCH   4  20
HETATM   20  O   UNL     1     -12.675   2.973  73.226  1.00  0.00     0.536 OA 
HETATM   21  C   UNL     1     -13.121   1.626  73.086  1.00  0.00     0.311 C  
ENDBRANCH   4  20
BRANCH   6  22
HETATM   22  O   UNL     1      -9.642   8.230  70.568  1.00  0.00    -0.165 OA 
BRANCH  22  23
HETATM   23  C   UNL     1     -10.475   8.485  69.522  1.00  0.00    -0.220 C  
HETATM   24  O   UNL     1     -11.323   9.371  69.466  1.00  0.00    -0.104 OA 
BRANCH  23  25
HETATM   25  C   UNL     1     -10.257   7.505  68.417  1.00  0.00    -0.211 A  
HETATM   26  C   UNL     1     -10.916   6.269  68.521  1.00  0.00    -0.421 A  
HETATM   27  C   UNL     1     -10.710   5.262  67.570  1.00  0.00    -0.063 A  
HETATM   28  C   UNL     1      -9.852   5.488  66.498  1.00  0.00    -0.194 A  
HETATM   29  C   UNL     1      -9.209   6.720  66.365  1.00  0.00    -0.185 A  
HETATM   30  C   UNL     1      -9.411   7.735  67.323  1.00  0.00    -0.175 A  
ENDBRANCH  23  25
ENDBRANCH  22  23
ENDBRANCH   6  22
TORSDOF 4
ENDMDL
MODEL      163
REMARK 921   NORMALIZED FREE ENERGY PREDICTED BY IDOCK:   -2.99 KCAL/MOL
REMARK 922        TOTAL FREE ENERGY PREDICTED BY IDOCK:   -4.24 KCAL/MOL
REMARK 923 INTER-LIGAND FREE ENERGY PREDICTED BY IDOCK:   -3.69 KCAL/MOL
REMARK 924 INTRA-LIGAND FREE ENERGY PREDICTED BY IDOCK:   -0.55 KCAL/MOL
REMARK 927      BINDING AFFINITY PREDICTED BY RF-SCORE:    0.00 PKD
ROOT
HETATM    1  C   UNL     1     -10.922  14.095  69.605  1.00  0.00    -0.081 C  
HETATM    2  O   UNL     1     -11.161  13.027  68.657  1.00  0.00    -0.245 OA 
HETATM    3  C   UNL     1     -11.510  11.969  69.479  1.00  0.00    -0.282 A  
HETATM    4  C   UNL     1     -11.561  10.628  69.197  1.00  0.00    -0.271 A  
HETATM    5  C   UNL     1     -12.212   9.818  70.154  1.00  0.00     0.044 A  
HETATM    6  C   UNL     1     -11.134  15.495  69.085  1.00  0.00    -0.272 C  
HETATM    7  C   UNL     1     -12.403  15.945  68.915  1.00  0.00     0.300 C  
HETATM    8  C   UNL     1     -12.870  10.354  71.303  1.00  0.00    -0.533 A  
HETATM    9  C   UNL     1     -12.815  11.717  71.552  1.00  0.00    -0.450 A  
HETATM   10  C   UNL     1     -11.992  12.426  70.695  1.00  0.00    -0.202 A  
HETATM   11  C   UNL     1     -11.826  13.886  70.804  1.00  0.00    -0.257 C  
HETATM   12  C   UNL     1     -11.108  14.237  72.126  1.00  0.00     1.994 C  
HETATM   13  C   UNL     1     -11.814  15.378  72.819  1.00  0.00    -0.457 C  
HETATM   14  N   UNL     1     -13.229  15.082  73.085  1.00  0.00    -0.489 NA 
HETATM   15  C   UNL     1     -13.924  16.370  73.213  1.00  0.00     0.556 C  
HETATM   16  C   UNL     1     -13.859  14.142  72.111  1.00  0.00    -0.518 C  
HETATM   17  C   UNL     1     -13.643  12.557  72.540  1.00  0.00    -0.181 C  
HETATM   18  C   UNL     1     -13.303  14.319  70.679  1.00  0.00    -0.070 C  
HETATM   19  C   UNL     1     -13.536  15.586  69.857  1.00  0.00     1.195 C  
ENDROOT
BRANCH   4  20
HETATM   20  O   UNL     1     -11.037   9.990  68.112  1.00  0.00    -0.253 OA 
HETATM   21  C   UNL     1      -9.618   9.892  68.013  1.00  0.00    -0.138 C  
ENDBRANCH   4  20
BRANCH   6  22
HETATM   22  O   UNL     1     -10.163  16.350  69.748  1.00  0.00    -0.238 OA 
BRANCH  22  23
HETATM   23  C   UNL     1      -9.042  16.831  69.143  1.00  0.00    -0.120 C  
HETATM   24  O   UNL     1      -7.897  16.416  69.296  1.00  0.00    -0.238 OA 
BRANCH  23  25
HETATM   25  C   UNL     1      -9.369  17.990  68.260  1.00  0.00    -0.299 A  
HETATM   26  C   UNL     1      -9.911  17.697  66.997  1.00  0.00    -0.320 A  
HETATM   27  C   UNL     1     -10.178  18.715  66.075  1.00  0.00    -0.386 A  
HETATM   28  C   UNL     1      -9.916  20.040  66.413  1.00  0.00    -0.601 A  
HETATM   29  C   UNL     1      -9.401  20.351  67.673  1.00  0.00    -0.453 A  
HETATM   30  C   UNL     1      -9.128  19.327  68.603  1.00  0.00    -0.428 A  
ENDBRANCH  23  25
ENDBRANCH  22  23
ENDBRANCH   6  22
TORSDOF 4
ENDMDL
MODEL      164
REMARK 921   NORMALIZED FREE ENERGY PREDICTED BY IDOCK:   -2.95 KCAL/MOL
REMARK 922        TOTAL FREE ENERGY PREDICTED BY IDOCK:   -4.19 KCAL/MOL
REMARK 923 INTER-LIGAND FREE ENERGY PREDICTED BY IDOCK:   -4.12 KCAL/MOL
REMARK 924 INTRA-LIGAND FREE ENERGY PREDICTED BY IDOCK:   -0.07 KCAL/MOL
REMARK 927      BINDING AFFINITY PREDICTED BY RF-SCORE:    0.00 PKD
ROOT
HETATM    1  C   UNL     1      -9.531  10.172  66.946  1.00  0.00    -0.169 C  
HETATM    2  O   UNL     1      -8.768   9.849  65.759  1.00  0.00    -0.133 OA 
HETATM    3  C   UNL     1      -7.473   9.779  66.244  1.00  0.00    -0.100 A  
HETATM    4  C   UNL     1      -6.285   9.801  65.561  1.00  0.00    -0.074 A  
HETATM    5  C   UNL     1      -5.137   9.439  66.301  1.00  0.00    -0.039 A  
HETATM    6  C   UNL     1     -10.972   9.725  66.942  1.00  0.00     0.060 C  
HETATM    7  C   UNL     1     -11.249   8.411  67.134  1.00  0.00     0.818 C  
HETATM    8  C   UNL     1      -5.201   8.980  67.652  1.00  0.00    -0.034 A  
HETATM    9  C   UNL     1      -6.421   8.954  68.311  1.00  0.00    -0.059 A  
HETATM   10  C   UNL     1      -7.469   9.513  67.604  1.00  0.00    -0.091 A  
HETATM   11  C   UNL     1      -8.840   9.555  68.145  1.00  0.00    -0.124 C  
HETATM   12  C   UNL     1      -8.891  10.490  69.374  1.00  0.00    -0.091 C  
HETATM   13  C   UNL     1      -9.652   9.834  70.501  1.00  0.00    -0.103 C  
HETATM   14  N   UNL     1      -9.075   8.538  70.886  1.00  0.00    -0.158 NA 
HETATM   15  C   UNL     1     -10.143   7.763  71.531  1.00  0.00    -0.178 C  
HETATM   16  C   UNL     1      -8.379   7.816  69.779  1.00  0.00    -0.131 C  
HETATM   17  C   UNL     1      -6.792   8.267  69.638  1.00  0.00    -0.044 C  
HETATM   18  C   UNL     1      -9.055   8.049  68.408  1.00  0.00    -0.136 C  
HETATM   19  C   UNL     1     -10.457   7.533  68.084  1.00  0.00    -0.233 C  
ENDROOT
BRANCH   4  20
HETATM   20  O   UNL     1      -6.085  10.152  64.259  1.00  0.00    -0.123 OA 
HETATM   21  C   UNL     1      -6.648   9.321  63.246  1.00  0.00    -0.091 C  
ENDBRANCH   4  20
BRANCH   6  22
HETATM   22  O   UNL     1     -11.733  10.723  67.676  1.00  0.00    -0.538 OA 
BRANCH  22  23
HETATM   23  C   UNL     1     -11.343  12.021  67.809  1.00  0.00    -0.303 C  
HETATM   24  O   UNL     1     -11.027  12.582  68.855  1.00  0.00    -0.237 OA 
BRANCH  23  25
HETATM   25  C   UNL     1     -11.376  12.725  66.493  1.00  0.00    -0.369 A  
HETATM   26  C   UNL     1     -10.182  13.325  66.061  1.00  0.00    -0.291 A  
HETATM   27  C   UNL     1     -10.139  14.070  64.876  1.00  0.00    -0.288 A  
HETATM   28  C   UNL     1     -11.291  14.211  64.106  1.00  0.00    -0.122 A  
HETATM   29  C   UNL     1     -12.480  13.600  64.508  1.00  0.00    -0.335 A  
HETATM   30  C   UNL     1     -12.527  12.852  65.702  1.00  0.00    -0.400 A  
ENDBRANCH  23  25
ENDBRANCH  22  23
ENDBRANCH   6  22
TORSDOF 4
ENDMDL
MODEL      165
REMARK 921   NORMALIZED FREE ENERGY PREDICTED BY IDOCK:   -2.93 KCAL/MOL
REMARK 922        TOTAL FREE ENERGY PREDICTED BY IDOCK:   -4.16 KCAL/MOL
REMARK 923 INTER-LIGAND FREE ENERGY PREDICTED BY IDOCK:   -3.83 KCAL/MOL
REMARK 924 INTRA-LIGAND FREE ENERGY PREDICTED BY IDOCK:   -0.34 KCAL/MOL
REMARK 927      BINDING AFFINITY PREDICTED BY RF-SCORE:    0.00 PKD
ROOT
HETATM    1  C   UNL     1      -8.136   6.920  70.386  1.00  0.00    -0.116 C  
HETATM    2  O   UNL     1      -6.881   7.586  70.666  1.00  0.00    -0.046 OA 
HETATM    3  C   UNL     1      -6.648   7.245  71.987  1.00  0.00    -0.054 A  
HETATM    4  C   UNL     1      -5.784   7.806  72.891  1.00  0.00    -0.044 A  
HETATM    5  C   UNL     1      -5.569   7.073  74.081  1.00  0.00    -0.054 A  
HETATM    6  C   UNL     1      -8.375   6.549  68.943  1.00  0.00    -0.122 C  
HETATM    7  C   UNL     1      -7.708   5.488  68.422  1.00  0.00    -0.085 C  
HETATM    8  C   UNL     1      -6.131   5.779  74.305  1.00  0.00    -0.060 A  
HETATM    9  C   UNL     1      -6.990   5.232  73.362  1.00  0.00    -0.080 A  
HETATM   10  C   UNL     1      -7.321   6.081  72.323  1.00  0.00    -0.094 A  
HETATM   11  C   UNL     1      -8.210   5.660  71.225  1.00  0.00    -0.125 C  
HETATM   12  C   UNL     1      -9.637   5.419  71.766  1.00  0.00    -0.186 C  
HETATM   13  C   UNL     1     -10.187   4.119  71.231  1.00  0.00     0.003 C  
HETATM   14  N   UNL     1      -9.331   2.970  71.559  1.00  0.00    -0.120 NA 
HETATM   15  C   UNL     1      -9.614   1.922  70.571  1.00  0.00    -0.059 C  
HETATM   16  C   UNL     1      -7.881   3.299  71.703  1.00  0.00    -0.057 C  
HETATM   17  C   UNL     1      -7.498   3.784  73.239  1.00  0.00    -0.069 C  
HETATM   18  C   UNL     1      -7.434   4.418  70.734  1.00  0.00    -0.052 C  
HETATM   19  C   UNL     1      -7.410   4.232  69.217  1.00  0.00    -0.054 C  
ENDROOT
BRANCH   4  20
HETATM   20  O   UNL     1      -5.128   8.996  72.782  1.00  0.00    -0.055 OA 
HETATM   21  C   UNL     1      -5.522   9.885  71.739  1.00  0.00    -0.013 C  
ENDBRANCH   4  20
BRANCH   6  22
HETATM   22  O   UNL     1      -9.803   6.677  68.699  1.00  0.00    -0.134 OA 
BRANCH  22  23
HETATM   23  C   UNL     1     -10.333   7.057  67.504  1.00  0.00    -0.225 C  
HETATM   24  O   UNL     1     -10.691   6.312  66.596  1.00  0.00    -0.264 OA 
BRANCH  23  25
HETATM   25  C   UNL     1     -10.405   8.545  67.403  1.00  0.00    -0.356 A  
HETATM   26  C   UNL     1     -10.691   9.252  68.583  1.00  0.00    -0.180 A  
HETATM   27  C   UNL     1     -10.852  10.642  68.568  1.00  0.00    -0.275 A  
HETATM   28  C   UNL     1     -10.716  11.341  67.371  1.00  0.00    -0.285 A  
HETATM   29  C   UNL     1     -10.407  10.657  66.194  1.00  0.00    -0.291 A  
HETATM   30  C   UNL     1     -10.248   9.256  66.205  1.00  0.00    -0.273 A  
ENDBRANCH  23  25
ENDBRANCH  22  23
ENDBRANCH   6  22
TORSDOF 4
ENDMDL
MODEL      166
REMARK 921   NORMALIZED FREE ENERGY PREDICTED BY IDOCK:   -2.80 KCAL/MOL
REMARK 922        TOTAL FREE ENERGY PREDICTED BY IDOCK:   -4.01 KCAL/MOL
REMARK 923 INTER-LIGAND FREE ENERGY PREDICTED BY IDOCK:   -6.32 KCAL/MOL
REMARK 924 INTRA-LIGAND FREE ENERGY PREDICTED BY IDOCK:    2.30 KCAL/MOL
REMARK 927      BINDING AFFINITY PREDICTED BY RF-SCORE:    0.00 PKD
ROOT
HETATM    1  C   UNL     1     -10.312  16.199  67.573  1.00  0.00    -0.286 C  
HETATM    2  O   UNL     1      -9.767  17.471  67.148  1.00  0.00    -0.264 OA 
HETATM    3  C   UNL     1      -8.701  17.646  68.015  1.00  0.00    -0.253 A  
HETATM    4  C   UNL     1      -7.991  18.782  68.302  1.00  0.00    -0.318 A  
HETATM    5  C   UNL     1      -6.788  18.596  69.020  1.00  0.00    -0.302 A  
HETATM    6  C   UNL     1     -11.045  15.411  66.515  1.00  0.00    -0.227 C  
HETATM    7  C   UNL     1     -10.325  14.772  65.559  1.00  0.00    -0.387 C  
HETATM    8  C   UNL     1      -6.275  17.304  69.349  1.00  0.00    -0.245 A  
HETATM    9  C   UNL     1      -7.010  16.172  69.030  1.00  0.00    -0.178 A  
HETATM   10  C   UNL     1      -8.268  16.429  68.517  1.00  0.00    -0.201 A  
HETATM   11  C   UNL     1      -9.180  15.344  68.108  1.00  0.00    -0.186 C  
HETATM   12  C   UNL     1      -9.617  14.530  69.347  1.00  0.00     0.129 C  
HETATM   13  C   UNL     1      -9.513  13.051  69.065  1.00  0.00     0.425 C  
HETATM   14  N   UNL     1      -8.158  12.652  68.661  1.00  0.00    -0.069 NA 
HETATM   15  C   UNL     1      -8.283  11.404  67.896  1.00  0.00    -0.132 C  
HETATM   16  C   UNL     1      -7.378  13.719  67.966  1.00  0.00    -0.134 C  
HETATM   17  C   UNL     1      -6.570  14.698  69.030  1.00  0.00    -0.102 C  
HETATM   18  C   UNL     1      -8.273  14.623  67.088  1.00  0.00    -0.227 C  
HETATM   19  C   UNL     1      -8.991  14.106  65.840  1.00  0.00     0.457 C  
ENDROOT
BRANCH   4  20
HETATM   20  O   UNL     1      -8.324  20.067  67.994  1.00  0.00    -0.287 OA 
HETATM   21  C   UNL     1      -7.519  20.758  67.041  1.00  0.00    -0.271 C  
ENDBRANCH   4  20
BRANCH   6  22
HETATM   22  O   UNL     1     -12.126  14.702  67.180  1.00  0.00    -0.362 OA 
BRANCH  22  23
HETATM   23  C   UNL     1     -12.227  13.345  67.220  1.00  0.00    -0.233 C  
HETATM   24  O   UNL     1     -12.487  12.663  68.207  1.00  0.00     0.056 OA 
BRANCH  23  25
HETATM   25  C   UNL     1     -11.942  12.751  65.880  1.00  0.00    -0.506 A  
HETATM   26  C   UNL     1     -10.886  11.828  65.802  1.00  0.00    -0.341 A  
HETATM   27  C   UNL     1     -10.499  11.278  64.574  1.00  0.00    -0.396 A  
HETATM   28  C   UNL     1     -11.176  11.639  63.412  1.00  0.00    -0.401 A  
HETATM   29  C   UNL     1     -12.244  12.536  63.474  1.00  0.00    -0.652 A  
HETATM   30  C   UNL     1     -12.634  13.094  64.709  1.00  0.00    -0.426 A  
ENDBRANCH  23  25
ENDBRANCH  22  23
ENDBRANCH   6  22
TORSDOF 4
ENDMDL
MODEL      167
REMARK 921   NORMALIZED FREE ENERGY PREDICTED BY IDOCK:   -0.59 KCAL/MOL
REMARK 922        TOTAL FREE ENERGY PREDICTED BY IDOCK:   -1.29 KCAL/MOL
REMARK 923 INTER-LIGAND FREE ENERGY PREDICTED BY IDOCK:   -2.46 KCAL/MOL
REMARK 924 INTRA-LIGAND FREE ENERGY PREDICTED BY IDOCK:    1.18 KCAL/MOL
REMARK 927      BINDING AFFINITY PREDICTED BY RF-SCORE:    0.00 PKD
ROOT
HETATM    1  C   UNL     1      -7.291  10.363  67.491  1.00  0.00    -0.092 C  
HETATM    2  O   UNL     1      -6.200  10.575  68.418  1.00  0.00    -0.050 OA 
HETATM    3  C   UNL     1      -6.755  10.194  69.628  1.00  0.00    -0.076 A  
HETATM    4  C   UNL     1      -6.320  10.446  70.902  1.00  0.00     0.084 A  
HETATM    5  C   UNL     1      -6.942   9.700  71.929  1.00  0.00     0.764 A  
HETATM    6  C   UNL     1      -6.895  10.073  66.064  1.00  0.00    -0.105 C  
HETATM    7  C   UNL     1      -6.409   8.844  65.757  1.00  0.00    -0.056 C  
HETATM    8  C   UNL     1      -7.898   8.672  71.668  1.00  0.00    -0.153 A  
HETATM    9  C   UNL     1      -8.306   8.430  70.364  1.00  0.00    -0.121 A  
HETATM   10  C   UNL     1      -7.818   9.327  69.432  1.00  0.00    -0.083 A  
HETATM   11  C   UNL     1      -8.137   9.211  67.997  1.00  0.00    -0.105 C  
HETATM   12  C   UNL     1      -9.643   9.468  67.771  1.00  0.00    -0.156 C  
HETATM   13  C   UNL     1     -10.221   8.420  66.852  1.00  0.00    -0.313 C  
HETATM   14  N   UNL     1     -10.021   7.056  67.361  1.00  0.00    -0.154 NA 
HETATM   15  C   UNL     1     -10.084   6.149  66.208  1.00  0.00     0.023 C  
HETATM   16  C   UNL     1      -8.804   6.884  68.209  1.00  0.00    -0.122 C  
HETATM   17  C   UNL     1      -9.094   7.234  69.801  1.00  0.00    -0.141 C  
HETATM   18  C   UNL     1      -7.631   7.775  67.741  1.00  0.00    -0.113 C  
HETATM   19  C   UNL     1      -6.926   7.570  66.399  1.00  0.00    -0.070 C  
ENDROOT
BRANCH   4  20
HETATM   20  O   UNL     1      -5.374  11.347  71.292  1.00  0.00    -0.258 OA 
HETATM   21  C   UNL     1      -5.222  11.599  72.687  1.00  0.00     0.566 C  
ENDBRANCH   4  20
BRANCH   6  22
HETATM   22  O   UNL     1      -7.909  10.667  65.208  1.00  0.00    -0.131 OA 
BRANCH  22  23
HETATM   23  C   UNL     1      -8.935   9.966  64.654  1.00  0.00    -0.222 C  
HETATM   24  O   UNL     1      -8.882   8.818  64.220  1.00  0.00    -0.078 OA 
BRANCH  23  25
HETATM   25  C   UNL     1     -10.177  10.793  64.599  1.00  0.00    -0.419 A  
HETATM   26  C   UNL     1     -10.932  10.732  63.416  1.00  0.00     0.504 A  
HETATM   27  C   UNL     1     -12.070  11.530  63.247  1.00  0.00    -0.075 A  
HETATM   28  C   UNL     1     -12.468  12.390  64.267  1.00  0.00    -0.529 A  
HETATM   29  C   UNL     1     -11.743  12.445  65.458  1.00  0.00    -0.459 A  
HETATM   30  C   UNL     1     -10.595  11.645  65.631  1.00  0.00    -0.324 A  
ENDBRANCH  23  25
ENDBRANCH  22  23
ENDBRANCH   6  22
TORSDOF 4
ENDMDL
MODEL      168
REMARK 921   NORMALIZED FREE ENERGY PREDICTED BY IDOCK:    0.36 KCAL/MOL
REMARK 922        TOTAL FREE ENERGY PREDICTED BY IDOCK:   -0.11 KCAL/MOL
REMARK 923 INTER-LIGAND FREE ENERGY PREDICTED BY IDOCK:    0.22 KCAL/MOL
REMARK 924 INTRA-LIGAND FREE ENERGY PREDICTED BY IDOCK:   -0.33 KCAL/MOL
REMARK 927      BINDING AFFINITY PREDICTED BY RF-SCORE:    0.00 PKD
ROOT
HETATM    1  C   UNL     1     -10.581  15.154  68.961  1.00  0.00    -0.245 C  
HETATM    2  O   UNL     1     -10.170  14.001  69.735  1.00  0.00     0.309 OA 
HETATM    3  C   UNL     1     -10.976  12.996  69.227  1.00  0.00    -0.067 A  
HETATM    4  C   UNL     1     -11.262  11.762  69.749  1.00  0.00    -0.090 A  
HETATM    5  C   UNL     1     -11.898  10.851  68.875  1.00  0.00    -0.340 A  
HETATM    6  C   UNL     1      -9.540  16.234  68.790  1.00  0.00    -0.242 C  
HETATM    7  C   UNL     1      -8.520  16.026  67.920  1.00  0.00    -0.165 C  
HETATM    8  C   UNL     1     -12.148  11.144  67.500  1.00  0.00     0.626 A  
HETATM    9  C   UNL     1     -11.832  12.398  66.997  1.00  0.00    -0.368 A  
HETATM   10  C   UNL     1     -11.406  13.308  67.947  1.00  0.00    -0.317 A  
HETATM   11  C   UNL     1     -11.014  14.683  67.588  1.00  0.00    -0.296 C  
HETATM   12  C   UNL     1     -12.246  15.466  67.081  1.00  0.00     0.721 C  
HETATM   13  C   UNL     1     -11.905  16.220  65.819  1.00  0.00     1.238 C  
HETATM   14  N   UNL     1     -11.405  15.336  64.756  1.00  0.00    -0.415 NA 
HETATM   15  C   UNL     1     -10.604  16.164  63.845  1.00  0.00     2.729 C  
HETATM   16  C   UNL     1     -10.704  14.112  65.246  1.00  0.00    -0.364 C  
HETATM   17  C   UNL     1     -11.752  12.863  65.533  1.00  0.00    -0.423 C  
HETATM   18  C   UNL     1      -9.915  14.370  66.550  1.00  0.00    -0.291 C  
HETATM   19  C   UNL     1      -8.695  15.290  66.606  1.00  0.00    -0.327 C  
ENDROOT
BRANCH   4  20
HETATM   20  O   UNL     1     -11.022  11.323  71.017  1.00  0.00     1.149 OA 
HETATM   21  C   UNL     1     -10.824   9.925  71.217  1.00  0.00    -0.074 C  
ENDBRANCH   4  20
BRANCH   6  22
HETATM   22  O   UNL     1     -10.244  17.506  68.766  1.00  0.00    -0.344 OA 
BRANCH  22  23
HETATM   23  C   UNL     1     -10.023  18.473  67.834  1.00  0.00    -0.346 C  
HETATM   24  O   UNL     1     -10.782  18.792  66.923  1.00  0.00    -0.407 OA 
BRANCH  23  25
HETATM   25  C   UNL     1      -8.687  19.108  68.032  1.00  0.00    -0.347 A  
HETATM   26  C   UNL     1      -7.852  19.202  66.906  1.00  0.00    -0.266 A  
HETATM   27  C   UNL     1      -6.553  19.714  67.013  1.00  0.00    -0.208 A  
HETATM   28  C   UNL     1      -6.081  20.147  68.249  1.00  0.00    -0.299 A  
HETATM   29  C   UNL     1      -6.906  20.084  69.374  1.00  0.00    -0.274 A  
HETATM   30  C   UNL     1      -8.214  19.566  69.270  1.00  0.00    -0.041 A  
ENDBRANCH  23  25
ENDBRANCH  22  23
ENDBRANCH   6  22
TORSDOF 4
ENDMDL
MODEL      169
REMARK 921   NORMALIZED FREE ENERGY PREDICTED BY IDOCK:    0.77 KCAL/MOL
REMARK 922        TOTAL FREE ENERGY PREDICTED BY IDOCK:    0.39 KCAL/MOL
REMARK 923 INTER-LIGAND FREE ENERGY PREDICTED BY IDOCK:   -5.56 KCAL/MOL
REMARK 924 INTRA-LIGAND FREE ENERGY PREDICTED BY IDOCK:    5.95 KCAL/MOL
REMARK 927      BINDING AFFINITY PREDICTED BY RF-SCORE:    0.00 PKD
ROOT
HETATM    1  C   UNL     1      -9.667  12.104  67.687  1.00  0.00    -0.188 C  
HETATM    2  O   UNL     1     -10.268  10.787  67.686  1.00  0.00    -0.177 OA 
HETATM    3  C   UNL     1     -10.798  10.698  68.962  1.00  0.00    -0.235 A  
HETATM    4  C   UNL     1     -11.224   9.593  69.653  1.00  0.00    -0.141 A  
HETATM    5  C   UNL     1     -11.967   9.846  70.829  1.00  0.00    -0.410 A  
HETATM    6  C   UNL     1      -9.556  12.776  66.340  1.00  0.00    -0.254 C  
HETATM    7  C   UNL     1     -10.675  13.298  65.777  1.00  0.00    -0.286 C  
HETATM    8  C   UNL     1     -12.346  11.160  71.237  1.00  0.00    -0.402 A  
HETATM    9  C   UNL     1     -11.912  12.258  70.507  1.00  0.00    -0.296 A  
HETATM   10  C   UNL     1     -11.022  11.958  69.492  1.00  0.00    -0.090 A  
HETATM   11  C   UNL     1     -10.472  13.000  68.607  1.00  0.00    -0.236 C  
HETATM   12  C   UNL     1      -9.561  13.951  69.415  1.00  0.00     0.556 C  
HETATM   13  C   UNL     1      -9.873  15.388  69.078  1.00  0.00    -0.234 C  
HETATM   14  N   UNL     1     -11.283  15.727  69.319  1.00  0.00    -0.299 NA 
HETATM   15  C   UNL     1     -11.602  16.883  68.471  1.00  0.00     0.360 C  
HETATM   16  C   UNL     1     -12.229  14.581  69.172  1.00  0.00    -0.199 C  
HETATM   17  C   UNL     1     -12.392  13.718  70.576  1.00  0.00    -0.429 C  
HETATM   18  C   UNL     1     -11.790  13.595  68.065  1.00  0.00    -0.397 C  
HETATM   19  C   UNL     1     -11.764  13.977  66.585  1.00  0.00    -0.420 C  
ENDROOT
BRANCH   4  20
HETATM   20  O   UNL     1     -10.994   8.285  69.346  1.00  0.00    -0.144 OA 
HETATM   21  C   UNL     1     -11.175   7.314  70.375  1.00  0.00    -0.276 C  
ENDBRANCH   4  20
BRANCH   6  22
HETATM   22  O   UNL     1      -8.336  13.566  66.355  1.00  0.00     0.299 OA 
BRANCH  22  23
HETATM   23  C   UNL     1      -7.963  14.361  67.395  1.00  0.00    -0.201 C  
HETATM   24  O   UNL     1      -7.619  13.985  68.512  1.00  0.00    -0.118 OA 
BRANCH  23  25
HETATM   25  C   UNL     1      -8.054  15.803  67.021  1.00  0.00    -0.272 A  
HETATM   26  C   UNL     1      -7.049  16.654  67.510  1.00  0.00    -0.169 A  
HETATM   27  C   UNL     1      -7.095  18.033  67.273  1.00  0.00    -0.204 A  
HETATM   28  C   UNL     1      -8.143  18.573  66.532  1.00  0.00    -0.299 A  
HETATM   29  C   UNL     1      -9.137  17.739  66.017  1.00  0.00    -0.033 A  
HETATM   30  C   UNL     1      -9.095  16.350  66.257  1.00  0.00    -0.362 A  
ENDBRANCH  23  25
ENDBRANCH  22  23
ENDBRANCH   6  22
TORSDOF 4
ENDMDL
MODEL      170
REMARK 921   NORMALIZED FREE ENERGY PREDICTED BY IDOCK:    1.92 KCAL/MOL
REMARK 922        TOTAL FREE ENERGY PREDICTED BY IDOCK:    1.82 KCAL/MOL
REMARK 923 INTER-LIGAND FREE ENERGY PREDICTED BY IDOCK:   -0.26 KCAL/MOL
REMARK 924 INTRA-LIGAND FREE ENERGY PREDICTED BY IDOCK:    2.07 KCAL/MOL
REMARK 927      BINDING AFFINITY PREDICTED BY RF-SCORE:    0.00 PKD
ROOT
HETATM    1  C   UNL     1      -9.037  17.388  67.414  1.00  0.00    -0.236 C  
HETATM    2  O   UNL     1      -8.064  16.967  66.430  1.00  0.00    -0.261 OA 
HETATM    3  C   UNL     1      -7.230  16.142  67.165  1.00  0.00    -0.220 A  
HETATM    4  C   UNL     1      -5.972  15.687  66.867  1.00  0.00     0.684 A  
HETATM    5  C   UNL     1      -5.481  14.643  67.684  1.00  0.00     0.050 A  
HETATM    6  C   UNL     1     -10.397  17.760  66.877  1.00  0.00    -0.344 C  
HETATM    7  C   UNL     1     -11.238  16.770  66.485  1.00  0.00     0.492 C  
HETATM    8  C   UNL     1      -6.267  14.020  68.700  1.00  0.00    -0.088 A  
HETATM    9  C   UNL     1      -7.544  14.494  68.967  1.00  0.00    -0.124 A  
HETATM   10  C   UNL     1      -7.887  15.643  68.279  1.00  0.00    -0.128 A  
HETATM   11  C   UNL     1      -9.210  16.275  68.429  1.00  0.00    -0.203 C  
HETATM   12  C   UNL     1      -9.368  16.831  69.862  1.00  0.00     0.912 C  
HETATM   13  C   UNL     1     -10.715  16.448  70.426  1.00  0.00    -0.041 C  
HETATM   14  N   UNL     1     -10.928  14.994  70.430  1.00  0.00    -0.225 NA 
HETATM   15  C   UNL     1     -12.379  14.769  70.442  1.00  0.00    -0.344 C  
HETATM   16  C   UNL     1     -10.204  14.258  69.350  1.00  0.00     0.080 C  
HETATM   17  C   UNL     1      -8.665  13.844  69.797  1.00  0.00     1.411 C  
HETATM   18  C   UNL     1     -10.107  15.079  68.044  1.00  0.00    -0.223 C  
HETATM   19  C   UNL     1     -11.334  15.438  67.204  1.00  0.00    -0.203 C  
ENDROOT
BRANCH   4  20
HETATM   20  O   UNL     1      -5.137  16.140  65.889  1.00  0.00     1.238 OA 
HETATM   21  C   UNL     1      -5.133  17.537  65.606  1.00  0.00     0.043 C  
ENDBRANCH   4  20
BRANCH   6  22
HETATM   22  O   UNL     1     -10.909  18.835  67.711  1.00  0.00    -0.389 OA 
BRANCH  22  23
HETATM   23  C   UNL     1     -10.121  19.635  68.480  1.00  0.00    -0.453 C  
HETATM   24  O   UNL     1     -10.409  20.102  69.578  1.00  0.00    -0.186 OA 
BRANCH  23  25
HETATM   25  C   UNL     1      -8.824  19.919  67.797  1.00  0.00    -0.390 A  
HETATM   26  C   UNL     1      -8.877  20.207  66.423  1.00  0.00    -0.332 A  
HETATM   27  C   UNL     1      -7.705  20.412  65.685  1.00  0.00     0.015 A  
HETATM   28  C   UNL     1      -6.467  20.341  66.320  1.00  0.00    -0.246 A  
HETATM   29  C   UNL     1      -6.398  20.080  67.689  1.00  0.00    -0.249 A  
HETATM   30  C   UNL     1      -7.576  19.870  68.435  1.00  0.00    -0.298 A  
ENDBRANCH  23  25
ENDBRANCH  22  23
ENDBRANCH   6  22
TORSDOF 4
ENDMDL
MODEL      171
REMARK 921   NORMALIZED FREE ENERGY PREDICTED BY IDOCK:    2.57 KCAL/MOL
REMARK 922        TOTAL FREE ENERGY PREDICTED BY IDOCK:    2.62 KCAL/MOL
REMARK 923 INTER-LIGAND FREE ENERGY PREDICTED BY IDOCK:    2.96 KCAL/MOL
REMARK 924 INTRA-LIGAND FREE ENERGY PREDICTED BY IDOCK:   -0.35 KCAL/MOL
REMARK 927      BINDING AFFINITY PREDICTED BY RF-SCORE:    0.00 PKD
ROOT
HETATM    1  C   UNL     1      -9.745  12.028  69.295  1.00  0.00     0.562 C  
HETATM    2  O   UNL     1     -11.040  12.662  69.166  1.00  0.00    -0.245 OA 
HETATM    3  C   UNL     1     -10.730  14.006  69.289  1.00  0.00    -0.115 A  
HETATM    4  C   UNL     1     -11.556  15.069  69.545  1.00  0.00    -0.311 A  
HETATM    5  C   UNL     1     -10.996  16.351  69.344  1.00  0.00    -0.325 A  
HETATM    6  C   UNL     1      -9.598  10.690  68.612  1.00  0.00    -0.179 C  
HETATM    7  C   UNL     1      -9.469  10.655  67.262  1.00  0.00    -0.178 C  
HETATM    8  C   UNL     1      -9.685  16.548  68.813  1.00  0.00    -0.251 A  
HETATM    9  C   UNL     1      -8.880  15.450  68.548  1.00  0.00    -0.183 A  
HETATM   10  C   UNL     1      -9.405  14.239  68.958  1.00  0.00     0.025 A  
HETATM   11  C   UNL     1      -8.692  12.967  68.742  1.00  0.00     0.173 C  
HETATM   12  C   UNL     1      -7.401  12.937  69.591  1.00  0.00     0.642 C  
HETATM   13  C   UNL     1      -6.238  12.453  68.759  1.00  0.00    -0.073 C  
HETATM   14  N   UNL     1      -6.026  13.276  67.560  1.00  0.00    -0.308 NA 
HETATM   15  C   UNL     1      -5.309  12.445  66.585  1.00  0.00     0.547 C  
HETATM   16  C   UNL     1      -7.262  13.920  67.023  1.00  0.00     0.503 C  
HETATM   17  C   UNL     1      -7.571  15.380  67.741  1.00  0.00    -0.167 C  
HETATM   18  C   UNL     1      -8.514  13.033  67.210  1.00  0.00    -0.199 C  
HETATM   19  C   UNL     1      -8.694  11.700  66.482  1.00  0.00    -0.182 C  
ENDROOT
BRANCH   4  20
HETATM   20  O   UNL     1     -12.843  15.030  69.992  1.00  0.00    -0.212 OA 
HETATM   21  C   UNL     1     -13.826  14.432  69.149  1.00  0.00     5.197 C  
ENDBRANCH   4  20
BRANCH   6  22
HETATM   22  O   UNL     1      -8.703   9.888  69.430  1.00  0.00    -0.151 OA 
BRANCH  22  23
HETATM   23  C   UNL     1      -8.269   8.646  69.080  1.00  0.00    -0.122 C  
HETATM   24  O   UNL     1      -7.307   8.386  68.362  1.00  0.00    -0.090 OA 
BRANCH  23  25
HETATM   25  C   UNL     1      -9.149   7.591  69.663  1.00  0.00    -0.140 A  
HETATM   26  C   UNL     1     -10.535   7.755  69.502  1.00  0.00    -0.225 A  
HETATM   27  C   UNL     1     -11.438   6.856  70.081  1.00  0.00    -0.354 A  
HETATM   28  C   UNL     1     -10.961   5.775  70.818  1.00  0.00    -0.312 A  
HETATM   29  C   UNL     1      -9.587   5.582  70.967  1.00  0.00    -0.217 A  
HETATM   30  C   UNL     1      -8.674   6.488  70.388  1.00  0.00    -0.147 A  
ENDBRANCH  23  25
ENDBRANCH  22  23
ENDBRANCH   6  22
TORSDOF 4
ENDMDL
MODEL      172
REMARK 921   NORMALIZED FREE ENERGY PREDICTED BY IDOCK:    3.62 KCAL/MOL
REMARK 922        TOTAL FREE ENERGY PREDICTED BY IDOCK:    3.92 KCAL/MOL
REMARK 923 INTER-LIGAND FREE ENERGY PREDICTED BY IDOCK:    3.41 KCAL/MOL
REMARK 924 INTRA-LIGAND FREE ENERGY PREDICTED BY IDOCK:    0.50 KCAL/MOL
REMARK 927      BINDING AFFINITY PREDICTED BY RF-SCORE:    0.00 PKD
ROOT
HETATM    1  C   UNL     1      -9.578  14.973  67.632  1.00  0.00    -0.203 C  
HETATM    2  O   UNL     1      -8.346  15.721  67.757  1.00  0.00    -0.150 OA 
HETATM    3  C   UNL     1      -7.557  14.876  68.518  1.00  0.00    -0.121 A  
HETATM    4  C   UNL     1      -6.405  15.147  69.209  1.00  0.00    -0.117 A  
HETATM    5  C   UNL     1      -5.678  14.025  69.668  1.00  0.00    -0.103 A  
HETATM    6  C   UNL     1     -10.405  15.269  66.404  1.00  0.00    -0.289 C  
HETATM    7  C   UNL     1      -9.996  14.777  65.207  1.00  0.00    -0.331 C  
HETATM    8  C   UNL     1      -6.051  12.682  69.358  1.00  0.00    -0.107 A  
HETATM    9  C   UNL     1      -7.215  12.441  68.642  1.00  0.00    -0.104 A  
HETATM   10  C   UNL     1      -7.986  13.563  68.402  1.00  0.00    -0.142 A  
HETATM   11  C   UNL     1      -9.247  13.494  67.643  1.00  0.00    -0.214 C  
HETATM   12  C   UNL     1     -10.295  12.682  68.437  1.00  0.00    -0.241 C  
HETATM   13  C   UNL     1     -10.984  11.690  67.532  1.00  0.00    -0.259 C  
HETATM   14  N   UNL     1     -10.037  10.775  66.880  1.00  0.00    -0.204 NA 
HETATM   15  C   UNL     1     -10.687  10.273  65.663  1.00  0.00     0.152 C  
HETATM   16  C   UNL     1      -8.676  11.348  66.655  1.00  0.00    -0.178 C  
HETATM   17  C   UNL     1      -7.684  11.142  67.963  1.00  0.00    -0.107 C  
HETATM   18  C   UNL     1      -8.722  12.861  66.336  1.00  0.00     0.141 C  
HETATM   19  C   UNL     1      -9.348  13.414  65.056  1.00  0.00     0.726 C  
ENDROOT
BRANCH   4  20
HETATM   20  O   UNL     1      -5.895  16.373  69.520  1.00  0.00    -0.148 OA 
HETATM   21  C   UNL     1      -5.158  16.503  70.734  1.00  0.00    -0.207 C  
ENDBRANCH   4  20
BRANCH   6  22
HETATM   22  O   UNL     1     -11.801  15.136  66.785  1.00  0.00    -0.167 OA 
BRANCH  22  23
HETATM   23  C   UNL     1     -12.382  15.852  67.787  1.00  0.00     1.190 C  
HETATM   24  O   UNL     1     -12.961  16.928  67.671  1.00  0.00     3.411 OA 
BRANCH  23  25
HETATM   25  C   UNL     1     -12.201  15.170  69.102  1.00  0.00    -0.185 A  
HETATM   26  C   UNL     1     -11.095  15.561  69.877  1.00  0.00    -0.318 A  
HETATM   27  C   UNL     1     -10.804  14.923  71.088  1.00  0.00     0.135 A  
HETATM   28  C   UNL     1     -11.626  13.895  71.543  1.00  0.00     0.830 A  
HETATM   29  C   UNL     1     -12.742  13.511  70.799  1.00  0.00    -0.316 A  
HETATM   30  C   UNL     1     -13.036  14.149  69.576  1.00  0.00     1.037 A  
ENDBRANCH  23  25
ENDBRANCH  22  23
ENDBRANCH   6  22
TORSDOF 4
ENDMDL
MODEL      173
REMARK 921   NORMALIZED FREE ENERGY PREDICTED BY IDOCK:    5.70 KCAL/MOL
REMARK 922        TOTAL FREE ENERGY PREDICTED BY IDOCK:    6.48 KCAL/MOL
REMARK 923 INTER-LIGAND FREE ENERGY PREDICTED BY IDOCK:   -0.14 KCAL/MOL
REMARK 924 INTRA-LIGAND FREE ENERGY PREDICTED BY IDOCK:    6.62 KCAL/MOL
REMARK 927      BINDING AFFINITY PREDICTED BY RF-SCORE:    0.00 PKD
ROOT
HETATM    1  C   UNL     1      -7.502   7.183  65.723  1.00  0.00    -0.081 C  
HETATM    2  O   UNL     1      -8.078   5.873  65.940  1.00  0.00    -0.108 OA 
HETATM    3  C   UNL     1      -9.022   6.119  66.924  1.00  0.00    -0.118 A  
HETATM    4  C   UNL     1      -9.673   5.235  67.745  1.00  0.00    -0.140 A  
HETATM    5  C   UNL     1     -10.777   5.753  68.460  1.00  0.00    -0.288 A  
HETATM    6  C   UNL     1      -6.922   7.427  64.352  1.00  0.00    -0.059 C  
HETATM    7  C   UNL     1      -7.768   7.638  63.312  1.00  0.00    -0.131 C  
HETATM    8  C   UNL     1     -11.261   7.083  68.279  1.00  0.00     0.014 A  
HETATM    9  C   UNL     1     -10.590   7.949  67.427  1.00  0.00    -0.342 A  
HETATM   10  C   UNL     1      -9.404   7.450  66.919  1.00  0.00    -0.195 A  
HETATM   11  C   UNL     1      -8.569   8.228  65.986  1.00  0.00    -0.167 C  
HETATM   12  C   UNL     1      -7.988   9.465  66.706  1.00  0.00    -0.108 C  
HETATM   13  C   UNL     1      -8.148  10.695  65.846  1.00  0.00    -0.159 C  
HETATM   14  N   UNL     1      -9.550  10.945  65.482  1.00  0.00    -0.208 NA 
HETATM   15  C   UNL     1      -9.542  11.754  64.256  1.00  0.00    -0.067 C  
HETATM   16  C   UNL     1     -10.397   9.718  65.399  1.00  0.00     0.197 C  
HETATM   17  C   UNL     1     -11.048   9.305  66.864  1.00  0.00     0.404 C  
HETATM   18  C   UNL     1      -9.609   8.494  64.877  1.00  0.00     0.969 C  
HETATM   19  C   UNL     1      -9.064   8.414  63.450  1.00  0.00     0.955 C  
ENDROOT
BRANCH   4  20
HETATM   20  O   UNL     1      -9.363   3.926  67.965  1.00  0.00    -0.150 OA 
HETATM   21  C   UNL     1      -9.329   3.048  66.842  1.00  0.00    -0.109 C  
ENDBRANCH   4  20
BRANCH   6  22
HETATM   22  O   UNL     1      -5.776   8.304  64.521  1.00  0.00    -0.050 OA 
BRANCH  22  23
HETATM   23  C   UNL     1      -5.507   8.983  65.670  1.00  0.00    -0.041 C  
HETATM   24  O   UNL     1      -5.304  10.189  65.773  1.00  0.00    -0.044 OA 
BRANCH  23  25
HETATM   25  C   UNL     1      -5.454   8.053  66.837  1.00  0.00    -0.032 A  
HETATM   26  C   UNL     1      -5.274   6.688  66.558  1.00  0.00    -0.017 A  
HETATM   27  C   UNL     1      -5.287   5.736  67.584  1.00  0.00    -0.005 A  
HETATM   28  C   UNL     1      -5.469   6.143  68.903  1.00  0.00    -0.008 A  
HETATM   29  C   UNL     1      -5.624   7.498  69.201  1.00  0.00    -0.019 A  
HETATM   30  C   UNL     1      -5.615   8.459  68.169  1.00  0.00    -0.035 A  
ENDBRANCH  23  25
ENDBRANCH  22  23
ENDBRANCH   6  22
TORSDOF 4
ENDMDL
MODEL      174
REMARK 921   NORMALIZED FREE ENERGY PREDICTED BY IDOCK:    5.72 KCAL/MOL
REMARK 922        TOTAL FREE ENERGY PREDICTED BY IDOCK:    6.50 KCAL/MOL
REMARK 923 INTER-LIGAND FREE ENERGY PREDICTED BY IDOCK:    1.62 KCAL/MOL
REMARK 924 INTRA-LIGAND FREE ENERGY PREDICTED BY IDOCK:    4.88 KCAL/MOL
REMARK 927      BINDING AFFINITY PREDICTED BY RF-SCORE:    0.00 PKD
ROOT
HETATM    1  C   UNL     1      -9.334  11.819  67.281  1.00  0.00    -0.171 C  
HETATM    2  O   UNL     1      -7.951  11.416  67.141  1.00  0.00    -0.140 OA 
HETATM    3  C   UNL     1      -7.572  11.183  68.452  1.00  0.00    -0.110 A  
HETATM    4  C   UNL     1      -6.315  11.067  68.986  1.00  0.00    -0.048 A  
HETATM    5  C   UNL     1      -6.246  10.561  70.305  1.00  0.00    -0.130 A  
HETATM    6  C   UNL     1     -10.221  11.550  66.090  1.00  0.00    -0.232 C  
HETATM    7  C   UNL     1     -10.627  10.278  65.850  1.00  0.00    -0.083 C  
HETATM    8  C   UNL     1      -7.395  10.101  71.018  1.00  0.00     0.836 A  
HETATM    9  C   UNL     1      -8.652  10.218  70.442  1.00  0.00     0.652 A  
HETATM   10  C   UNL     1      -8.675  10.907  69.243  1.00  0.00     0.013 A  
HETATM   11  C   UNL     1      -9.923  11.112  68.486  1.00  0.00    -0.204 C  
HETATM   12  C   UNL     1     -10.874  12.035  69.279  1.00  0.00    -0.130 C  
HETATM   13  C   UNL     1     -12.272  11.466  69.284  1.00  0.00    -0.204 C  
HETATM   14  N   UNL     1     -12.322  10.106  69.839  1.00  0.00    -0.019 NA 
HETATM   15  C   UNL     1     -13.526   9.461  69.299  1.00  0.00     4.855 C  
HETATM   16  C   UNL     1     -11.069   9.315  69.653  1.00  0.00    -0.116 C  
HETATM   17  C   UNL     1      -9.980   9.570  70.873  1.00  0.00    -0.308 C  
HETATM   18  C   UNL     1     -10.361   9.641  68.318  1.00  0.00    -0.240 C  
HETATM   19  C   UNL     1     -10.972   9.302  66.958  1.00  0.00     0.088 C  
ENDROOT
BRANCH   4  20
HETATM   20  O   UNL     1      -5.131  11.403  68.400  1.00  0.00    -0.040 OA 
HETATM   21  C   UNL     1      -5.162  11.894  67.062  1.00  0.00    -0.104 C  
ENDBRANCH   4  20
BRANCH   6  22
HETATM   22  O   UNL     1     -11.195  12.628  66.029  1.00  0.00    -0.283 OA 
BRANCH  22  23
HETATM   23  C   UNL     1     -11.464  13.462  67.071  1.00  0.00    -0.337 C  
HETATM   24  O   UNL     1     -12.218  13.232  68.012  1.00  0.00    -0.275 OA 
BRANCH  23  25
HETATM   25  C   UNL     1     -10.735  14.756  66.919  1.00  0.00    -0.308 A  
HETATM   26  C   UNL     1     -10.689  15.599  68.042  1.00  0.00    -0.287 A  
HETATM   27  C   UNL     1     -10.093  16.863  67.969  1.00  0.00    -0.293 A  
HETATM   28  C   UNL     1      -9.525  17.291  66.772  1.00  0.00    -0.274 A  
HETATM   29  C   UNL     1      -9.539  16.456  65.653  1.00  0.00    -0.111 A  
HETATM   30  C   UNL     1     -10.142  15.183  65.722  1.00  0.00    -0.373 A  
ENDBRANCH  23  25
ENDBRANCH  22  23
ENDBRANCH   6  22
TORSDOF 4
ENDMDL
MODEL      175
REMARK 921   NORMALIZED FREE ENERGY PREDICTED BY IDOCK:    7.80 KCAL/MOL
REMARK 922        TOTAL FREE ENERGY PREDICTED BY IDOCK:    9.07 KCAL/MOL
REMARK 923 INTER-LIGAND FREE ENERGY PREDICTED BY IDOCK:    7.37 KCAL/MOL
REMARK 924 INTRA-LIGAND FREE ENERGY PREDICTED BY IDOCK:    1.70 KCAL/MOL
REMARK 927      BINDING AFFINITY PREDICTED BY RF-SCORE:    0.00 PKD
ROOT
HETATM    1  C   UNL     1      -9.926   8.734  69.952  1.00  0.00    -0.187 C  
HETATM    2  O   UNL     1     -10.523   8.082  71.099  1.00  0.00    -0.197 OA 
HETATM    3  C   UNL     1      -9.558   7.155  71.454  1.00  0.00    -0.161 A  
HETATM    4  C   UNL     1      -9.663   6.056  72.265  1.00  0.00    -0.156 A  
HETATM    5  C   UNL     1      -8.445   5.455  72.657  1.00  0.00    -0.114 A  
HETATM    6  C   UNL     1     -10.372  10.153  69.697  1.00  0.00    -0.247 C  
HETATM    7  C   UNL     1      -9.895  11.141  70.494  1.00  0.00     2.563 C  
HETATM    8  C   UNL     1      -7.170   6.001  72.320  1.00  0.00    -0.089 A  
HETATM    9  C   UNL     1      -7.096   7.125  71.510  1.00  0.00    -0.069 A  
HETATM   10  C   UNL     1      -8.309   7.541  70.992  1.00  0.00    -0.113 A  
HETATM   11  C   UNL     1      -8.420   8.728  70.124  1.00  0.00    -0.139 C  
HETATM   12  C   UNL     1      -7.695   8.469  68.785  1.00  0.00    -0.102 C  
HETATM   13  C   UNL     1      -6.832   9.651  68.419  1.00  0.00    -0.061 C  
HETATM   14  N   UNL     1      -5.847   9.970  69.463  1.00  0.00    -0.037 NA 
HETATM   15  C   UNL     1      -5.482  11.383  69.297  1.00  0.00    -0.048 C  
HETATM   16  C   UNL     1      -6.274   9.608  70.848  1.00  0.00    -0.087 C  
HETATM   17  C   UNL     1      -5.893   8.043  71.232  1.00  0.00    -0.034 C  
HETATM   18  C   UNL     1      -7.795   9.785  71.060  1.00  0.00     0.464 C  
HETATM   19  C   UNL     1      -8.476  11.154  71.031  1.00  0.00     5.914 C  
ENDROOT
BRANCH   4  20
HETATM   20  O   UNL     1     -10.807   5.467  72.717  1.00  0.00    -0.228 OA 
HETATM   21  C   UNL     1     -10.810   4.051  72.885  1.00  0.00    -0.099 C  
ENDBRANCH   4  20
BRANCH   6  22
HETATM   22  O   UNL     1     -10.380  10.347  68.256  1.00  0.00    -0.157 OA 
BRANCH  22  23
HETATM   23  C   UNL     1      -9.413  11.026  67.580  1.00  0.00    -0.164 C  
HETATM   24  O   UNL     1      -8.431  11.576  68.072  1.00  0.00    -0.135 OA 
BRANCH  23  25
HETATM   25  C   UNL     1      -9.708  11.057  66.117  1.00  0.00    -0.257 A  
HETATM   26  C   UNL     1      -8.789  11.730  65.295  1.00  0.00     0.324 A  
HETATM   27  C   UNL     1      -9.023  11.874  63.922  1.00  0.00     0.572 A  
HETATM   28  C   UNL     1     -10.175  11.334  63.357  1.00  0.00    -0.454 A  
HETATM   29  C   UNL     1     -11.087  10.641  64.155  1.00  0.00     0.786 A  
HETATM   30  C   UNL     1     -10.856  10.497  65.539  1.00  0.00     0.077 A  
ENDBRANCH  23  25
ENDBRANCH  22  23
ENDBRANCH   6  22
TORSDOF 4
ENDMDL
MODEL      176
REMARK 921   NORMALIZED FREE ENERGY PREDICTED BY IDOCK:    8.10 KCAL/MOL
REMARK 922        TOTAL FREE ENERGY PREDICTED BY IDOCK:    9.44 KCAL/MOL
REMARK 923 INTER-LIGAND FREE ENERGY PREDICTED BY IDOCK:    9.85 KCAL/MOL
REMARK 924 INTRA-LIGAND FREE ENERGY PREDICTED BY IDOCK:   -0.41 KCAL/MOL
REMARK 927      BINDING AFFINITY PREDICTED BY RF-SCORE:    0.00 PKD
ROOT
HETATM    1  C   UNL     1     -10.207  12.869  68.517  1.00  0.00    -0.205 C  
HETATM    2  O   UNL     1     -10.901  11.723  69.064  1.00  0.00    -0.214 OA 
HETATM    3  C   UNL     1     -10.503  10.700  68.220  1.00  0.00    -0.187 A  
HETATM    4  C   UNL     1     -11.047   9.454  68.046  1.00  0.00     0.059 A  
HETATM    5  C   UNL     1     -10.263   8.532  67.315  1.00  0.00    -0.346 A  
HETATM    6  C   UNL     1      -9.901  13.979  69.493  1.00  0.00     0.541 C  
HETATM    7  C   UNL     1      -8.892  13.807  70.383  1.00  0.00     3.676 C  
HETATM    8  C   UNL     1      -8.941   8.828  66.863  1.00  0.00    -0.155 A  
HETATM    9  C   UNL     1      -8.412  10.094  67.070  1.00  0.00    -0.129 A  
HETATM   10  C   UNL     1      -9.301  11.009  67.603  1.00  0.00    -0.162 A  
HETATM   11  C   UNL     1      -8.905  12.397  67.903  1.00  0.00    -0.180 C  
HETATM   12  C   UNL     1      -8.588  13.149  66.591  1.00  0.00     0.042 C  
HETATM   13  C   UNL     1      -7.299  13.921  66.728  1.00  0.00     1.047 C  
HETATM   14  N   UNL     1      -6.165  13.059  67.093  1.00  0.00    -0.237 NA 
HETATM   15  C   UNL     1      -5.158  13.916  67.734  1.00  0.00     0.004 C  
HETATM   16  C   UNL     1      -6.536  11.852  67.890  1.00  0.00    -0.075 C  
HETATM   17  C   UNL     1      -6.956  10.572  66.927  1.00  0.00    -0.096 C  
HETATM   18  C   UNL     1      -7.717  12.122  68.851  1.00  0.00     0.036 C  
HETATM   19  C   UNL     1      -7.608  13.075  70.041  1.00  0.00     1.757 C  
ENDROOT
BRANCH   4  20
HETATM   20  O   UNL     1     -12.263   9.014  68.476  1.00  0.00     2.277 OA 
HETATM   21  C   UNL     1     -12.912   9.745  69.514  1.00  0.00     1.808 C  
ENDBRANCH   4  20
BRANCH   6  22
HETATM   22  O   UNL     1      -9.992  15.231  68.760  1.00  0.00    -0.201 OA 
BRANCH  22  23
HETATM   23  C   UNL     1     -11.083  16.045  68.788  1.00  0.00    -0.338 C  
HETATM   24  O   UNL     1     -11.953  16.067  69.655  1.00  0.00    -0.299 OA 
BRANCH  23  25
HETATM   25  C   UNL     1     -11.125  16.922  67.581  1.00  0.00    -0.064 A  
HETATM   26  C   UNL     1     -11.366  16.297  66.346  1.00  0.00     0.445 A  
HETATM   27  C   UNL     1     -11.348  17.030  65.153  1.00  0.00     0.462 A  
HETATM   28  C   UNL     1     -11.098  18.399  65.187  1.00  0.00     1.128 A  
HETATM   29  C   UNL     1     -10.880  19.041  66.407  1.00  0.00    -0.277 A  
HETATM   30  C   UNL     1     -10.895  18.305  67.610  1.00  0.00    -0.272 A  
ENDBRANCH  23  25
ENDBRANCH  22  23
ENDBRANCH   6  22
TORSDOF 4
ENDMDL
MODEL      177
REMARK 921   NORMALIZED FREE ENERGY PREDICTED BY IDOCK:   12.75 KCAL/MOL
REMARK 922        TOTAL FREE ENERGY PREDICTED BY IDOCK:   15.17 KCAL/MOL
REMARK 923 INTER-LIGAND FREE ENERGY PREDICTED BY IDOCK:   15.30 KCAL/MOL
REMARK 924 INTRA-LIGAND FREE ENERGY PREDICTED BY IDOCK:   -0.12 KCAL/MOL
REMARK 927      BINDING AFFINITY PREDICTED BY RF-SCORE:    0.00 PKD
ROOT
HETATM    1  C   UNL     1      -9.923  14.625  68.593  1.00  0.00    -0.234 C  
HETATM    2  O   UNL     1      -9.050  13.516  68.914  1.00  0.00     0.028 OA 
HETATM    3  C   UNL     1      -9.747  12.430  68.411  1.00  0.00    -0.189 A  
HETATM    4  C   UNL     1      -9.580  11.094  68.667  1.00  0.00    -0.196 A  
HETATM    5  C   UNL     1     -10.259  10.207  67.801  1.00  0.00    -0.232 A  
HETATM    6  C   UNL     1      -9.248  15.963  68.420  1.00  0.00    -0.197 C  
HETATM    7  C   UNL     1      -8.546  16.200  67.283  1.00  0.00    -0.198 C  
HETATM    8  C   UNL     1     -10.998  10.651  66.662  1.00  0.00    -0.144 A  
HETATM    9  C   UNL     1     -11.135  12.011  66.421  1.00  0.00    -0.365 A  
HETATM   10  C   UNL     1     -10.625  12.826  67.415  1.00  0.00    -0.241 A  
HETATM   11  C   UNL     1     -10.670  14.296  67.316  1.00  0.00    -0.277 C  
HETATM   12  C   UNL     1     -12.136  14.782  67.373  1.00  0.00    -0.122 C  
HETATM   13  C   UNL     1     -12.390  15.807  66.294  1.00  0.00     1.602 C  
HETATM   14  N   UNL     1     -12.089  15.292  64.950  1.00  0.00    -0.118 NA 
HETATM   15  C   UNL     1     -11.821  16.454  64.092  1.00  0.00     0.547 C  
HETATM   16  C   UNL     1     -11.025  14.245  64.912  1.00  0.00    -0.404 C  
HETATM   17  C   UNL     1     -11.634  12.724  65.152  1.00  0.00    -0.373 C  
HETATM   18  C   UNL     1      -9.928  14.483  65.975  1.00  0.00    -0.343 C  
HETATM   19  C   UNL     1      -8.980  15.681  65.925  1.00  0.00    -0.189 C  
ENDROOT
BRANCH   4  20
HETATM   20  O   UNL     1      -8.854  10.528  69.672  1.00  0.00    -0.096 OA 
HETATM   21  C   UNL     1      -7.744  11.258  70.190  1.00  0.00     1.402 C  
ENDBRANCH   4  20
BRANCH   6  22
HETATM   22  O   UNL     1     -10.172  16.976  68.904  1.00  0.00    -0.286 OA 
BRANCH  22  23
HETATM   23  C   UNL     1      -9.807  18.256  69.191  1.00  0.00    -0.153 C  
HETATM   24  O   UNL     1      -9.255  19.044  68.429  1.00  0.00    -0.323 OA 
BRANCH  23  25
HETATM   25  C   UNL     1     -10.138  18.598  70.606  1.00  0.00     2.149 A  
HETATM   26  C   UNL     1     -10.882  17.655  71.334  1.00  0.00     2.265 A  
HETATM   27  C   UNL     1     -11.302  17.924  72.642  1.00  0.00     2.297 A  
HETATM   28  C   UNL     1     -10.969  19.137  73.239  1.00  0.00     3.692 A  
HETATM   29  C   UNL     1     -10.209  20.075  72.540  1.00  0.00     3.722 A  
HETATM   30  C   UNL     1      -9.788  19.809  71.220  1.00  0.00     2.273 A  
ENDBRANCH  23  25
ENDBRANCH  22  23
ENDBRANCH   6  22
TORSDOF 4
ENDMDL
MODEL      178
REMARK 921   NORMALIZED FREE ENERGY PREDICTED BY IDOCK:   14.13 KCAL/MOL
REMARK 922        TOTAL FREE ENERGY PREDICTED BY IDOCK:   16.88 KCAL/MOL
REMARK 923 INTER-LIGAND FREE ENERGY PREDICTED BY IDOCK:   11.55 KCAL/MOL
REMARK 924 INTRA-LIGAND FREE ENERGY PREDICTED BY IDOCK:    5.33 KCAL/MOL
REMARK 927      BINDING AFFINITY PREDICTED BY RF-SCORE:    0.00 PKD
ROOT
HETATM    1  C   UNL     1      -9.365   7.403  70.977  1.00  0.00    -0.157 C  
HETATM    2  O   UNL     1      -8.168   8.151  71.299  1.00  0.00    -0.100 OA 
HETATM    3  C   UNL     1      -7.774   7.584  72.499  1.00  0.00    -0.094 A  
HETATM    4  C   UNL     1      -6.892   8.056  73.436  1.00  0.00    -0.101 A  
HETATM    5  C   UNL     1      -6.487   7.132  74.426  1.00  0.00    -0.082 A  
HETATM    6  C   UNL     1      -9.701   7.302  69.509  1.00  0.00    -0.158 C  
HETATM    7  C   UNL     1      -8.978   6.459  68.729  1.00  0.00    -0.126 C  
HETATM    8  C   UNL     1      -6.882   5.760  74.413  1.00  0.00    -0.080 A  
HETATM    9  C   UNL     1      -7.764   5.309  73.440  1.00  0.00    -0.096 A  
HETATM   10  C   UNL     1      -8.283   6.302  72.630  1.00  0.00    -0.106 A  
HETATM   11  C   UNL     1      -9.222   6.001  71.534  1.00  0.00    -0.151 C  
HETATM   12  C   UNL     1     -10.557   5.480  72.113  1.00  0.00    -0.280 C  
HETATM   13  C   UNL     1     -11.014   4.256  71.358  1.00  0.00     0.967 C  
HETATM   14  N   UNL     1     -10.011   3.181  71.375  1.00  0.00    -0.110 NA 
HETATM   15  C   UNL     1     -10.274   2.325  70.211  1.00  0.00     0.986 C  
HETATM   16  C   UNL     1      -8.598   3.653  71.480  1.00  0.00    -0.084 C  
HETATM   17  C   UNL     1      -8.123   3.864  73.052  1.00  0.00    -0.088 C  
HETATM   18  C   UNL     1      -8.369   4.990  70.739  1.00  0.00    -0.107 C  
HETATM   19  C   UNL     1      -8.471   5.116  69.219  1.00  0.00    -0.093 C  
ENDROOT
BRANCH   4  20
HETATM   20  O   UNL     1      -6.381   9.316  73.533  1.00  0.00    -0.321 OA 
HETATM   21  C   UNL     1      -6.605  10.214  72.448  1.00  0.00     1.868 C  
ENDBRANCH   4  20
BRANCH   6  22
HETATM   22  O   UNL     1     -11.151   7.297  69.400  1.00  0.00    -0.178 OA 
BRANCH  22  23
HETATM   23  C   UNL     1     -11.822   6.962  68.264  1.00  0.00     1.361 C  
HETATM   24  O   UNL     1     -13.033   7.050  68.082  1.00  0.00     6.310 OA 
BRANCH  23  25
HETATM   25  C   UNL     1     -10.887   6.423  67.233  1.00  0.00    -0.463 A  
HETATM   26  C   UNL     1     -10.665   7.218  66.096  1.00  0.00     1.213 A  
HETATM   27  C   UNL     1      -9.863   6.760  65.044  1.00  0.00     2.132 A  
HETATM   28  C   UNL     1      -9.266   5.504  65.125  1.00  0.00     0.094 A  
HETATM   29  C   UNL     1      -9.456   4.712  66.259  1.00  0.00    -0.167 A  
HETATM   30  C   UNL     1     -10.266   5.169  67.319  1.00  0.00    -0.239 A  
ENDBRANCH  23  25
ENDBRANCH  22  23
ENDBRANCH   6  22
TORSDOF 4
ENDMDL
MODEL      179
REMARK 921   NORMALIZED FREE ENERGY PREDICTED BY IDOCK:   17.01 KCAL/MOL
REMARK 922        TOTAL FREE ENERGY PREDICTED BY IDOCK:   20.43 KCAL/MOL
REMARK 923 INTER-LIGAND FREE ENERGY PREDICTED BY IDOCK:   17.42 KCAL/MOL
REMARK 924 INTRA-LIGAND FREE ENERGY PREDICTED BY IDOCK:    3.01 KCAL/MOL
REMARK 927      BINDING AFFINITY PREDICTED BY RF-SCORE:    0.00 PKD
ROOT
HETATM    1  C   UNL     1     -11.023  13.265  69.972  1.00  0.00     0.554 C  
HETATM    2  O   UNL     1     -11.741  12.036  69.708  1.00  0.00    -0.308 OA 
HETATM    3  C   UNL     1     -12.511  11.888  70.849  1.00  0.00    -0.300 A  
HETATM    4  C   UNL     1     -13.169  10.780  71.317  1.00  0.00    -0.232 A  
HETATM    5  C   UNL     1     -14.094  11.004  72.363  1.00  0.00     0.851 A  
HETATM    6  C   UNL     1     -10.591  14.047  68.755  1.00  0.00    -0.251 C  
HETATM    7  C   UNL     1     -11.523  14.752  68.067  1.00  0.00    -0.351 C  
HETATM    8  C   UNL     1     -14.410  12.309  72.849  1.00  0.00     1.756 A  
HETATM    9  C   UNL     1     -13.738  13.412  72.343  1.00  0.00    -0.698 A  
HETATM   10  C   UNL     1     -12.705  13.108  71.476  1.00  0.00    -0.366 A  
HETATM   11  C   UNL     1     -11.894  14.158  70.832  1.00  0.00    -0.294 C  
HETATM   12  C   UNL     1     -11.064  14.909  71.897  1.00  0.00     0.220 C  
HETATM   13  C   UNL     1     -11.160  16.399  71.681  1.00  0.00     0.427 C  
HETATM   14  N   UNL     1     -12.550  16.880  71.705  1.00  0.00     1.832 NA 
HETATM   15  C   UNL     1     -12.584  18.143  70.956  1.00  0.00    13.705 C  
HETATM   16  C   UNL     1     -13.560  15.876  71.257  1.00  0.00     0.296 C  
HETATM   17  C   UNL     1     -14.073  14.906  72.497  1.00  0.00    -0.478 C  
HETATM   18  C   UNL     1     -13.019  14.956  70.138  1.00  0.00    -0.103 C  
HETATM   19  C   UNL     1     -12.673  15.475  68.742  1.00  0.00     0.818 C  
ENDROOT
BRANCH   4  20
HETATM   20  O   UNL     1     -13.017   9.490  70.904  1.00  0.00    -0.243 OA 
HETATM   21  C   UNL     1     -11.828   9.150  70.194  1.00  0.00     0.155 C  
ENDBRANCH   4  20
BRANCH   6  22
HETATM   22  O   UNL     1      -9.323  14.679  69.081  1.00  0.00    -0.153 OA 
BRANCH  22  23
HETATM   23  C   UNL     1      -8.921  15.874  68.567  1.00  0.00    -0.199 C  
HETATM   24  O   UNL     1      -8.272  16.737  69.152  1.00  0.00    -0.210 OA 
BRANCH  23  25
HETATM   25  C   UNL     1      -9.404  16.040  67.164  1.00  0.00    -0.222 A  
HETATM   26  C   UNL     1      -9.678  14.867  66.441  1.00  0.00    -0.306 A  
HETATM   27  C   UNL     1     -10.063  14.924  65.096  1.00  0.00    -0.354 A  
HETATM   28  C   UNL     1     -10.190  16.159  64.465  1.00  0.00     1.233 A  
HETATM   29  C   UNL     1      -9.946  17.335  65.176  1.00  0.00     0.926 A  
HETATM   30  C   UNL     1      -9.554  17.281  66.530  1.00  0.00    -0.286 A  
ENDBRANCH  23  25
ENDBRANCH  22  23
ENDBRANCH   6  22
TORSDOF 4
ENDMDL
MODEL      180
REMARK 921   NORMALIZED FREE ENERGY PREDICTED BY IDOCK:   29.36 KCAL/MOL
REMARK 922        TOTAL FREE ENERGY PREDICTED BY IDOCK:   35.68 KCAL/MOL
REMARK 923 INTER-LIGAND FREE ENERGY PREDICTED BY IDOCK:   36.24 KCAL/MOL
REMARK 924 INTRA-LIGAND FREE ENERGY PREDICTED BY IDOCK:   -0.56 KCAL/MOL
REMARK 927      BINDING AFFINITY PREDICTED BY RF-SCORE:    0.00 PKD
ROOT
HETATM    1  C   UNL     1      -8.790  10.810  68.855  1.00  0.00    -0.150 C  
HETATM    2  O   UNL     1      -8.392  10.527  67.493  1.00  0.00    -0.117 OA 
HETATM    3  C   UNL     1      -7.794  11.713  67.102  1.00  0.00    -0.163 A  
HETATM    4  C   UNL     1      -7.490  12.160  65.843  1.00  0.00     1.431 A  
HETATM    5  C   UNL     1      -6.639  13.287  65.774  1.00  0.00     6.422 A  
HETATM    6  C   UNL     1      -8.893   9.615  69.771  1.00  0.00    -0.210 C  
HETATM    7  C   UNL     1      -7.751   9.046  70.234  1.00  0.00    -0.098 C  
HETATM    8  C   UNL     1      -6.042  13.877  66.929  1.00  0.00     1.571 A  
HETATM    9  C   UNL     1      -6.357  13.390  68.189  1.00  0.00    -0.114 A  
HETATM   10  C   UNL     1      -7.350  12.428  68.202  1.00  0.00    -0.111 A  
HETATM   11  C   UNL     1      -7.800  11.790  69.453  1.00  0.00     0.416 C  
HETATM   12  C   UNL     1      -8.502  12.831  70.352  1.00  0.00     5.368 C  
HETATM   13  C   UNL     1      -8.005  12.718  71.772  1.00  0.00    12.865 C  
HETATM   14  N   UNL     1      -6.547  12.879  71.870  1.00  0.00     2.662 NA 
HETATM   15  C   UNL     1      -6.120  12.216  73.109  1.00  0.00     3.390 C  
HETATM   16  C   UNL     1      -5.793  12.449  70.654  1.00  0.00    -0.069 C  
HETATM   17  C   UNL     1      -5.663  13.663  69.536  1.00  0.00    -0.096 C  
HETATM   18  C   UNL     1      -6.449  11.236  69.955  1.00  0.00    -0.114 C  
HETATM   19  C   UNL     1      -6.520   9.853  70.602  1.00  0.00    -0.106 C  
ENDROOT
BRANCH   4  20
HETATM   20  O   UNL     1      -7.932  11.657  64.655  1.00  0.00     1.084 OA 
HETATM   21  C   UNL     1      -7.459  10.373  64.254  1.00  0.00    -0.002 C  
ENDBRANCH   4  20
BRANCH   6  22
HETATM   22  O   UNL     1      -9.979   9.880  70.701  1.00  0.00    -0.215 OA 
BRANCH  22  23
HETATM   23  C   UNL     1     -10.174   9.182  71.853  1.00  0.00    -0.151 C  
HETATM   24  O   UNL     1      -9.639   9.402  72.937  1.00  0.00     1.083 OA 
BRANCH  23  25
HETATM   25  C   UNL     1     -11.125   8.052  71.637  1.00  0.00    -0.300 A  
HETATM   26  C   UNL     1     -11.630   7.414  72.782  1.00  0.00    -0.255 A  
HETATM   27  C   UNL     1     -12.467   6.298  72.674  1.00  0.00     0.269 A  
HETATM   28  C   UNL     1     -12.817   5.815  71.416  1.00  0.00     1.720 A  
HETATM   29  C   UNL     1     -12.344   6.452  70.267  1.00  0.00     0.447 A  
HETATM   30  C   UNL     1     -11.498   7.574  70.372  1.00  0.00    -0.219 A  
ENDBRANCH  23  25
ENDBRANCH  22  23
ENDBRANCH   6  22
TORSDOF 4
ENDMDL
MODEL      181
REMARK 921   NORMALIZED FREE ENERGY PREDICTED BY IDOCK:   34.74 KCAL/MOL
REMARK 922        TOTAL FREE ENERGY PREDICTED BY IDOCK:   42.30 KCAL/MOL
REMARK 923 INTER-LIGAND FREE ENERGY PREDICTED BY IDOCK:   29.77 KCAL/MOL
REMARK 924 INTRA-LIGAND FREE ENERGY PREDICTED BY IDOCK:   12.54 KCAL/MOL
REMARK 927      BINDING AFFINITY PREDICTED BY RF-SCORE:    0.00 PKD
ROOT
HETATM    1  C   UNL     1      -9.610  16.797  66.870  1.00  0.00    -0.245 C  
HETATM    2  O   UNL     1      -9.207  15.687  66.032  1.00  0.00    -0.329 OA 
HETATM    3  C   UNL     1      -8.645  14.810  66.944  1.00  0.00    -0.224 A  
HETATM    4  C   UNL     1      -7.830  13.731  66.724  1.00  0.00     0.522 A  
HETATM    5  C   UNL     1      -7.635  12.866  67.825  1.00  0.00    -0.141 A  
HETATM    6  C   UNL     1     -10.769  17.618  66.361  1.00  0.00    -0.093 C  
HETATM    7  C   UNL     1     -12.023  17.107  66.454  1.00  0.00     2.888 C  
HETATM    8  C   UNL     1      -8.314  13.035  69.070  1.00  0.00     0.414 A  
HETATM    9  C   UNL     1      -9.146  14.130  69.256  1.00  0.00     0.350 A  
HETATM   10  C   UNL     1      -9.133  15.045  68.219  1.00  0.00    -0.182 A  
HETATM   11  C   UNL     1      -9.967  16.259  68.241  1.00  0.00    -0.236 C  
HETATM   12  C   UNL     1      -9.490  17.205  69.366  1.00  0.00     0.158 C  
HETATM   13  C   UNL     1     -10.669  17.718  70.156  1.00  0.00     1.270 C  
HETATM   14  N   UNL     1     -11.474  16.630  70.730  1.00  0.00    -0.030 NA 
HETATM   15  C   UNL     1     -12.822  17.164  70.962  1.00  0.00     6.634 C  
HETATM   16  C   UNL     1     -11.447  15.359  69.947  1.00  0.00    -0.312 C  
HETATM   17  C   UNL     1     -10.174  14.388  70.371  1.00  0.00     0.993 C  
HETATM   18  C   UNL     1     -11.356  15.609  68.424  1.00  0.00    -0.365 C  
HETATM   19  C   UNL     1     -12.485  16.267  67.629  1.00  0.00     2.041 C  
ENDROOT
BRANCH   4  20
HETATM   20  O   UNL     1      -7.172  13.410  65.574  1.00  0.00     4.836 OA 
HETATM   21  C   UNL     1      -7.729  13.851  64.338  1.00  0.00    13.937 C  
ENDBRANCH   4  20
BRANCH   6  22
HETATM   22  O   UNL     1     -10.533  18.992  66.771  1.00  0.00    -0.383 OA 
BRANCH  22  23
HETATM   23  C   UNL     1      -9.450  19.390  67.493  1.00  0.00    -0.312 C  
HETATM   24  O   UNL     1      -9.432  20.256  68.363  1.00  0.00    -0.165 OA 
BRANCH  23  25
HETATM   25  C   UNL     1      -8.226  18.647  67.068  1.00  0.00    -0.259 A  
HETATM   26  C   UNL     1      -7.501  19.177  65.988  1.00  0.00    -0.287 A  
HETATM   27  C   UNL     1      -6.384  18.508  65.473  1.00  0.00    -0.320 A  
HETATM   28  C   UNL     1      -5.975  17.306  66.045  1.00  0.00     0.031 A  
HETATM   29  C   UNL     1      -6.668  16.778  67.135  1.00  0.00    -0.224 A  
HETATM   30  C   UNL     1      -7.796  17.448  67.653  1.00  0.00    -0.199 A  
ENDBRANCH  23  25
ENDBRANCH  22  23
ENDBRANCH   6  22
TORSDOF 4
ENDMDL
MODEL      182
REMARK 921   NORMALIZED FREE ENERGY PREDICTED BY IDOCK:   58.73 KCAL/MOL
REMARK 922        TOTAL FREE ENERGY PREDICTED BY IDOCK:   71.91 KCAL/MOL
REMARK 923 INTER-LIGAND FREE ENERGY PREDICTED BY IDOCK:   72.26 KCAL/MOL
REMARK 924 INTRA-LIGAND FREE ENERGY PREDICTED BY IDOCK:   -0.34 KCAL/MOL
REMARK 927      BINDING AFFINITY PREDICTED BY RF-SCORE:    0.00 PKD
ROOT
HETATM    1  C   UNL     1     -10.634  14.602  68.132  1.00  0.00    -0.237 C  
HETATM    2  O   UNL     1     -10.601  13.292  68.746  1.00  0.00    -0.244 OA 
HETATM    3  C   UNL     1     -10.862  12.452  67.676  1.00  0.00    -0.225 A  
HETATM    4  C   UNL     1     -11.249  11.137  67.676  1.00  0.00    -0.297 A  
HETATM    5  C   UNL     1     -11.176  10.469  66.433  1.00  0.00     0.270 A  
HETATM    6  C   UNL     1      -9.809  15.667  68.811  1.00  0.00    -0.213 C  
HETATM    7  C   UNL     1      -8.460  15.643  68.663  1.00  0.00    -0.179 C  
HETATM    8  C   UNL     1     -10.641  11.079  65.257  1.00  0.00    -0.283 A  
HETATM    9  C   UNL     1     -10.243  12.408  65.294  1.00  0.00    -0.306 A  
HETATM   10  C   UNL     1     -10.531  13.062  66.477  1.00  0.00    -0.284 A  
HETATM   11  C   UNL     1     -10.164  14.473  66.696  1.00  0.00    -0.276 C  
HETATM   12  C   UNL     1     -10.978  15.382  65.748  1.00  0.00    -0.311 C  
HETATM   13  C   UNL     1     -10.075  16.400  65.095  1.00  0.00     0.213 C  
HETATM   14  N   UNL     1      -8.968  15.775  64.357  1.00  0.00     4.080 NA 
HETATM   15  C   UNL     1      -7.894  16.772  64.261  1.00  0.00    10.516 C  
HETATM   16  C   UNL     1      -8.529  14.454  64.898  1.00  0.00     5.579 C  
HETATM   17  C   UNL     1      -9.407  13.198  64.272  1.00  0.00     1.404 C  
HETATM   18  C   UNL     1      -8.645  14.383  66.438  1.00  0.00     0.203 C  
HETATM   19  C   UNL     1      -7.782  15.236  67.368  1.00  0.00    -0.225 C  
ENDROOT
BRANCH   4  20
HETATM   20  O   UNL     1     -11.715  10.411  68.732  1.00  0.00    -0.188 OA 
HETATM   21  C   UNL     1     -13.031  10.686  69.206  1.00  0.00     1.228 C  
ENDBRANCH   4  20
BRANCH   6  22
HETATM   22  O   UNL     1     -10.517  16.926  68.648  1.00  0.00    -0.307 OA 
BRANCH  22  23
HETATM   23  C   UNL     1     -10.234  18.049  69.364  1.00  0.00     0.091 C  
HETATM   24  O   UNL     1     -10.281  19.205  68.953  1.00  0.00    -0.378 OA 
BRANCH  23  25
HETATM   25  C   UNL     1      -9.811  17.703  70.753  1.00  0.00     3.333 A  
HETATM   26  C   UNL     1      -8.518  18.092  71.143  1.00  0.00     7.579 A  
HETATM   27  C   UNL     1      -8.010  17.744  72.400  1.00  0.00    13.836 A  
HETATM   28  C   UNL     1      -8.797  17.011  73.284  1.00  0.00    17.569 A  
HETATM   29  C   UNL     1     -10.092  16.637  72.923  1.00  0.00     7.764 A  
HETATM   30  C   UNL     1     -10.606  16.984  71.657  1.00  0.00     2.547 A  
ENDBRANCH  23  25
ENDBRANCH  22  23
ENDBRANCH   6  22
TORSDOF 4
ENDMDL
MODEL      183
REMARK 921   NORMALIZED FREE ENERGY PREDICTED BY IDOCK:   67.32 KCAL/MOL
REMARK 922        TOTAL FREE ENERGY PREDICTED BY IDOCK:   82.51 KCAL/MOL
REMARK 923 INTER-LIGAND FREE ENERGY PREDICTED BY IDOCK:   77.32 KCAL/MOL
REMARK 924 INTRA-LIGAND FREE ENERGY PREDICTED BY IDOCK:    5.19 KCAL/MOL
REMARK 927      BINDING AFFINITY PREDICTED BY RF-SCORE:    0.00 PKD
ROOT
HETATM    1  C   UNL     1     -10.847  13.195  70.139  1.00  0.00     1.040 C  
HETATM    2  O   UNL     1     -12.179  12.630  70.089  1.00  0.00    -0.305 OA 
HETATM    3  C   UNL     1     -12.442  12.366  71.423  1.00  0.00    -0.100 A  
HETATM    4  C   UNL     1     -13.408  11.567  71.977  1.00  0.00    -0.292 A  
HETATM    5  C   UNL     1     -13.604  11.707  73.370  1.00  0.00     5.215 A  
HETATM    6  C   UNL     1     -10.493  14.143  69.019  1.00  0.00    -0.183 C  
HETATM    7  C   UNL     1     -11.013  15.396  69.035  1.00  0.00    -0.252 C  
HETATM    8  C   UNL     1     -12.918  12.684  74.153  1.00  0.00    10.362 A  
HETATM    9  C   UNL     1     -11.958  13.489  73.559  1.00  0.00     3.218 A  
HETATM   10  C   UNL     1     -11.666  13.164  72.247  1.00  0.00     2.843 A  
HETATM   11  C   UNL     1     -10.681  13.925  71.457  1.00  0.00     3.567 C  
HETATM   12  C   UNL     1      -9.266  13.723  72.045  1.00  0.00    11.359 C  
HETATM   13  C   UNL     1      -8.551  15.048  72.155  1.00  0.00     6.446 C  
HETATM   14  N   UNL     1      -9.295  16.020  72.969  1.00  0.00    10.196 NA 
HETATM   15  C   UNL     1      -8.848  17.358  72.562  1.00  0.00    15.694 C  
HETATM   16  C   UNL     1     -10.777  15.838  72.952  1.00  0.00     2.343 C  
HETATM   17  C   UNL     1     -11.290  14.765  74.103  1.00  0.00     1.323 C  
HETATM   18  C   UNL     1     -11.291  15.337  71.583  1.00  0.00    -0.440 C  
HETATM   19  C   UNL     1     -11.215  16.187  70.314  1.00  0.00    -0.389 C  
ENDROOT
BRANCH   4  20
HETATM   20  O   UNL     1     -14.182  10.642  71.342  1.00  0.00     0.848 OA 
HETATM   21  C   UNL     1     -13.752  10.168  70.068  1.00  0.00     1.336 C  
ENDBRANCH   4  20
BRANCH   6  22
HETATM   22  O   UNL     1      -9.077  13.968  68.740  1.00  0.00    -0.144 OA 
BRANCH  22  23
HETATM   23  C   UNL     1      -8.358  14.796  67.933  1.00  0.00    -0.149 C  
HETATM   24  O   UNL     1      -8.369  14.806  66.706  1.00  0.00    -0.200 OA 
BRANCH  23  25
HETATM   25  C   UNL     1      -7.494  15.707  68.740  1.00  0.00    -0.151 A  
HETATM   26  C   UNL     1      -7.879  15.939  70.071  1.00  0.00     0.602 A  
HETATM   27  C   UNL     1      -7.172  16.837  70.879  1.00  0.00     3.581 A  
HETATM   28  C   UNL     1      -6.063  17.504  70.364  1.00  0.00     0.244 A  
HETATM   29  C   UNL     1      -5.652  17.267  69.052  1.00  0.00    -0.162 A  
HETATM   30  C   UNL     1      -6.364  16.365  68.234  1.00  0.00    -0.129 A  
ENDBRANCH  23  25
ENDBRANCH  22  23
ENDBRANCH   6  22
TORSDOF 4
ENDMDL
MODEL      184
REMARK 921   NORMALIZED FREE ENERGY PREDICTED BY IDOCK:   68.29 KCAL/MOL
REMARK 922        TOTAL FREE ENERGY PREDICTED BY IDOCK:   83.71 KCAL/MOL
REMARK 923 INTER-LIGAND FREE ENERGY PREDICTED BY IDOCK:   17.92 KCAL/MOL
REMARK 924 INTRA-LIGAND FREE ENERGY PREDICTED BY IDOCK:   65.78 KCAL/MOL
REMARK 927      BINDING AFFINITY PREDICTED BY RF-SCORE:    0.00 PKD
ROOT
HETATM    1  C   UNL     1      -7.383   6.773  65.137  1.00  0.00    -0.085 C  
HETATM    2  O   UNL     1      -7.537   5.442  65.686  1.00  0.00    -0.080 OA 
HETATM    3  C   UNL     1      -8.461   5.640  66.698  1.00  0.00    -0.113 A  
HETATM    4  C   UNL     1      -8.782   4.828  67.754  1.00  0.00    -0.103 A  
HETATM    5  C   UNL     1      -9.953   5.173  68.468  1.00  0.00    -0.221 A  
HETATM    6  C   UNL     1      -6.968   6.841  63.687  1.00  0.00    -0.056 C  
HETATM    7  C   UNL     1      -7.889   6.564  62.730  1.00  0.00    -0.104 C  
HETATM    8  C   UNL     1     -10.816   6.239  68.070  1.00  0.00    -0.409 A  
HETATM    9  C   UNL     1     -10.471   7.033  66.986  1.00  0.00    -0.386 A  
HETATM   10  C   UNL     1      -9.217   6.777  66.460  1.00  0.00    -0.190 A  
HETATM   11  C   UNL     1      -8.695   7.515  65.297  1.00  0.00     0.043 C  
HETATM   12  C   UNL     1      -8.468   8.997  65.672  1.00  0.00    -0.163 C  
HETATM   13  C   UNL     1      -9.025   9.900  64.599  1.00  0.00    -0.222 C  
HETATM   14  N   UNL     1     -10.455   9.663  64.353  1.00  0.00     1.513 NA 
HETATM   15  C   UNL     1     -10.745  10.134  62.993  1.00  0.00     2.031 C  
HETATM   16  C   UNL     1     -10.906   8.265  64.625  1.00  0.00     8.685 C  
HETATM   17  C   UNL     1     -11.335   8.042  66.209  1.00  0.00     3.189 C  
HETATM   18  C   UNL     1      -9.821   7.220  64.282  1.00  0.00     4.232 C  
HETATM   19  C   UNL     1      -9.348   6.963  62.851  1.00  0.00     2.055 C  
ENDROOT
BRANCH   4  20
HETATM   20  O   UNL     1      -8.091   3.743  68.205  1.00  0.00    -0.075 OA 
HETATM   21  C   UNL     1      -8.401   2.470  67.642  1.00  0.00    -0.082 C  
ENDBRANCH   4  20
BRANCH   6  22
HETATM   22  O   UNL     1      -6.123   8.014  63.538  1.00  0.00    -0.065 OA 
BRANCH  22  23
HETATM   23  C   UNL     1      -6.142   9.072  64.395  1.00  0.00    -0.070 C  
HETATM   24  O   UNL     1      -5.212   9.453  65.101  1.00  0.00    -0.039 OA 
BRANCH  23  25
HETATM   25  C   UNL     1      -7.484   9.725  64.406  1.00  0.00    -0.132 A  
HETATM   26  C   UNL     1      -8.010  10.124  63.166  1.00  0.00    -0.154 A  
HETATM   27  C   UNL     1      -9.227  10.811  63.087  1.00  0.00    -0.309 A  
HETATM   28  C   UNL     1      -9.937  11.094  64.251  1.00  0.00    -0.359 A  
HETATM   29  C   UNL     1      -9.441  10.683  65.490  1.00  0.00    -0.261 A  
HETATM   30  C   UNL     1      -8.214   9.994  65.572  1.00  0.00    -0.146 A  
ENDBRANCH  23  25
ENDBRANCH  22  23
ENDBRANCH   6  22
TORSDOF 4
ENDMDL
