MODEL        1
REMARK 921   NORMALIZED FREE ENERGY PREDICTED BY IDOCK:   -7.22 KCAL/MOL
REMARK 922        TOTAL FREE ENERGY PREDICTED BY IDOCK:  -10.32 KCAL/MOL
REMARK 923 INTER-LIGAND FREE ENERGY PREDICTED BY IDOCK:   -8.91 KCAL/MOL
REMARK 924 INTRA-LIGAND FREE ENERGY PREDICTED BY IDOCK:   -1.41 KCAL/MOL
REMARK 927      BINDING AFFINITY PREDICTED BY RF-SCORE:    0.00 PKD
ROOT
HETATM    1  C   UNL     1     -10.099  17.540  66.148  1.00  0.00    -0.310 C  
HETATM    2  C   UNL     1      -9.441  16.169  65.970  1.00  0.00    -0.374 C  
HETATM    3  C   UNL     1      -8.044  16.333  66.566  1.00  0.00    -0.337 C  
HETATM    4  C   UNL     1      -8.003  17.790  67.041  1.00  0.00    -0.218 C  
HETATM    5  N   UNL     1      -8.928  18.420  66.098  1.00  0.00    -0.494 NA 
HETATM    6  C   UNL     1      -8.466  17.902  68.499  1.00  0.00    -0.303 C  
HETATM    7  C   UNL     1      -9.964  17.612  68.743  1.00  0.00    -0.358 C  
HETATM    8  C   UNL     1      -9.190  19.832  66.322  1.00  0.00    -0.388 C  
HETATM    9  C   UNL     1     -10.854  17.648  67.480  1.00  0.00    -0.205 C  
ENDROOT
BRANCH   7  10
HETATM   10  O   UNL     1     -10.209  16.358  69.400  1.00  0.00    -0.265 OA 
BRANCH  10  11
HETATM   11  C   UNL     1     -11.518  15.787  69.225  1.00  0.00    -0.365 C  
BRANCH  11  12
HETATM   12  C   UNL     1     -12.216  15.704  70.577  1.00  0.00    -0.437 A  
HETATM   13  C   UNL     1     -13.509  15.186  70.718  1.00  0.00    -0.345 A  
HETATM   14  C   UNL     1     -11.544  16.160  71.725  1.00  0.00    -0.503 A  
HETATM   15  C   UNL     1     -14.099  15.082  71.979  1.00  0.00    -0.633 A  
HETATM   16  C   UNL     1     -12.134  16.054  72.985  1.00  0.00    -0.628 A  
HETATM   17  C   UNL     1     -13.407  15.505  73.112  1.00  0.00    -0.632 A  
ENDBRANCH  11  12
BRANCH  11  18
HETATM   18  C   UNL     1     -11.537  14.459  68.481  1.00  0.00    -0.347 A  
HETATM   19  C   UNL     1     -12.005  13.124  66.505  1.00  0.00    -0.459 A  
HETATM   20  C   UNL     1     -12.077  14.338  67.193  1.00  0.00    -0.412 A  
HETATM   21  C   UNL     1     -10.890  12.109  68.388  1.00  0.00    -0.255 A  
HETATM   22  C   UNL     1     -11.405  12.014  67.099  1.00  0.00    -0.396 A  
HETATM   23  C   UNL     1     -10.957  13.322  69.076  1.00  0.00    -0.249 A  
ENDBRANCH  11  18
ENDBRANCH  10  11
ENDBRANCH   7  10
TORSDOF 4
ENDMDL
MODEL        2
REMARK 921   NORMALIZED FREE ENERGY PREDICTED BY IDOCK:   -7.12 KCAL/MOL
REMARK 922        TOTAL FREE ENERGY PREDICTED BY IDOCK:  -10.20 KCAL/MOL
REMARK 923 INTER-LIGAND FREE ENERGY PREDICTED BY IDOCK:   -9.09 KCAL/MOL
REMARK 924 INTRA-LIGAND FREE ENERGY PREDICTED BY IDOCK:   -1.11 KCAL/MOL
REMARK 927      BINDING AFFINITY PREDICTED BY RF-SCORE:    0.00 PKD
ROOT
HETATM    1  C   UNL     1      -8.655  17.743  66.565  1.00  0.00    -0.257 C  
HETATM    2  C   UNL     1      -7.582  17.213  67.521  1.00  0.00    -0.187 C  
HETATM    3  C   UNL     1      -7.575  18.209  68.680  1.00  0.00    -0.306 C  
HETATM    4  C   UNL     1      -8.646  19.238  68.302  1.00  0.00    -0.338 C  
HETATM    5  N   UNL     1      -8.589  19.180  66.841  1.00  0.00    -0.289 NA 
HETATM    6  C   UNL     1     -10.014  18.835  68.865  1.00  0.00    -0.423 C  
HETATM    7  C   UNL     1     -10.650  17.581  68.225  1.00  0.00    -0.354 C  
HETATM    8  C   UNL     1      -9.562  20.002  66.140  1.00  0.00    -0.373 C  
HETATM    9  C   UNL     1     -10.039  17.153  66.871  1.00  0.00    -0.298 C  
ENDROOT
BRANCH   7  10
HETATM   10  O   UNL     1     -10.639  16.427  69.080  1.00  0.00    -0.265 OA 
BRANCH  10  11
HETATM   11  C   UNL     1     -11.862  15.675  69.160  1.00  0.00    -0.362 C  
BRANCH  11  12
HETATM   12  C   UNL     1     -12.374  15.697  70.596  1.00  0.00    -0.457 A  
HETATM   13  C   UNL     1     -11.563  16.086  71.670  1.00  0.00    -0.538 A  
HETATM   14  C   UNL     1     -13.702  15.317  70.857  1.00  0.00    -0.363 A  
HETATM   15  C   UNL     1     -12.079  16.140  72.965  1.00  0.00    -0.636 A  
HETATM   16  C   UNL     1     -14.217  15.373  72.152  1.00  0.00    -0.660 A  
HETATM   17  C   UNL     1     -13.407  15.794  73.204  1.00  0.00    -0.685 A  
ENDBRANCH  11  12
BRANCH  11  18
HETATM   18  C   UNL     1     -11.778  14.263  68.597  1.00  0.00    -0.380 A  
HETATM   19  C   UNL     1     -11.631  11.855  68.881  1.00  0.00    -0.370 A  
HETATM   20  C   UNL     1     -11.623  13.142  69.424  1.00  0.00    -0.360 A  
HETATM   21  C   UNL     1     -11.907  12.775  66.669  1.00  0.00    -0.462 A  
HETATM   22  C   UNL     1     -11.782  11.671  67.507  1.00  0.00    -0.288 A  
HETATM   23  C   UNL     1     -11.903  14.062  67.208  1.00  0.00    -0.445 A  
ENDBRANCH  11  18
ENDBRANCH  10  11
ENDBRANCH   7  10
TORSDOF 4
ENDMDL
MODEL        3
REMARK 921   NORMALIZED FREE ENERGY PREDICTED BY IDOCK:   -7.09 KCAL/MOL
REMARK 922        TOTAL FREE ENERGY PREDICTED BY IDOCK:  -10.16 KCAL/MOL
REMARK 923 INTER-LIGAND FREE ENERGY PREDICTED BY IDOCK:   -8.76 KCAL/MOL
REMARK 924 INTRA-LIGAND FREE ENERGY PREDICTED BY IDOCK:   -1.39 KCAL/MOL
REMARK 927      BINDING AFFINITY PREDICTED BY RF-SCORE:    0.00 PKD
ROOT
HETATM    1  C   UNL     1     -12.143  13.147  66.048  1.00  0.00    -0.436 C  
HETATM    2  C   UNL     1     -11.396  11.848  66.365  1.00  0.00    -0.400 C  
HETATM    3  C   UNL     1      -9.918  12.209  66.215  1.00  0.00    -0.249 C  
HETATM    4  C   UNL     1      -9.928  13.690  65.822  1.00  0.00    -0.261 C  
HETATM    5  N   UNL     1     -11.208  13.787  65.119  1.00  0.00    -0.306 NA 
HETATM    6  C   UNL     1      -9.857  14.586  67.064  1.00  0.00    -0.249 C  
HETATM    7  C   UNL     1     -11.113  14.569  67.965  1.00  0.00    -0.276 C  
HETATM    8  C   UNL     1     -11.579  15.118  64.668  1.00  0.00    -0.357 C  
HETATM    9  C   UNL     1     -12.386  13.992  67.306  1.00  0.00    -0.195 C  
ENDROOT
BRANCH   7  10
HETATM   10  O   UNL     1     -10.923  13.871  69.207  1.00  0.00    -0.243 OA 
BRANCH  10  11
HETATM   11  C   UNL     1     -12.107  13.355  69.840  1.00  0.00    -0.322 C  
BRANCH  11  12
HETATM   12  C   UNL     1     -12.550  14.316  70.938  1.00  0.00    -0.426 A  
HETATM   13  C   UNL     1     -13.900  14.520  71.250  1.00  0.00    -0.381 A  
HETATM   14  C   UNL     1     -11.575  15.022  71.664  1.00  0.00    -0.416 A  
HETATM   15  C   UNL     1     -14.266  15.372  72.293  1.00  0.00    -0.639 A  
HETATM   16  C   UNL     1     -11.943  15.872  72.708  1.00  0.00    -0.616 A  
HETATM   17  C   UNL     1     -13.288  16.038  73.028  1.00  0.00    -0.589 A  
ENDBRANCH  11  12
BRANCH  11  18
HETATM   18  C   UNL     1     -11.988  11.922  70.338  1.00  0.00    -0.400 A  
HETATM   19  C   UNL     1     -10.887   9.756  70.370  1.00  0.00    -0.370 A  
HETATM   20  C   UNL     1     -11.023  11.039  69.835  1.00  0.00    -0.218 A  
HETATM   21  C   UNL     1     -12.704  10.187  71.897  1.00  0.00    -0.493 A  
HETATM   22  C   UNL     1     -11.721   9.334  71.405  1.00  0.00    -0.431 A  
HETATM   23  C   UNL     1     -12.840  11.471  71.366  1.00  0.00    -0.489 A  
ENDBRANCH  11  18
ENDBRANCH  10  11
ENDBRANCH   7  10
TORSDOF 4
ENDMDL
MODEL        4
REMARK 921   NORMALIZED FREE ENERGY PREDICTED BY IDOCK:   -7.06 KCAL/MOL
REMARK 922        TOTAL FREE ENERGY PREDICTED BY IDOCK:  -10.13 KCAL/MOL
REMARK 923 INTER-LIGAND FREE ENERGY PREDICTED BY IDOCK:   -8.95 KCAL/MOL
REMARK 924 INTRA-LIGAND FREE ENERGY PREDICTED BY IDOCK:   -1.17 KCAL/MOL
REMARK 927      BINDING AFFINITY PREDICTED BY RF-SCORE:    0.00 PKD
ROOT
HETATM    1  C   UNL     1      -8.696  18.807  68.301  1.00  0.00    -0.333 C  
HETATM    2  C   UNL     1      -9.986  19.564  68.632  1.00  0.00    -0.538 C  
HETATM    3  C   UNL     1     -10.775  19.566  67.323  1.00  0.00    -0.604 C  
HETATM    4  C   UNL     1      -9.878  18.810  66.338  1.00  0.00    -0.373 C  
HETATM    5  N   UNL     1      -8.551  19.112  66.875  1.00  0.00    -0.289 NA 
HETATM    6  C   UNL     1     -10.200  17.311  66.345  1.00  0.00    -0.333 C  
HETATM    7  C   UNL     1      -9.821  16.558  67.641  1.00  0.00    -0.247 C  
HETATM    8  C   UNL     1      -7.437  18.465  66.202  1.00  0.00    -0.245 C  
HETATM    9  C   UNL     1      -8.830  17.301  68.566  1.00  0.00    -0.269 C  
ENDROOT
BRANCH   7  10
HETATM   10  O   UNL     1     -10.953  16.185  68.443  1.00  0.00    -0.309 OA 
BRANCH  10  11
HETATM   11  C   UNL     1     -11.033  14.803  68.835  1.00  0.00    -0.254 C  
BRANCH  11  12
HETATM   12  C   UNL     1     -11.287  13.944  67.602  1.00  0.00    -0.335 A  
HETATM   13  C   UNL     1     -10.558  12.777  67.343  1.00  0.00    -0.241 A  
HETATM   14  C   UNL     1     -12.285  14.331  66.690  1.00  0.00    -0.411 A  
HETATM   15  C   UNL     1     -10.849  11.990  66.228  1.00  0.00    -0.316 A  
HETATM   16  C   UNL     1     -12.576  13.543  65.577  1.00  0.00    -0.531 A  
HETATM   17  C   UNL     1     -11.865  12.367  65.352  1.00  0.00    -0.460 A  
ENDBRANCH  11  12
BRANCH  11  18
HETATM   18  C   UNL     1     -12.024  14.517  69.955  1.00  0.00    -0.382 A  
HETATM   19  C   UNL     1     -13.121  12.995  71.499  1.00  0.00    -0.400 A  
HETATM   20  C   UNL     1     -12.267  13.215  70.416  1.00  0.00    -0.389 A  
HETATM   21  C   UNL     1     -13.546  15.364  71.662  1.00  0.00    -0.603 A  
HETATM   22  C   UNL     1     -13.753  14.069  72.127  1.00  0.00    -0.603 A  
HETATM   23  C   UNL     1     -12.690  15.587  70.582  1.00  0.00    -0.487 A  
ENDBRANCH  11  18
ENDBRANCH  10  11
ENDBRANCH   7  10
TORSDOF 4
ENDMDL
MODEL        5
REMARK 921   NORMALIZED FREE ENERGY PREDICTED BY IDOCK:   -7.05 KCAL/MOL
REMARK 922        TOTAL FREE ENERGY PREDICTED BY IDOCK:  -10.11 KCAL/MOL
REMARK 923 INTER-LIGAND FREE ENERGY PREDICTED BY IDOCK:   -8.53 KCAL/MOL
REMARK 924 INTRA-LIGAND FREE ENERGY PREDICTED BY IDOCK:   -1.58 KCAL/MOL
REMARK 927      BINDING AFFINITY PREDICTED BY RF-SCORE:    0.00 PKD
ROOT
HETATM    1  C   UNL     1      -9.008  17.740  66.828  1.00  0.00    -0.259 C  
HETATM    2  C   UNL     1      -9.188  16.466  65.996  1.00  0.00    -0.328 C  
HETATM    3  C   UNL     1      -8.484  15.378  66.805  1.00  0.00    -0.307 C  
HETATM    4  C   UNL     1      -7.951  16.109  68.042  1.00  0.00    -0.145 C  
HETATM    5  N   UNL     1      -7.741  17.454  67.506  1.00  0.00    -0.190 NA 
HETATM    6  C   UNL     1      -8.975  16.071  69.182  1.00  0.00    -0.252 C  
HETATM    7  C   UNL     1     -10.258  16.901  68.948  1.00  0.00    -0.314 C  
HETATM    8  C   UNL     1      -7.300  18.453  68.466  1.00  0.00    -0.287 C  
HETATM    9  C   UNL     1     -10.165  17.949  67.816  1.00  0.00    -0.372 C  
ENDROOT
BRANCH   7  10
HETATM   10  O   UNL     1     -11.423  16.101  68.691  1.00  0.00    -0.373 OA 
BRANCH  10  11
HETATM   11  C   UNL     1     -11.366  14.728  69.119  1.00  0.00    -0.282 C  
BRANCH  11  12
HETATM   12  C   UNL     1     -11.544  13.817  67.911  1.00  0.00    -0.376 A  
HETATM   13  C   UNL     1     -12.260  14.216  66.775  1.00  0.00    -0.429 A  
HETATM   14  C   UNL     1     -10.972  12.533  67.930  1.00  0.00    -0.262 A  
HETATM   15  C   UNL     1     -12.363  13.372  65.668  1.00  0.00    -0.521 A  
HETATM   16  C   UNL     1     -11.073  11.691  66.822  1.00  0.00    -0.366 A  
HETATM   17  C   UNL     1     -11.760  12.116  65.687  1.00  0.00    -0.385 A  
ENDBRANCH  11  12
BRANCH  11  18
HETATM   18  C   UNL     1     -12.317  14.377  70.255  1.00  0.00    -0.410 A  
HETATM   19  C   UNL     1     -13.187  12.826  71.910  1.00  0.00    -0.511 A  
HETATM   20  C   UNL     1     -12.361  13.093  70.816  1.00  0.00    -0.404 A  
HETATM   21  C   UNL     1     -13.977  15.105  71.888  1.00  0.00    -0.629 A  
HETATM   22  C   UNL     1     -13.987  13.832  72.451  1.00  0.00    -0.651 A  
HETATM   23  C   UNL     1     -13.150  15.376  70.796  1.00  0.00    -0.479 A  
ENDBRANCH  11  18
ENDBRANCH  10  11
ENDBRANCH   7  10
TORSDOF 4
ENDMDL
MODEL        6
REMARK 921   NORMALIZED FREE ENERGY PREDICTED BY IDOCK:   -7.01 KCAL/MOL
REMARK 922        TOTAL FREE ENERGY PREDICTED BY IDOCK:  -10.06 KCAL/MOL
REMARK 923 INTER-LIGAND FREE ENERGY PREDICTED BY IDOCK:   -8.36 KCAL/MOL
REMARK 924 INTRA-LIGAND FREE ENERGY PREDICTED BY IDOCK:   -1.70 KCAL/MOL
REMARK 927      BINDING AFFINITY PREDICTED BY RF-SCORE:    0.00 PKD
ROOT
HETATM    1  C   UNL     1     -10.461  12.848  64.719  1.00  0.00    -0.350 C  
HETATM    2  C   UNL     1      -9.822  14.212  64.997  1.00  0.00    -0.064 C  
HETATM    3  C   UNL     1     -11.005  15.175  65.101  1.00  0.00    -0.428 C  
HETATM    4  C   UNL     1     -12.235  14.290  64.874  1.00  0.00    -0.440 C  
HETATM    5  N   UNL     1     -11.678  13.249  64.009  1.00  0.00    -0.417 NA 
HETATM    6  C   UNL     1     -12.768  13.743  66.203  1.00  0.00    -0.335 C  
HETATM    7  C   UNL     1     -11.858  12.711  66.907  1.00  0.00    -0.355 C  
HETATM    8  C   UNL     1     -12.587  12.171  63.656  1.00  0.00    -0.504 C  
HETATM    9  C   UNL     1     -10.766  12.081  66.013  1.00  0.00    -0.317 C  
ENDROOT
BRANCH   7  10
HETATM   10  O   UNL     1     -11.205  13.223  68.079  1.00  0.00    -0.252 OA 
BRANCH  10  11
HETATM   11  C   UNL     1     -11.747  14.432  68.639  1.00  0.00    -0.332 C  
BRANCH  11  12
HETATM   12  C   UNL     1     -10.675  15.515  68.630  1.00  0.00    -0.252 A  
HETATM   13  C   UNL     1      -9.355  15.261  69.023  1.00  0.00    -0.231 A  
HETATM   14  C   UNL     1     -11.016  16.814  68.213  1.00  0.00    -0.327 A  
HETATM   15  C   UNL     1      -8.388  16.265  68.956  1.00  0.00    -0.239 A  
HETATM   16  C   UNL     1     -10.047  17.817  68.145  1.00  0.00    -0.362 A  
HETATM   17  C   UNL     1      -8.732  17.538  68.507  1.00  0.00    -0.282 A  
ENDBRANCH  11  12
BRANCH  11  18
HETATM   18  C   UNL     1     -12.391  14.266  70.009  1.00  0.00    -0.403 A  
HETATM   19  C   UNL     1     -13.659  15.130  71.892  1.00  0.00    -0.545 A  
HETATM   20  C   UNL     1     -13.007  15.335  70.674  1.00  0.00    -0.442 A  
HETATM   21  C   UNL     1     -13.062  12.794  71.834  1.00  0.00    -0.474 A  
HETATM   22  C   UNL     1     -13.694  13.860  72.467  1.00  0.00    -0.665 A  
HETATM   23  C   UNL     1     -12.413  12.995  70.615  1.00  0.00    -0.347 A  
ENDBRANCH  11  18
ENDBRANCH  10  11
ENDBRANCH   7  10
TORSDOF 4
ENDMDL
MODEL        7
REMARK 921   NORMALIZED FREE ENERGY PREDICTED BY IDOCK:   -7.01 KCAL/MOL
REMARK 922        TOTAL FREE ENERGY PREDICTED BY IDOCK:  -10.05 KCAL/MOL
REMARK 923 INTER-LIGAND FREE ENERGY PREDICTED BY IDOCK:   -8.62 KCAL/MOL
REMARK 924 INTRA-LIGAND FREE ENERGY PREDICTED BY IDOCK:   -1.43 KCAL/MOL
REMARK 927      BINDING AFFINITY PREDICTED BY RF-SCORE:    0.00 PKD
ROOT
HETATM    1  C   UNL     1      -9.868  13.745  65.667  1.00  0.00    -0.192 C  
HETATM    2  C   UNL     1      -9.821  15.264  65.479  1.00  0.00    -0.362 C  
HETATM    3  C   UNL     1     -11.128  15.602  64.762  1.00  0.00    -0.426 C  
HETATM    4  C   UNL     1     -11.827  14.250  64.590  1.00  0.00    -0.448 C  
HETATM    5  N   UNL     1     -10.679  13.346  64.514  1.00  0.00    -0.402 NA 
HETATM    6  C   UNL     1     -12.744  13.953  65.783  1.00  0.00    -0.503 C  
HETATM    7  C   UNL     1     -12.021  13.682  67.122  1.00  0.00    -0.393 C  
HETATM    8  C   UNL     1     -10.997  11.930  64.426  1.00  0.00    -0.337 C  
HETATM    9  C   UNL     1     -10.517  13.350  67.001  1.00  0.00    -0.257 C  
ENDROOT
BRANCH   7  10
HETATM   10  O   UNL     1     -12.146  14.752  68.072  1.00  0.00    -0.272 OA 
BRANCH  10  11
HETATM   11  C   UNL     1     -11.100  14.863  69.054  1.00  0.00    -0.250 C  
BRANCH  11  12
HETATM   12  C   UNL     1     -11.717  14.865  70.448  1.00  0.00    -0.347 A  
HETATM   13  C   UNL     1     -11.538  15.929  71.341  1.00  0.00    -0.529 A  
HETATM   14  C   UNL     1     -12.493  13.765  70.856  1.00  0.00    -0.451 A  
HETATM   15  C   UNL     1     -12.157  15.918  72.592  1.00  0.00    -0.615 A  
HETATM   16  C   UNL     1     -13.112  13.756  72.106  1.00  0.00    -0.497 A  
HETATM   17  C   UNL     1     -12.952  14.837  72.969  1.00  0.00    -0.609 A  
ENDBRANCH  11  12
BRANCH  11  18
HETATM   18  C   UNL     1     -10.149  16.032  68.840  1.00  0.00    -0.229 A  
HETATM   19  C   UNL     1      -7.912  16.976  68.744  1.00  0.00    -0.248 A  
HETATM   20  C   UNL     1      -8.765  15.907  69.027  1.00  0.00    -0.236 A  
HETATM   21  C   UNL     1      -9.804  18.337  68.119  1.00  0.00    -0.356 A  
HETATM   22  C   UNL     1      -8.430  18.186  68.282  1.00  0.00    -0.294 A  
HETATM   23  C   UNL     1     -10.658  17.269  68.398  1.00  0.00    -0.368 A  
ENDBRANCH  11  18
ENDBRANCH  10  11
ENDBRANCH   7  10
TORSDOF 4
ENDMDL
MODEL        8
REMARK 921   NORMALIZED FREE ENERGY PREDICTED BY IDOCK:   -6.97 KCAL/MOL
REMARK 922        TOTAL FREE ENERGY PREDICTED BY IDOCK:  -10.01 KCAL/MOL
REMARK 923 INTER-LIGAND FREE ENERGY PREDICTED BY IDOCK:   -8.66 KCAL/MOL
REMARK 924 INTRA-LIGAND FREE ENERGY PREDICTED BY IDOCK:   -1.35 KCAL/MOL
REMARK 927      BINDING AFFINITY PREDICTED BY RF-SCORE:    0.00 PKD
ROOT
HETATM    1  C   UNL     1     -11.502  13.313  65.429  1.00  0.00    -0.304 C  
HETATM    2  C   UNL     1     -11.137  11.891  65.863  1.00  0.00    -0.365 C  
HETATM    3  C   UNL     1      -9.889  12.063  66.728  1.00  0.00    -0.218 C  
HETATM    4  C   UNL     1      -9.631  13.573  66.726  1.00  0.00    -0.267 C  
HETATM    5  N   UNL     1     -10.183  13.952  65.424  1.00  0.00    -0.335 NA 
HETATM    6  C   UNL     1     -10.345  14.252  67.900  1.00  0.00    -0.233 C  
HETATM    7  C   UNL     1     -11.889  14.272  67.814  1.00  0.00    -0.379 C  
HETATM    8  C   UNL     1     -10.172  15.374  65.125  1.00  0.00    -0.325 C  
HETATM    9  C   UNL     1     -12.472  13.983  66.412  1.00  0.00    -0.395 C  
ENDROOT
BRANCH   7  10
HETATM   10  O   UNL     1     -12.529  13.375  68.735  1.00  0.00    -0.072 OA 
BRANCH  10  11
HETATM   11  C   UNL     1     -11.933  13.260  70.039  1.00  0.00    -0.329 C  
BRANCH  11  12
HETATM   12  C   UNL     1     -12.027  11.813  70.508  1.00  0.00    -0.383 A  
HETATM   13  C   UNL     1     -12.894  11.417  71.535  1.00  0.00    -0.508 A  
HETATM   14  C   UNL     1     -11.220  10.839  69.894  1.00  0.00    -0.371 A  
HETATM   15  C   UNL     1     -12.988  10.075  71.907  1.00  0.00    -0.547 A  
HETATM   16  C   UNL     1     -11.317   9.497  70.266  1.00  0.00    -0.284 A  
HETATM   17  C   UNL     1     -12.208   9.115  71.265  1.00  0.00    -0.395 A  
ENDBRANCH  11  12
BRANCH  11  18
HETATM   18  C   UNL     1     -12.469  14.240  71.072  1.00  0.00    -0.432 A  
HETATM   19  C   UNL     1     -14.304  15.361  72.203  1.00  0.00    -0.642 A  
HETATM   20  C   UNL     1     -13.838  14.518  71.191  1.00  0.00    -0.292 A  
HETATM   21  C   UNL     1     -12.046  15.704  72.977  1.00  0.00    -0.590 A  
HETATM   22  C   UNL     1     -13.411  15.946  73.100  1.00  0.00    -0.681 A  
HETATM   23  C   UNL     1     -11.577  14.860  71.969  1.00  0.00    -0.314 A  
ENDBRANCH  11  18
ENDBRANCH  10  11
ENDBRANCH   7  10
TORSDOF 4
ENDMDL
MODEL        9
REMARK 921   NORMALIZED FREE ENERGY PREDICTED BY IDOCK:   -6.87 KCAL/MOL
REMARK 922        TOTAL FREE ENERGY PREDICTED BY IDOCK:   -9.89 KCAL/MOL
REMARK 923 INTER-LIGAND FREE ENERGY PREDICTED BY IDOCK:   -8.76 KCAL/MOL
REMARK 924 INTRA-LIGAND FREE ENERGY PREDICTED BY IDOCK:   -1.13 KCAL/MOL
REMARK 927      BINDING AFFINITY PREDICTED BY RF-SCORE:    0.00 PKD
ROOT
HETATM    1  C   UNL     1     -10.867  13.027  65.843  1.00  0.00    -0.272 C  
HETATM    2  C   UNL     1      -9.455  12.991  66.436  1.00  0.00    -0.228 C  
HETATM    3  C   UNL     1      -9.070  14.461  66.600  1.00  0.00    -0.265 C  
HETATM    4  C   UNL     1     -10.291  15.232  66.088  1.00  0.00    -0.302 C  
HETATM    5  N   UNL     1     -10.826  14.291  65.103  1.00  0.00    -0.353 NA 
HETATM    6  C   UNL     1     -11.271  15.526  67.229  1.00  0.00    -0.226 C  
HETATM    7  C   UNL     1     -11.995  14.292  67.815  1.00  0.00    -0.349 C  
HETATM    8  C   UNL     1     -12.070  14.688  64.464  1.00  0.00    -0.475 C  
HETATM    9  C   UNL     1     -11.949  13.024  66.933  1.00  0.00    -0.415 C  
ENDROOT
BRANCH   7  10
HETATM   10  O   UNL     1     -11.533  13.918  69.122  1.00  0.00    -0.262 OA 
BRANCH  10  11
HETATM   11  C   UNL     1     -12.520  13.384  70.023  1.00  0.00    -0.137 C  
BRANCH  11  12
HETATM   12  C   UNL     1     -12.734  14.362  71.172  1.00  0.00    -0.422 A  
HETATM   13  C   UNL     1     -11.669  15.031  71.789  1.00  0.00    -0.452 A  
HETATM   14  C   UNL     1     -14.040  14.605  71.631  1.00  0.00    -0.571 A  
HETATM   15  C   UNL     1     -11.907  15.956  72.808  1.00  0.00    -0.583 A  
HETATM   16  C   UNL     1     -14.276  15.531  72.648  1.00  0.00    -0.397 A  
HETATM   17  C   UNL     1     -13.210  16.213  73.228  1.00  0.00    -0.559 A  
ENDBRANCH  11  12
BRANCH  11  18
HETATM   18  C   UNL     1     -12.235  11.970  70.510  1.00  0.00    -0.414 A  
HETATM   19  C   UNL     1     -12.731  10.058  71.926  1.00  0.00    -0.493 A  
HETATM   20  C   UNL     1     -12.962  11.385  71.557  1.00  0.00    -0.505 A  
HETATM   21  C   UNL     1     -11.012   9.877  70.242  1.00  0.00    -0.366 A  
HETATM   22  C   UNL     1     -11.764   9.302  71.264  1.00  0.00    -0.416 A  
HETATM   23  C   UNL     1     -11.244  11.202  69.869  1.00  0.00    -0.293 A  
ENDBRANCH  11  18
ENDBRANCH  10  11
ENDBRANCH   7  10
TORSDOF 4
ENDMDL
MODEL       10
REMARK 921   NORMALIZED FREE ENERGY PREDICTED BY IDOCK:   -6.85 KCAL/MOL
REMARK 922        TOTAL FREE ENERGY PREDICTED BY IDOCK:   -9.86 KCAL/MOL
REMARK 923 INTER-LIGAND FREE ENERGY PREDICTED BY IDOCK:   -8.19 KCAL/MOL
REMARK 924 INTRA-LIGAND FREE ENERGY PREDICTED BY IDOCK:   -1.68 KCAL/MOL
REMARK 927      BINDING AFFINITY PREDICTED BY RF-SCORE:    0.00 PKD
ROOT
HETATM    1  C   UNL     1     -10.406  12.819  64.650  1.00  0.00    -0.338 C  
HETATM    2  C   UNL     1      -9.817  14.197  64.967  1.00  0.00    -0.064 C  
HETATM    3  C   UNL     1     -11.033  15.115  65.087  1.00  0.00    -0.428 C  
HETATM    4  C   UNL     1     -12.230  14.195  64.828  1.00  0.00    -0.440 C  
HETATM    5  N   UNL     1     -11.632  13.196  63.941  1.00  0.00    -0.426 NA 
HETATM    6  C   UNL     1     -12.752  13.595  66.139  1.00  0.00    -0.295 C  
HETATM    7  C   UNL     1     -11.811  12.577  66.823  1.00  0.00    -0.346 C  
HETATM    8  C   UNL     1     -12.500  12.097  63.555  1.00  0.00    -0.555 C  
HETATM    9  C   UNL     1     -10.692  12.009  65.922  1.00  0.00    -0.314 C  
ENDROOT
BRANCH   7  10
HETATM   10  O   UNL     1     -11.184  13.081  68.013  1.00  0.00    -0.250 OA 
BRANCH  10  11
HETATM   11  C   UNL     1     -11.736  14.289  68.567  1.00  0.00    -0.341 C  
BRANCH  11  12
HETATM   12  C   UNL     1     -10.664  15.372  68.580  1.00  0.00    -0.246 A  
HETATM   13  C   UNL     1     -10.955  16.712  68.290  1.00  0.00    -0.341 A  
HETATM   14  C   UNL     1      -9.340  15.022  68.894  1.00  0.00    -0.208 A  
HETATM   15  C   UNL     1      -9.957  17.685  68.358  1.00  0.00    -0.356 A  
HETATM   16  C   UNL     1      -8.343  15.997  68.963  1.00  0.00    -0.243 A  
HETATM   17  C   UNL     1      -8.655  17.329  68.705  1.00  0.00    -0.265 A  
ENDBRANCH  11  12
BRANCH  11  18
HETATM   18  C   UNL     1     -12.404  14.118  69.925  1.00  0.00    -0.382 A  
HETATM   19  C   UNL     1     -12.922  12.801  71.900  1.00  0.00    -0.400 A  
HETATM   20  C   UNL     1     -12.370  12.901  70.621  1.00  0.00    -0.385 A  
HETATM   21  C   UNL     1     -13.595  15.115  71.806  1.00  0.00    -0.553 A  
HETATM   22  C   UNL     1     -13.526  13.908  72.495  1.00  0.00    -0.676 A  
HETATM   23  C   UNL     1     -13.040  15.220  70.529  1.00  0.00    -0.334 A  
ENDBRANCH  11  18
ENDBRANCH  10  11
ENDBRANCH   7  10
TORSDOF 4
ENDMDL
MODEL       11
REMARK 921   NORMALIZED FREE ENERGY PREDICTED BY IDOCK:   -6.84 KCAL/MOL
REMARK 922        TOTAL FREE ENERGY PREDICTED BY IDOCK:   -9.85 KCAL/MOL
REMARK 923 INTER-LIGAND FREE ENERGY PREDICTED BY IDOCK:   -8.52 KCAL/MOL
REMARK 924 INTRA-LIGAND FREE ENERGY PREDICTED BY IDOCK:   -1.33 KCAL/MOL
REMARK 927      BINDING AFFINITY PREDICTED BY RF-SCORE:    0.00 PKD
ROOT
HETATM    1  C   UNL     1      -9.890  13.876  65.659  1.00  0.00    -0.205 C  
HETATM    2  C   UNL     1      -9.935  15.396  65.473  1.00  0.00    -0.379 C  
HETATM    3  C   UNL     1     -11.269  15.657  64.773  1.00  0.00    -0.391 C  
HETATM    4  C   UNL     1     -11.889  14.266  64.609  1.00  0.00    -0.448 C  
HETATM    5  N   UNL     1     -10.691  13.431  64.516  1.00  0.00    -0.402 NA 
HETATM    6  C   UNL     1     -12.771  13.915  65.813  1.00  0.00    -0.503 C  
HETATM    7  C   UNL     1     -12.016  13.685  67.143  1.00  0.00    -0.393 C  
HETATM    8  C   UNL     1     -10.926  12.000  64.429  1.00  0.00    -0.333 C  
HETATM    9  C   UNL     1     -10.496  13.443  67.001  1.00  0.00    -0.257 C  
ENDROOT
BRANCH   7  10
HETATM   10  O   UNL     1     -12.191  14.745  68.096  1.00  0.00    -0.195 OA 
BRANCH  10  11
HETATM   11  C   UNL     1     -11.168  14.881  69.099  1.00  0.00    -0.279 C  
BRANCH  11  12
HETATM   12  C   UNL     1     -11.814  14.880  70.479  1.00  0.00    -0.358 A  
HETATM   13  C   UNL     1     -12.589  13.807  70.938  1.00  0.00    -0.428 A  
HETATM   14  C   UNL     1     -11.628  15.987  71.325  1.00  0.00    -0.506 A  
HETATM   15  C   UNL     1     -13.127  13.819  72.226  1.00  0.00    -0.500 A  
HETATM   16  C   UNL     1     -12.165  15.997  72.613  1.00  0.00    -0.619 A  
HETATM   17  C   UNL     1     -12.905  14.908  73.066  1.00  0.00    -0.586 A  
ENDBRANCH  11  12
BRANCH  11  18
HETATM   18  C   UNL     1     -10.234  16.066  68.897  1.00  0.00    -0.231 A  
HETATM   19  C   UNL     1      -8.012  17.049  68.832  1.00  0.00    -0.217 A  
HETATM   20  C   UNL     1      -8.851  15.965  69.104  1.00  0.00    -0.253 A  
HETATM   21  C   UNL     1      -9.918  18.376  68.180  1.00  0.00    -0.388 A  
HETATM   22  C   UNL     1      -8.544  18.250  68.362  1.00  0.00    -0.315 A  
HETATM   23  C   UNL     1     -10.758  17.294  68.448  1.00  0.00    -0.332 A  
ENDBRANCH  11  18
ENDBRANCH  10  11
ENDBRANCH   7  10
TORSDOF 4
ENDMDL
MODEL       12
REMARK 921   NORMALIZED FREE ENERGY PREDICTED BY IDOCK:   -6.83 KCAL/MOL
REMARK 922        TOTAL FREE ENERGY PREDICTED BY IDOCK:   -9.83 KCAL/MOL
REMARK 923 INTER-LIGAND FREE ENERGY PREDICTED BY IDOCK:   -8.54 KCAL/MOL
REMARK 924 INTRA-LIGAND FREE ENERGY PREDICTED BY IDOCK:   -1.29 KCAL/MOL
REMARK 927      BINDING AFFINITY PREDICTED BY RF-SCORE:    0.00 PKD
ROOT
HETATM    1  C   UNL     1     -10.711  12.566  65.844  1.00  0.00    -0.264 C  
HETATM    2  C   UNL     1      -9.317  12.681  66.468  1.00  0.00    -0.228 C  
HETATM    3  C   UNL     1      -9.084  14.185  66.610  1.00  0.00    -0.238 C  
HETATM    4  C   UNL     1     -10.363  14.821  66.056  1.00  0.00    -0.305 C  
HETATM    5  N   UNL     1     -10.779  13.814  65.079  1.00  0.00    -0.358 NA 
HETATM    6  C   UNL     1     -11.394  15.036  67.170  1.00  0.00    -0.323 C  
HETATM    7  C   UNL     1     -12.006  13.747  67.764  1.00  0.00    -0.356 C  
HETATM    8  C   UNL     1     -12.040  14.073  64.405  1.00  0.00    -0.458 C  
HETATM    9  C   UNL     1     -11.813  12.474  66.909  1.00  0.00    -0.404 C  
ENDROOT
BRANCH   7  10
HETATM   10  O   UNL     1     -11.540  13.445  69.089  1.00  0.00    -0.274 OA 
BRANCH  10  11
HETATM   11  C   UNL     1     -12.521  12.949  70.016  1.00  0.00    -0.015 C  
BRANCH  11  12
HETATM   12  C   UNL     1     -12.789  14.007  71.080  1.00  0.00    -0.410 A  
HETATM   13  C   UNL     1     -14.086  14.414  71.417  1.00  0.00    -0.378 A  
HETATM   14  C   UNL     1     -11.702  14.598  71.748  1.00  0.00    -0.221 A  
HETATM   15  C   UNL     1     -14.296  15.352  72.429  1.00  0.00    -0.489 A  
HETATM   16  C   UNL     1     -11.914  15.535  72.761  1.00  0.00    -0.573 A  
HETATM   17  C   UNL     1     -13.211  15.903  73.107  1.00  0.00    -0.692 A  
ENDBRANCH  11  12
BRANCH  11  18
HETATM   18  C   UNL     1     -12.194  11.590  70.620  1.00  0.00    -0.473 A  
HETATM   19  C   UNL     1     -12.733   9.705  72.056  1.00  0.00    -0.470 A  
HETATM   20  C   UNL     1     -13.018  10.988  71.581  1.00  0.00    -0.561 A  
HETATM   21  C   UNL     1     -10.772   9.609  70.654  1.00  0.00    -0.388 A  
HETATM   22  C   UNL     1     -11.617   9.013  71.586  1.00  0.00    -0.426 A  
HETATM   23  C   UNL     1     -11.057  10.889  70.176  1.00  0.00    -0.238 A  
ENDBRANCH  11  18
ENDBRANCH  10  11
ENDBRANCH   7  10
TORSDOF 4
ENDMDL
MODEL       13
REMARK 921   NORMALIZED FREE ENERGY PREDICTED BY IDOCK:   -6.53 KCAL/MOL
REMARK 922        TOTAL FREE ENERGY PREDICTED BY IDOCK:   -9.47 KCAL/MOL
REMARK 923 INTER-LIGAND FREE ENERGY PREDICTED BY IDOCK:   -8.30 KCAL/MOL
REMARK 924 INTRA-LIGAND FREE ENERGY PREDICTED BY IDOCK:   -1.17 KCAL/MOL
REMARK 927      BINDING AFFINITY PREDICTED BY RF-SCORE:    0.00 PKD
ROOT
HETATM    1  C   UNL     1     -10.425  14.278  65.621  1.00  0.00    -0.324 C  
HETATM    2  C   UNL     1      -9.039  14.068  66.237  1.00  0.00    -0.047 C  
HETATM    3  C   UNL     1      -8.578  15.472  66.630  1.00  0.00    -0.325 C  
HETATM    4  C   UNL     1      -9.735  16.383  66.209  1.00  0.00    -0.308 C  
HETATM    5  N   UNL     1     -10.289  15.632  65.081  1.00  0.00    -0.436 NA 
HETATM    6  C   UNL     1     -10.735  16.562  67.357  1.00  0.00    -0.260 C  
HETATM    7  C   UNL     1     -11.547  15.301  67.732  1.00  0.00    -0.265 C  
HETATM    8  C   UNL     1     -11.486  16.194  64.478  1.00  0.00    -0.230 C  
HETATM    9  C   UNL     1     -11.542  14.177  66.671  1.00  0.00    -0.399 C  
ENDROOT
BRANCH   7  10
HETATM   10  O   UNL     1     -11.151  14.710  68.979  1.00  0.00    -0.237 OA 
BRANCH  10  11
HETATM   11  C   UNL     1     -12.143  13.919  69.658  1.00  0.00    -0.349 C  
BRANCH  11  12
HETATM   12  C   UNL     1     -12.567  14.633  70.936  1.00  0.00    -0.410 A  
HETATM   13  C   UNL     1     -13.908  14.921  71.219  1.00  0.00    -0.500 A  
HETATM   14  C   UNL     1     -11.585  15.016  71.866  1.00  0.00    -0.426 A  
HETATM   15  C   UNL     1     -14.265  15.534  72.421  1.00  0.00    -0.571 A  
HETATM   16  C   UNL     1     -11.943  15.628  73.068  1.00  0.00    -0.590 A  
HETATM   17  C   UNL     1     -13.283  15.876  73.349  1.00  0.00    -0.668 A  
ENDBRANCH  11  12
BRANCH  11  18
HETATM   18  C   UNL     1     -11.739  12.473  69.909  1.00  0.00    -0.327 A  
HETATM   19  C   UNL     1     -10.358  10.529  69.443  1.00  0.00    -0.258 A  
HETATM   20  C   UNL     1     -10.763  11.830  69.135  1.00  0.00    -0.169 A  
HETATM   21  C   UNL     1     -11.922  10.462  71.277  1.00  0.00    -0.425 A  
HETATM   22  C   UNL     1     -10.930   9.849  70.518  1.00  0.00    -0.391 A  
HETATM   23  C   UNL     1     -12.326  11.763  70.975  1.00  0.00    -0.386 A  
ENDBRANCH  11  18
ENDBRANCH  10  11
ENDBRANCH   7  10
TORSDOF 4
ENDMDL
MODEL       14
REMARK 921   NORMALIZED FREE ENERGY PREDICTED BY IDOCK:   -6.51 KCAL/MOL
REMARK 922        TOTAL FREE ENERGY PREDICTED BY IDOCK:   -9.44 KCAL/MOL
REMARK 923 INTER-LIGAND FREE ENERGY PREDICTED BY IDOCK:   -8.13 KCAL/MOL
REMARK 924 INTRA-LIGAND FREE ENERGY PREDICTED BY IDOCK:   -1.31 KCAL/MOL
REMARK 927      BINDING AFFINITY PREDICTED BY RF-SCORE:    0.00 PKD
ROOT
HETATM    1  C   UNL     1     -11.759  12.221  65.765  1.00  0.00    -0.385 C  
HETATM    2  C   UNL     1     -11.523  11.748  67.203  1.00  0.00    -0.366 C  
HETATM    3  C   UNL     1     -10.075  12.137  67.501  1.00  0.00    -0.204 C  
HETATM    4  C   UNL     1      -9.588  12.803  66.211  1.00  0.00    -0.242 C  
HETATM    5  N   UNL     1     -10.406  12.116  65.211  1.00  0.00    -0.270 NA 
HETATM    6  C   UNL     1      -9.835  14.316  66.249  1.00  0.00    -0.323 C  
HETATM    7  C   UNL     1     -11.318  14.746  66.196  1.00  0.00    -0.330 C  
HETATM    8  C   UNL     1     -10.248  12.577  63.842  1.00  0.00    -0.360 C  
HETATM    9  C   UNL     1     -12.301  13.656  65.713  1.00  0.00    -0.524 C  
ENDROOT
BRANCH   7  10
HETATM   10  O   UNL     1     -11.819  15.248  67.445  1.00  0.00    -0.215 OA 
BRANCH  10  11
HETATM   11  C   UNL     1     -10.845  15.491  68.476  1.00  0.00    -0.272 C  
BRANCH  11  12
HETATM   12  C   UNL     1     -11.478  15.232  69.838  1.00  0.00    -0.325 A  
HETATM   13  C   UNL     1     -12.207  14.068  70.112  1.00  0.00    -0.425 A  
HETATM   14  C   UNL     1     -11.329  16.189  70.856  1.00  0.00    -0.394 A  
HETATM   15  C   UNL     1     -12.733  13.843  71.385  1.00  0.00    -0.445 A  
HETATM   16  C   UNL     1     -11.854  15.962  72.129  1.00  0.00    -0.615 A  
HETATM   17  C   UNL     1     -12.547  14.784  72.395  1.00  0.00    -0.421 A  
ENDBRANCH  11  12
BRANCH  11  18
HETATM   18  C   UNL     1     -10.167  16.851  68.400  1.00  0.00    -0.322 A  
HETATM   19  C   UNL     1      -8.198  18.268  68.546  1.00  0.00    -0.329 A  
HETATM   20  C   UNL     1      -8.808  17.022  68.702  1.00  0.00    -0.267 A  
HETATM   21  C   UNL     1     -10.294  19.218  67.821  1.00  0.00    -0.531 A  
HETATM   22  C   UNL     1      -8.937  19.362  68.097  1.00  0.00    -0.375 A  
HETATM   23  C   UNL     1     -10.905  17.972  67.973  1.00  0.00    -0.194 A  
ENDBRANCH  11  18
ENDBRANCH  10  11
ENDBRANCH   7  10
TORSDOF 4
ENDMDL
MODEL       15
REMARK 921   NORMALIZED FREE ENERGY PREDICTED BY IDOCK:   -6.51 KCAL/MOL
REMARK 922        TOTAL FREE ENERGY PREDICTED BY IDOCK:   -9.44 KCAL/MOL
REMARK 923 INTER-LIGAND FREE ENERGY PREDICTED BY IDOCK:   -8.30 KCAL/MOL
REMARK 924 INTRA-LIGAND FREE ENERGY PREDICTED BY IDOCK:   -1.13 KCAL/MOL
REMARK 927      BINDING AFFINITY PREDICTED BY RF-SCORE:    0.00 PKD
ROOT
HETATM    1  C   UNL     1      -9.048  18.014  66.258  1.00  0.00    -0.178 C  
HETATM    2  C   UNL     1      -7.797  17.262  66.720  1.00  0.00    -0.278 C  
HETATM    3  C   UNL     1      -7.828  17.366  68.245  1.00  0.00    -0.247 C  
HETATM    4  C   UNL     1      -9.096  18.173  68.544  1.00  0.00    -0.306 C  
HETATM    5  N   UNL     1      -9.199  18.994  67.337  1.00  0.00    -0.287 NA 
HETATM    6  C   UNL     1     -10.300  17.245  68.742  1.00  0.00    -0.358 C  
HETATM    7  C   UNL     1     -10.781  16.505  67.473  1.00  0.00    -0.283 C  
HETATM    8  C   UNL     1     -10.373  19.848  67.255  1.00  0.00    -0.437 C  
HETATM    9  C   UNL     1     -10.266  17.087  66.138  1.00  0.00    -0.346 C  
ENDROOT
BRANCH   7  10
HETATM   10  O   UNL     1     -10.473  15.102  67.473  1.00  0.00    -0.251 OA 
BRANCH  10  11
HETATM   11  C   UNL     1     -11.558  14.206  67.171  1.00  0.00    -0.377 C  
BRANCH  11  12
HETATM   12  C   UNL     1     -11.757  13.246  68.338  1.00  0.00    -0.389 A  
HETATM   13  C   UNL     1     -11.586  11.863  68.203  1.00  0.00    -0.400 A  
HETATM   14  C   UNL     1     -12.125  13.761  69.594  1.00  0.00    -0.392 A  
HETATM   15  C   UNL     1     -11.731  11.019  69.305  1.00  0.00    -0.397 A  
HETATM   16  C   UNL     1     -12.268  12.915  70.695  1.00  0.00    -0.386 A  
HETATM   17  C   UNL     1     -12.061  11.546  70.551  1.00  0.00    -0.472 A  
ENDBRANCH  11  12
BRANCH  11  18
HETATM   18  C   UNL     1     -11.431  13.481  65.839  1.00  0.00    -0.338 A  
HETATM   19  C   UNL     1     -10.099  12.474  64.073  1.00  0.00    -0.316 A  
HETATM   20  C   UNL     1     -10.184  13.213  65.256  1.00  0.00    -0.299 A  
HETATM   21  C   UNL     1     -12.503  12.286  64.002  1.00  0.00    -0.556 A  
HETATM   22  C   UNL     1     -11.256  12.004  63.452  1.00  0.00    -0.481 A  
HETATM   23  C   UNL     1     -12.591  13.021  65.186  1.00  0.00    -0.530 A  
ENDBRANCH  11  18
ENDBRANCH  10  11
ENDBRANCH   7  10
TORSDOF 4
ENDMDL
MODEL       16
REMARK 921   NORMALIZED FREE ENERGY PREDICTED BY IDOCK:   -6.50 KCAL/MOL
REMARK 922        TOTAL FREE ENERGY PREDICTED BY IDOCK:   -9.43 KCAL/MOL
REMARK 923 INTER-LIGAND FREE ENERGY PREDICTED BY IDOCK:   -8.20 KCAL/MOL
REMARK 924 INTRA-LIGAND FREE ENERGY PREDICTED BY IDOCK:   -1.22 KCAL/MOL
REMARK 927      BINDING AFFINITY PREDICTED BY RF-SCORE:    0.00 PKD
ROOT
HETATM    1  C   UNL     1     -10.064  19.360  68.380  1.00  0.00    -0.444 C  
HETATM    2  C   UNL     1     -11.019  19.563  67.200  1.00  0.00    -0.459 C  
HETATM    3  C   UNL     1     -10.174  19.247  65.965  1.00  0.00    -0.512 C  
HETATM    4  C   UNL     1      -8.796  18.887  66.531  1.00  0.00    -0.323 C  
HETATM    5  N   UNL     1      -8.778  19.684  67.759  1.00  0.00    -0.316 NA 
HETATM    6  C   UNL     1      -8.689  17.381  66.793  1.00  0.00    -0.278 C  
HETATM    7  C   UNL     1      -9.569  16.845  67.946  1.00  0.00    -0.244 C  
HETATM    8  C   UNL     1      -7.608  19.512  68.604  1.00  0.00    -0.354 C  
HETATM    9  C   UNL     1     -10.109  17.921  68.915  1.00  0.00    -0.349 C  
ENDROOT
BRANCH   7  10
HETATM   10  O   UNL     1     -10.694  16.070  67.501  1.00  0.00    -0.312 OA 
BRANCH  10  11
HETATM   11  C   UNL     1     -10.552  14.640  67.561  1.00  0.00    -0.257 C  
BRANCH  11  12
HETATM   12  C   UNL     1     -11.007  14.034  66.239  1.00  0.00    -0.300 A  
HETATM   13  C   UNL     1     -12.319  14.173  65.767  1.00  0.00    -0.481 A  
HETATM   14  C   UNL     1     -10.085  13.311  65.462  1.00  0.00    -0.274 A  
HETATM   15  C   UNL     1     -12.688  13.644  64.530  1.00  0.00    -0.143 A  
HETATM   16  C   UNL     1     -10.455  12.784  64.224  1.00  0.00    -0.423 A  
HETATM   17  C   UNL     1     -11.754  12.961  63.754  1.00  0.00    -0.557 A  
ENDBRANCH  11  12
BRANCH  11  18
HETATM   18  C   UNL     1     -11.222  13.985  68.761  1.00  0.00    -0.298 A  
HETATM   19  C   UNL     1     -12.553  14.099  70.791  1.00  0.00    -0.432 A  
HETATM   20  C   UNL     1     -11.878  14.736  69.746  1.00  0.00    -0.362 A  
HETATM   21  C   UNL     1     -11.900  11.947  69.918  1.00  0.00    -0.418 A  
HETATM   22  C   UNL     1     -12.571  12.707  70.872  1.00  0.00    -0.338 A  
HETATM   23  C   UNL     1     -11.228  12.581  68.871  1.00  0.00    -0.330 A  
ENDBRANCH  11  18
ENDBRANCH  10  11
ENDBRANCH   7  10
TORSDOF 4
ENDMDL
MODEL       17
REMARK 921   NORMALIZED FREE ENERGY PREDICTED BY IDOCK:   -6.39 KCAL/MOL
REMARK 922        TOTAL FREE ENERGY PREDICTED BY IDOCK:   -9.29 KCAL/MOL
REMARK 923 INTER-LIGAND FREE ENERGY PREDICTED BY IDOCK:   -8.12 KCAL/MOL
REMARK 924 INTRA-LIGAND FREE ENERGY PREDICTED BY IDOCK:   -1.18 KCAL/MOL
REMARK 927      BINDING AFFINITY PREDICTED BY RF-SCORE:    0.00 PKD
ROOT
HETATM    1  C   UNL     1     -12.159  12.291  65.589  1.00  0.00    -0.234 C  
HETATM    2  C   UNL     1     -11.074  11.455  66.275  1.00  0.00    -0.281 C  
HETATM    3  C   UNL     1      -9.775  11.875  65.589  1.00  0.00    -0.248 C  
HETATM    4  C   UNL     1     -10.212  12.922  64.558  1.00  0.00    -0.310 C  
HETATM    5  N   UNL     1     -11.572  12.473  64.259  1.00  0.00    -0.345 NA 
HETATM    6  C   UNL     1     -10.165  14.332  65.158  1.00  0.00    -0.414 C  
HETATM    7  C   UNL     1     -11.216  14.621  66.254  1.00  0.00    -0.340 C  
HETATM    8  C   UNL     1     -12.327  13.315  63.347  1.00  0.00    -0.324 C  
HETATM    9  C   UNL     1     -12.397  13.626  66.310  1.00  0.00    -0.464 C  
ENDROOT
BRANCH   7  10
HETATM   10  O   UNL     1     -10.663  14.700  67.577  1.00  0.00    -0.261 OA 
BRANCH  10  11
HETATM   11  C   UNL     1     -11.128  15.782  68.404  1.00  0.00    -0.341 C  
BRANCH  11  12
HETATM   12  C   UNL     1     -10.066  16.874  68.447  1.00  0.00    -0.304 A  
HETATM   13  C   UNL     1     -10.356  18.209  68.140  1.00  0.00    -0.393 A  
HETATM   14  C   UNL     1      -8.750  16.536  68.809  1.00  0.00    -0.259 A  
HETATM   15  C   UNL     1      -9.369  19.191  68.236  1.00  0.00    -0.397 A  
HETATM   16  C   UNL     1      -7.764  17.519  68.906  1.00  0.00    -0.207 A  
HETATM   17  C   UNL     1      -8.077  18.847  68.630  1.00  0.00    -0.382 A  
ENDBRANCH  11  12
BRANCH  11  18
HETATM   18  C   UNL     1     -11.590  15.367  69.793  1.00  0.00    -0.339 A  
HETATM   19  C   UNL     1     -11.963  15.832  72.149  1.00  0.00    -0.580 A  
HETATM   20  C   UNL     1     -11.455  16.211  70.904  1.00  0.00    -0.421 A  
HETATM   21  C   UNL     1     -12.718  13.739  71.218  1.00  0.00    -0.450 A  
HETATM   22  C   UNL     1     -12.601  14.602  72.304  1.00  0.00    -0.401 A  
HETATM   23  C   UNL     1     -12.214  14.116  69.972  1.00  0.00    -0.418 A  
ENDBRANCH  11  18
ENDBRANCH  10  11
ENDBRANCH   7  10
TORSDOF 4
ENDMDL
MODEL       18
REMARK 921   NORMALIZED FREE ENERGY PREDICTED BY IDOCK:   -6.38 KCAL/MOL
REMARK 922        TOTAL FREE ENERGY PREDICTED BY IDOCK:   -9.28 KCAL/MOL
REMARK 923 INTER-LIGAND FREE ENERGY PREDICTED BY IDOCK:   -8.23 KCAL/MOL
REMARK 924 INTRA-LIGAND FREE ENERGY PREDICTED BY IDOCK:   -1.05 KCAL/MOL
REMARK 927      BINDING AFFINITY PREDICTED BY RF-SCORE:    0.00 PKD
ROOT
HETATM    1  C   UNL     1     -10.109  13.463  64.985  1.00  0.00    -0.239 C  
HETATM    2  C   UNL     1      -9.557  14.639  65.796  1.00  0.00    -0.266 C  
HETATM    3  C   UNL     1     -10.793  15.448  66.188  1.00  0.00    -0.313 C  
HETATM    4  C   UNL     1     -11.964  14.675  65.571  1.00  0.00    -0.256 C  
HETATM    5  N   UNL     1     -11.317  14.062  64.410  1.00  0.00    -0.351 NA 
HETATM    6  C   UNL     1     -12.520  13.645  66.560  1.00  0.00    -0.337 C  
HETATM    7  C   UNL     1     -11.585  12.454  66.873  1.00  0.00    -0.370 C  
HETATM    8  C   UNL     1     -12.150  13.169  63.623  1.00  0.00    -0.513 C  
HETATM    9  C   UNL     1     -10.425  12.250  65.872  1.00  0.00    -0.288 C  
ENDROOT
BRANCH   7  10
HETATM   10  O   UNL     1     -11.009  12.503  68.188  1.00  0.00    -0.208 OA 
BRANCH  10  11
HETATM   11  C   UNL     1     -11.923  12.386  69.293  1.00  0.00    -0.253 C  
BRANCH  11  12
HETATM   12  C   UNL     1     -11.865  13.659  70.130  1.00  0.00    -0.351 A  
HETATM   13  C   UNL     1     -11.067  14.752  69.770  1.00  0.00    -0.288 A  
HETATM   14  C   UNL     1     -12.635  13.744  71.303  1.00  0.00    -0.444 A  
HETATM   15  C   UNL     1     -11.075  15.919  70.535  1.00  0.00    -0.381 A  
HETATM   16  C   UNL     1     -12.643  14.912  72.066  1.00  0.00    -0.398 A  
HETATM   17  C   UNL     1     -11.871  16.003  71.676  1.00  0.00    -0.582 A  
ENDBRANCH  11  12
BRANCH  11  18
HETATM   18  C   UNL     1     -11.745  11.130  70.134  1.00  0.00    -0.439 A  
HETATM   19  C   UNL     1     -12.598   9.443  71.661  1.00  0.00    -0.460 A  
HETATM   20  C   UNL     1     -12.764  10.642  70.965  1.00  0.00    -0.512 A  
HETATM   21  C   UNL     1     -10.377   9.207  70.751  1.00  0.00    -0.323 A  
HETATM   22  C   UNL     1     -11.410   8.722  71.547  1.00  0.00    -0.375 A  
HETATM   23  C   UNL     1     -10.541  10.404  70.051  1.00  0.00    -0.282 A  
ENDBRANCH  11  18
ENDBRANCH  10  11
ENDBRANCH   7  10
TORSDOF 4
ENDMDL
MODEL       19
REMARK 921   NORMALIZED FREE ENERGY PREDICTED BY IDOCK:   -6.38 KCAL/MOL
REMARK 922        TOTAL FREE ENERGY PREDICTED BY IDOCK:   -9.28 KCAL/MOL
REMARK 923 INTER-LIGAND FREE ENERGY PREDICTED BY IDOCK:   -8.30 KCAL/MOL
REMARK 924 INTRA-LIGAND FREE ENERGY PREDICTED BY IDOCK:   -0.98 KCAL/MOL
REMARK 927      BINDING AFFINITY PREDICTED BY RF-SCORE:    0.00 PKD
ROOT
HETATM    1  C   UNL     1      -8.998  12.422  67.866  1.00  0.00    -0.184 C  
HETATM    2  C   UNL     1      -9.711  13.776  67.941  1.00  0.00    -0.229 C  
HETATM    3  C   UNL     1     -10.571  13.826  66.678  1.00  0.00    -0.274 C  
HETATM    4  C   UNL     1     -10.286  12.496  65.972  1.00  0.00    -0.251 C  
HETATM    5  N   UNL     1      -8.918  12.228  66.416  1.00  0.00    -0.164 NA 
HETATM    6  C   UNL     1     -11.282  11.418  66.415  1.00  0.00    -0.250 C  
HETATM    7  C   UNL     1     -11.139  10.947  67.880  1.00  0.00    -0.302 C  
HETATM    8  C   UNL     1      -8.350  10.963  65.980  1.00  0.00    -0.165 C  
HETATM    9  C   UNL     1      -9.800  11.312  68.560  1.00  0.00    -0.198 C  
ENDROOT
BRANCH   7  10
HETATM   10  O   UNL     1     -12.193  11.410  68.740  1.00  0.00    -0.502 OA 
BRANCH  10  11
HETATM   11  C   UNL     1     -11.853  11.601  70.125  1.00  0.00    -0.344 C  
BRANCH  11  12
HETATM   12  C   UNL     1     -12.208  10.342  70.908  1.00  0.00    -0.484 A  
HETATM   13  C   UNL     1     -13.534   9.930  71.095  1.00  0.00    -0.308 A  
HETATM   14  C   UNL     1     -11.176   9.565  71.461  1.00  0.00    -0.437 A  
HETATM   15  C   UNL     1     -13.820   8.746  71.777  1.00  0.00    -0.469 A  
HETATM   16  C   UNL     1     -11.463   8.380  72.141  1.00  0.00    -0.442 A  
HETATM   17  C   UNL     1     -12.784   7.967  72.290  1.00  0.00    -0.242 A  
ENDBRANCH  11  12
BRANCH  11  18
HETATM   18  C   UNL     1     -12.436  12.858  70.755  1.00  0.00    -0.370 A  
HETATM   19  C   UNL     1     -12.923  15.239  70.715  1.00  0.00    -0.492 A  
HETATM   20  C   UNL     1     -12.308  14.118  70.152  1.00  0.00    -0.413 A  
HETATM   21  C   UNL     1     -13.776  13.882  72.518  1.00  0.00    -0.665 A  
HETATM   22  C   UNL     1     -13.664  15.119  71.891  1.00  0.00    -0.577 A  
HETATM   23  C   UNL     1     -13.164  12.759  71.956  1.00  0.00    -0.538 A  
ENDBRANCH  11  18
ENDBRANCH  10  11
ENDBRANCH   7  10
TORSDOF 4
ENDMDL
MODEL       20
REMARK 921   NORMALIZED FREE ENERGY PREDICTED BY IDOCK:   -6.15 KCAL/MOL
REMARK 922        TOTAL FREE ENERGY PREDICTED BY IDOCK:   -8.99 KCAL/MOL
REMARK 923 INTER-LIGAND FREE ENERGY PREDICTED BY IDOCK:   -7.70 KCAL/MOL
REMARK 924 INTRA-LIGAND FREE ENERGY PREDICTED BY IDOCK:   -1.29 KCAL/MOL
REMARK 927      BINDING AFFINITY PREDICTED BY RF-SCORE:    0.00 PKD
ROOT
HETATM    1  C   UNL     1      -7.352  18.183  67.454  1.00  0.00    -0.210 C  
HETATM    2  C   UNL     1      -8.071  18.108  68.804  1.00  0.00    -0.251 C  
HETATM    3  C   UNL     1      -9.470  18.656  68.525  1.00  0.00    -0.386 C  
HETATM    4  C   UNL     1      -9.449  19.007  67.033  1.00  0.00    -0.317 C  
HETATM    5  N   UNL     1      -8.034  19.325  66.838  1.00  0.00    -0.253 NA 
HETATM    6  C   UNL     1      -9.919  17.818  66.186  1.00  0.00    -0.283 C  
HETATM    7  C   UNL     1      -8.962  16.604  66.160  1.00  0.00    -0.286 C  
HETATM    8  C   UNL     1      -7.641  19.633  65.473  1.00  0.00    -0.050 C  
HETATM    9  C   UNL     1      -7.522  16.893  66.639  1.00  0.00    -0.303 C  
ENDROOT
BRANCH   7  10
HETATM   10  O   UNL     1      -9.442  15.476  66.909  1.00  0.00    -0.214 OA 
BRANCH  10  11
HETATM   11  C   UNL     1     -10.843  15.172  66.785  1.00  0.00    -0.322 C  
BRANCH  11  12
HETATM   12  C   UNL     1     -11.407  14.828  68.158  1.00  0.00    -0.324 A  
HETATM   13  C   UNL     1     -11.442  13.514  68.642  1.00  0.00    -0.343 A  
HETATM   14  C   UNL     1     -11.908  15.859  68.971  1.00  0.00    -0.328 A  
HETATM   15  C   UNL     1     -11.923  13.242  69.923  1.00  0.00    -0.400 A  
HETATM   16  C   UNL     1     -12.386  15.586  70.254  1.00  0.00    -0.431 A  
HETATM   17  C   UNL     1     -12.383  14.278  70.732  1.00  0.00    -0.427 A  
ENDBRANCH  11  12
BRANCH  11  18
HETATM   18  C   UNL     1     -11.172  14.114  65.741  1.00  0.00    -0.312 A  
HETATM   19  C   UNL     1     -12.765  12.795  64.465  1.00  0.00    -0.405 A  
HETATM   20  C   UNL     1     -12.489  13.709  65.485  1.00  0.00    -0.544 A  
HETATM   21  C   UNL     1     -10.412  12.634  63.957  1.00  0.00    -0.443 A  
HETATM   22  C   UNL     1     -11.729  12.265  63.696  1.00  0.00    -0.591 A  
HETATM   23  C   UNL     1     -10.135  13.550  64.973  1.00  0.00    -0.280 A  
ENDBRANCH  11  18
ENDBRANCH  10  11
ENDBRANCH   7  10
TORSDOF 4
ENDMDL
MODEL       21
REMARK 921   NORMALIZED FREE ENERGY PREDICTED BY IDOCK:   -6.07 KCAL/MOL
REMARK 922        TOTAL FREE ENERGY PREDICTED BY IDOCK:   -8.90 KCAL/MOL
REMARK 923 INTER-LIGAND FREE ENERGY PREDICTED BY IDOCK:   -7.70 KCAL/MOL
REMARK 924 INTRA-LIGAND FREE ENERGY PREDICTED BY IDOCK:   -1.20 KCAL/MOL
REMARK 927      BINDING AFFINITY PREDICTED BY RF-SCORE:    0.00 PKD
ROOT
HETATM    1  C   UNL     1     -12.535  13.630  64.280  1.00  0.00    -0.248 C  
HETATM    2  C   UNL     1     -12.074  12.242  63.827  1.00  0.00    -0.624 C  
HETATM    3  C   UNL     1     -10.559  12.256  64.029  1.00  0.00    -0.434 C  
HETATM    4  C   UNL     1     -10.263  13.653  64.584  1.00  0.00    -0.311 C  
HETATM    5  N   UNL     1     -11.345  14.431  63.979  1.00  0.00     0.015 NA 
HETATM    6  C   UNL     1     -10.309  13.654  66.116  1.00  0.00    -0.297 C  
HETATM    7  C   UNL     1     -11.708  13.441  66.737  1.00  0.00    -0.385 C  
HETATM    8  C   UNL     1     -11.411  15.829  64.371  1.00  0.00    -0.265 C  
HETATM    9  C   UNL     1     -12.895  13.658  65.772  1.00  0.00    -0.390 C  
ENDROOT
BRANCH   7  10
HETATM   10  O   UNL     1     -11.881  12.149  67.340  1.00  0.00    -0.515 OA 
BRANCH  10  11
HETATM   11  C   UNL     1     -11.148  11.904  68.554  1.00  0.00    -0.243 C  
BRANCH  11  12
HETATM   12  C   UNL     1     -10.464  10.545  68.463  1.00  0.00    -0.210 A  
HETATM   13  C   UNL     1      -9.440  10.165  69.340  1.00  0.00    -0.240 A  
HETATM   14  C   UNL     1     -10.872   9.637  67.470  1.00  0.00    -0.265 A  
HETATM   15  C   UNL     1      -8.869   8.895  69.257  1.00  0.00    -0.139 A  
HETATM   16  C   UNL     1     -10.301   8.366  67.390  1.00  0.00    -0.355 A  
HETATM   17  C   UNL     1      -9.307   7.992  68.291  1.00  0.00    -0.143 A  
ENDBRANCH  11  12
BRANCH  11  18
HETATM   18  C   UNL     1     -11.963  12.059  69.830  1.00  0.00    -0.391 A  
HETATM   19  C   UNL     1     -13.135  11.125  71.743  1.00  0.00    -0.536 A  
HETATM   20  C   UNL     1     -12.460  10.952  70.533  1.00  0.00    -0.438 A  
HETATM   21  C   UNL     1     -12.870  13.516  71.563  1.00  0.00    -0.440 A  
HETATM   22  C   UNL     1     -13.332  12.405  72.262  1.00  0.00    -0.427 A  
HETATM   23  C   UNL     1     -12.193  13.346  70.355  1.00  0.00    -0.415 A  
ENDBRANCH  11  18
ENDBRANCH  10  11
ENDBRANCH   7  10
TORSDOF 4
ENDMDL
MODEL       22
REMARK 921   NORMALIZED FREE ENERGY PREDICTED BY IDOCK:   -6.05 KCAL/MOL
REMARK 922        TOTAL FREE ENERGY PREDICTED BY IDOCK:   -8.88 KCAL/MOL
REMARK 923 INTER-LIGAND FREE ENERGY PREDICTED BY IDOCK:   -7.30 KCAL/MOL
REMARK 924 INTRA-LIGAND FREE ENERGY PREDICTED BY IDOCK:   -1.58 KCAL/MOL
REMARK 927      BINDING AFFINITY PREDICTED BY RF-SCORE:    0.00 PKD
ROOT
HETATM    1  C   UNL     1      -9.281  12.579  66.651  1.00  0.00    -0.223 C  
HETATM    2  C   UNL     1      -9.253  13.880  65.842  1.00  0.00     0.145 C  
HETATM    3  C   UNL     1     -10.478  13.792  64.933  1.00  0.00    -0.437 C  
HETATM    4  C   UNL     1     -11.118  12.446  65.288  1.00  0.00    -0.303 C  
HETATM    5  N   UNL     1      -9.945  11.678  65.707  1.00  0.00    -0.229 NA 
HETATM    6  C   UNL     1     -12.156  12.612  66.404  1.00  0.00    -0.330 C  
HETATM    7  C   UNL     1     -11.583  12.978  67.792  1.00  0.00    -0.340 C  
HETATM    8  C   UNL     1     -10.214  10.337  66.198  1.00  0.00    -0.217 C  
HETATM    9  C   UNL     1     -10.066  12.734  67.961  1.00  0.00    -0.230 C  
ENDROOT
BRANCH   7  10
HETATM   10  O   UNL     1     -11.842  14.335  68.183  1.00  0.00    -0.327 OA 
BRANCH  10  11
HETATM   11  C   UNL     1     -11.011  14.872  69.228  1.00  0.00    -0.270 C  
BRANCH  11  12
HETATM   12  C   UNL     1     -11.856  15.095  70.477  1.00  0.00    -0.361 A  
HETATM   13  C   UNL     1     -11.289  15.467  71.704  1.00  0.00    -0.455 A  
HETATM   14  C   UNL     1     -13.249  14.924  70.403  1.00  0.00    -0.124 A  
HETATM   15  C   UNL     1     -12.098  15.708  72.815  1.00  0.00    -0.572 A  
HETATM   16  C   UNL     1     -14.057  15.167  71.514  1.00  0.00    -0.636 A  
HETATM   17  C   UNL     1     -13.481  15.569  72.717  1.00  0.00    -0.650 A  
ENDBRANCH  11  12
BRANCH  11  18
HETATM   18  C   UNL     1     -10.218  16.110  68.837  1.00  0.00    -0.245 A  
HETATM   19  C   UNL     1     -10.091  18.440  68.156  1.00  0.00    -0.408 A  
HETATM   20  C   UNL     1     -10.845  17.296  68.431  1.00  0.00    -0.273 A  
HETATM   21  C   UNL     1      -8.060  17.232  68.644  1.00  0.00    -0.261 A  
HETATM   22  C   UNL     1      -8.701  18.410  68.271  1.00  0.00    -0.321 A  
HETATM   23  C   UNL     1      -8.812  16.089  68.923  1.00  0.00    -0.233 A  
ENDBRANCH  11  18
ENDBRANCH  10  11
ENDBRANCH   7  10
TORSDOF 4
ENDMDL
MODEL       23
REMARK 921   NORMALIZED FREE ENERGY PREDICTED BY IDOCK:   -6.05 KCAL/MOL
REMARK 922        TOTAL FREE ENERGY PREDICTED BY IDOCK:   -8.88 KCAL/MOL
REMARK 923 INTER-LIGAND FREE ENERGY PREDICTED BY IDOCK:   -7.87 KCAL/MOL
REMARK 924 INTRA-LIGAND FREE ENERGY PREDICTED BY IDOCK:   -1.01 KCAL/MOL
REMARK 927      BINDING AFFINITY PREDICTED BY RF-SCORE:    0.00 PKD
ROOT
HETATM    1  C   UNL     1     -11.592  11.764  66.128  1.00  0.00    -0.142 C  
HETATM    2  C   UNL     1     -11.035  10.939  67.292  1.00  0.00    -0.355 C  
HETATM    3  C   UNL     1      -9.534  11.230  67.284  1.00  0.00    -0.184 C  
HETATM    4  C   UNL     1      -9.343  12.201  66.114  1.00  0.00    -0.195 C  
HETATM    5  N   UNL     1     -10.436  11.796  65.229  1.00  0.00    -0.263 NA 
HETATM    6  C   UNL     1      -9.462  13.655  66.586  1.00  0.00    -0.285 C  
HETATM    7  C   UNL     1     -10.875  14.094  67.032  1.00  0.00    -0.295 C  
HETATM    8  C   UNL     1     -10.597  12.590  64.023  1.00  0.00    -0.421 C  
HETATM    9  C   UNL     1     -12.025  13.168  66.574  1.00  0.00    -0.459 C  
ENDROOT
BRANCH   7  10
HETATM   10  O   UNL     1     -11.005  14.262  68.452  1.00  0.00    -0.239 OA 
BRANCH  10  11
HETATM   11  C   UNL     1     -11.484  15.541  68.906  1.00  0.00    -0.354 C  
BRANCH  11  12
HETATM   12  C   UNL     1     -10.397  16.588  68.696  1.00  0.00    -0.287 A  
HETATM   13  C   UNL     1      -9.050  16.333  68.986  1.00  0.00    -0.255 A  
HETATM   14  C   UNL     1     -10.750  17.853  68.196  1.00  0.00    -0.287 A  
HETATM   15  C   UNL     1      -8.075  17.300  68.738  1.00  0.00    -0.242 A  
HETATM   16  C   UNL     1      -9.774  18.818  67.946  1.00  0.00    -0.368 A  
HETATM   17  C   UNL     1      -8.436  18.537  68.208  1.00  0.00    -0.341 A  
ENDBRANCH  11  12
BRANCH  11  18
HETATM   18  C   UNL     1     -12.030  15.548  70.327  1.00  0.00    -0.401 A  
HETATM   19  C   UNL     1     -11.913  16.227  72.657  1.00  0.00    -0.644 A  
HETATM   20  C   UNL     1     -11.346  16.169  71.381  1.00  0.00    -0.325 A  
HETATM   21  C   UNL     1     -13.841  15.010  71.869  1.00  0.00    -0.575 A  
HETATM   22  C   UNL     1     -13.163  15.657  72.898  1.00  0.00    -0.630 A  
HETATM   23  C   UNL     1     -13.279  14.954  70.593  1.00  0.00    -0.319 A  
ENDBRANCH  11  18
ENDBRANCH  10  11
ENDBRANCH   7  10
TORSDOF 4
ENDMDL
MODEL       24
REMARK 921   NORMALIZED FREE ENERGY PREDICTED BY IDOCK:   -6.04 KCAL/MOL
REMARK 922        TOTAL FREE ENERGY PREDICTED BY IDOCK:   -8.86 KCAL/MOL
REMARK 923 INTER-LIGAND FREE ENERGY PREDICTED BY IDOCK:   -7.77 KCAL/MOL
REMARK 924 INTRA-LIGAND FREE ENERGY PREDICTED BY IDOCK:   -1.09 KCAL/MOL
REMARK 927      BINDING AFFINITY PREDICTED BY RF-SCORE:    0.00 PKD
ROOT
HETATM    1  C   UNL     1     -12.572  13.949  65.298  1.00  0.00    -0.478 C  
HETATM    2  C   UNL     1     -12.831  12.641  64.546  1.00  0.00    -0.356 C  
HETATM    3  C   UNL     1     -11.441  12.148  64.144  1.00  0.00    -0.460 C  
HETATM    4  C   UNL     1     -10.487  13.213  64.696  1.00  0.00    -0.392 C  
HETATM    5  N   UNL     1     -11.337  14.403  64.652  1.00  0.00    -0.381 NA 
HETATM    6  C   UNL     1     -10.030  12.855  66.115  1.00  0.00    -0.274 C  
HETATM    7  C   UNL     1     -11.126  12.928  67.202  1.00  0.00    -0.275 C  
HETATM    8  C   UNL     1     -10.750  15.616  65.196  1.00  0.00    -0.443 C  
HETATM    9  C   UNL     1     -12.392  13.720  66.805  1.00  0.00    -0.365 C  
ENDROOT
BRANCH   7  10
HETATM   10  O   UNL     1     -11.559  11.642  67.672  1.00  0.00    -0.428 OA 
BRANCH  10  11
HETATM   11  C   UNL     1     -10.756  11.030  68.698  1.00  0.00    -0.198 C  
BRANCH  11  12
HETATM   12  C   UNL     1      -9.938   9.898  68.087  1.00  0.00    -0.175 A  
HETATM   13  C   UNL     1     -10.471   9.026  67.129  1.00  0.00    -0.333 A  
HETATM   14  C   UNL     1      -8.604   9.718  68.494  1.00  0.00    -0.120 A  
HETATM   15  C   UNL     1      -9.679   8.030  66.557  1.00  0.00    -0.297 A  
HETATM   16  C   UNL     1      -7.813   8.723  67.919  1.00  0.00    -0.102 A  
HETATM   17  C   UNL     1      -8.348   7.886  66.944  1.00  0.00    -0.116 A  
ENDBRANCH  11  12
BRANCH  11  18
HETATM   18  C   UNL     1     -11.530  10.586  69.931  1.00  0.00    -0.384 A  
HETATM   19  C   UNL     1     -13.158  10.986  71.690  1.00  0.00    -0.543 A  
HETATM   20  C   UNL     1     -12.402  11.448  70.610  1.00  0.00    -0.466 A  
HETATM   21  C   UNL     1     -12.163   8.800  71.467  1.00  0.00    -0.382 A  
HETATM   22  C   UNL     1     -13.046   9.661  72.112  1.00  0.00    -0.520 A  
HETATM   23  C   UNL     1     -11.408   9.259  70.386  1.00  0.00    -0.283 A  
ENDBRANCH  11  18
ENDBRANCH  10  11
ENDBRANCH   7  10
TORSDOF 4
ENDMDL
MODEL       25
REMARK 921   NORMALIZED FREE ENERGY PREDICTED BY IDOCK:   -5.99 KCAL/MOL
REMARK 922        TOTAL FREE ENERGY PREDICTED BY IDOCK:   -8.80 KCAL/MOL
REMARK 923 INTER-LIGAND FREE ENERGY PREDICTED BY IDOCK:   -7.96 KCAL/MOL
REMARK 924 INTRA-LIGAND FREE ENERGY PREDICTED BY IDOCK:   -0.84 KCAL/MOL
REMARK 927      BINDING AFFINITY PREDICTED BY RF-SCORE:    0.00 PKD
ROOT
HETATM    1  C   UNL     1      -9.712  10.055  66.641  1.00  0.00    -0.194 C  
HETATM    2  C   UNL     1      -8.460  10.328  67.481  1.00  0.00    -0.118 C  
HETATM    3  C   UNL     1      -8.113  11.787  67.188  1.00  0.00    -0.169 C  
HETATM    4  C   UNL     1      -9.192  12.243  66.201  1.00  0.00    -0.132 C  
HETATM    5  N   UNL     1      -9.508  10.983  65.526  1.00  0.00    -0.208 NA 
HETATM    6  C   UNL     1     -10.393  12.843  66.942  1.00  0.00    -0.247 C  
HETATM    7  C   UNL     1     -11.231  11.840  67.767  1.00  0.00    -0.266 C  
HETATM    8  C   UNL     1     -10.585  11.044  64.552  1.00  0.00    -0.313 C  
HETATM    9  C   UNL     1     -11.001  10.351  67.420  1.00  0.00    -0.335 C  
ENDROOT
BRANCH   7  10
HETATM   10  O   UNL     1     -11.060  11.976  69.187  1.00  0.00    -0.232 OA 
BRANCH  10  11
HETATM   11  C   UNL     1     -12.227  11.748  69.998  1.00  0.00    -0.242 C  
BRANCH  11  12
HETATM   12  C   UNL     1     -12.511  12.992  70.831  1.00  0.00    -0.396 A  
HETATM   13  C   UNL     1     -13.331  12.958  71.966  1.00  0.00    -0.579 A  
HETATM   14  C   UNL     1     -11.933  14.217  70.454  1.00  0.00    -0.402 A  
HETATM   15  C   UNL     1     -13.531  14.107  72.732  1.00  0.00    -0.592 A  
HETATM   16  C   UNL     1     -12.132  15.365  71.222  1.00  0.00    -0.424 A  
HETATM   17  C   UNL     1     -12.923  15.306  72.367  1.00  0.00    -0.473 A  
ENDBRANCH  11  12
BRANCH  11  18
HETATM   18  C   UNL     1     -12.176  10.484  70.843  1.00  0.00    -0.490 A  
HETATM   19  C   UNL     1     -10.948   8.713  71.967  1.00  0.00    -0.432 A  
HETATM   20  C   UNL     1     -10.970   9.825  71.122  1.00  0.00    -0.386 A  
HETATM   21  C   UNL     1     -13.339   8.862  72.246  1.00  0.00    -0.497 A  
HETATM   22  C   UNL     1     -12.129   8.238  72.536  1.00  0.00    -0.400 A  
HETATM   23  C   UNL     1     -13.363   9.976  71.404  1.00  0.00    -0.432 A  
ENDBRANCH  11  18
ENDBRANCH  10  11
ENDBRANCH   7  10
TORSDOF 4
ENDMDL
MODEL       26
REMARK 921   NORMALIZED FREE ENERGY PREDICTED BY IDOCK:   -5.97 KCAL/MOL
REMARK 922        TOTAL FREE ENERGY PREDICTED BY IDOCK:   -8.78 KCAL/MOL
REMARK 923 INTER-LIGAND FREE ENERGY PREDICTED BY IDOCK:   -7.24 KCAL/MOL
REMARK 924 INTRA-LIGAND FREE ENERGY PREDICTED BY IDOCK:   -1.54 KCAL/MOL
REMARK 927      BINDING AFFINITY PREDICTED BY RF-SCORE:    0.00 PKD
ROOT
HETATM    1  C   UNL     1      -8.181  10.236  67.176  1.00  0.00    -0.121 C  
HETATM    2  C   UNL     1      -8.825  10.918  65.966  1.00  0.00    -0.198 C  
HETATM    3  C   UNL     1      -9.687   9.830  65.326  1.00  0.00    -0.371 C  
HETATM    4  C   UNL     1      -9.471   8.603  66.217  1.00  0.00    -0.241 C  
HETATM    5  N   UNL     1      -8.116   8.848  66.712  1.00  0.00    -0.110 NA 
HETATM    6  C   UNL     1     -10.517   8.550  67.337  1.00  0.00    -0.351 C  
HETATM    7  C   UNL     1     -10.392   9.653  68.413  1.00  0.00    -0.204 C  
HETATM    8  C   UNL     1      -7.614   7.883  67.677  1.00  0.00    -0.109 C  
HETATM    9  C   UNL     1      -9.033  10.389  68.444  1.00  0.00    -0.137 C  
ENDROOT
BRANCH   7  10
HETATM   10  O   UNL     1     -11.417  10.656  68.333  1.00  0.00    -0.296 OA 
BRANCH  10  11
HETATM   11  C   UNL     1     -11.044  11.988  68.730  1.00  0.00    -0.249 C  
BRANCH  11  12
HETATM   12  C   UNL     1     -11.876  12.405  69.936  1.00  0.00    -0.376 A  
HETATM   13  C   UNL     1     -12.113  13.749  70.250  1.00  0.00    -0.425 A  
HETATM   14  C   UNL     1     -12.428  11.412  70.765  1.00  0.00    -0.460 A  
HETATM   15  C   UNL     1     -12.919  14.093  71.336  1.00  0.00    -0.422 A  
HETATM   16  C   UNL     1     -13.235  11.758  71.850  1.00  0.00    -0.468 A  
HETATM   17  C   UNL     1     -13.488  13.098  72.128  1.00  0.00    -0.653 A  
ENDBRANCH  11  12
BRANCH  11  18
HETATM   18  C   UNL     1     -11.088  13.019  67.611  1.00  0.00    -0.296 A  
HETATM   19  C   UNL     1     -10.097  14.841  66.345  1.00  0.00    -0.291 A  
HETATM   20  C   UNL     1     -10.066  13.961  67.430  1.00  0.00    -0.244 A  
HETATM   21  C   UNL     1     -12.191  13.891  65.618  1.00  0.00    -0.477 A  
HETATM   22  C   UNL     1     -11.153  14.800  65.435  1.00  0.00    -0.359 A  
HETATM   23  C   UNL     1     -12.161  13.008  66.698  1.00  0.00    -0.386 A  
ENDBRANCH  11  18
ENDBRANCH  10  11
ENDBRANCH   7  10
TORSDOF 4
ENDMDL
MODEL       27
REMARK 921   NORMALIZED FREE ENERGY PREDICTED BY IDOCK:   -5.96 KCAL/MOL
REMARK 922        TOTAL FREE ENERGY PREDICTED BY IDOCK:   -8.77 KCAL/MOL
REMARK 923 INTER-LIGAND FREE ENERGY PREDICTED BY IDOCK:   -7.62 KCAL/MOL
REMARK 924 INTRA-LIGAND FREE ENERGY PREDICTED BY IDOCK:   -1.15 KCAL/MOL
REMARK 927      BINDING AFFINITY PREDICTED BY RF-SCORE:    0.00 PKD
ROOT
HETATM    1  C   UNL     1     -10.832   8.102  71.720  1.00  0.00    -0.256 C  
HETATM    2  C   UNL     1      -9.463   8.691  72.077  1.00  0.00    -0.370 C  
HETATM    3  C   UNL     1      -8.661   8.612  70.778  1.00  0.00    -0.202 C  
HETATM    4  C   UNL     1      -9.631   7.982  69.772  1.00  0.00    -0.171 C  
HETATM    5  N   UNL     1     -10.464   7.165  70.655  1.00  0.00    -0.208 NA 
HETATM    6  C   UNL     1     -10.426   9.062  69.029  1.00  0.00    -0.235 C  
HETATM    7  C   UNL     1     -11.446   9.843  69.889  1.00  0.00    -0.179 C  
HETATM    8  C   UNL     1     -11.569   6.472  70.015  1.00  0.00    -0.390 C  
HETATM    9  C   UNL     1     -11.812   9.180  71.236  1.00  0.00    -0.396 C  
ENDROOT
BRANCH   7  10
HETATM   10  O   UNL     1     -11.047  11.193  70.174  1.00  0.00    -0.205 OA 
BRANCH  10  11
HETATM   11  C   UNL     1     -11.884  12.235  69.640  1.00  0.00    -0.324 C  
BRANCH  11  12
HETATM   12  C   UNL     1     -11.253  12.783  68.366  1.00  0.00    -0.313 A  
HETATM   13  C   UNL     1      -9.866  12.917  68.219  1.00  0.00    -0.228 A  
HETATM   14  C   UNL     1     -12.084  13.167  67.299  1.00  0.00    -0.329 A  
HETATM   15  C   UNL     1      -9.321  13.379  67.020  1.00  0.00    -0.243 A  
HETATM   16  C   UNL     1     -11.537  13.627  66.100  1.00  0.00    -0.369 A  
HETATM   17  C   UNL     1     -10.155  13.722  65.958  1.00  0.00    -0.320 A  
ENDBRANCH  11  12
BRANCH  11  18
HETATM   18  C   UNL     1     -12.238  13.335  70.631  1.00  0.00    -0.417 A  
HETATM   19  C   UNL     1     -12.206  15.657  71.347  1.00  0.00    -0.477 A  
HETATM   20  C   UNL     1     -11.796  14.655  70.464  1.00  0.00    -0.367 A  
HETATM   21  C   UNL     1     -13.476  14.041  72.610  1.00  0.00    -0.650 A  
HETATM   22  C   UNL     1     -13.052  15.352  72.413  1.00  0.00    -0.501 A  
HETATM   23  C   UNL     1     -13.071  13.039  71.728  1.00  0.00    -0.469 A  
ENDBRANCH  11  18
ENDBRANCH  10  11
ENDBRANCH   7  10
TORSDOF 4
ENDMDL
MODEL       28
REMARK 921   NORMALIZED FREE ENERGY PREDICTED BY IDOCK:   -5.95 KCAL/MOL
REMARK 922        TOTAL FREE ENERGY PREDICTED BY IDOCK:   -8.75 KCAL/MOL
REMARK 923 INTER-LIGAND FREE ENERGY PREDICTED BY IDOCK:   -8.19 KCAL/MOL
REMARK 924 INTRA-LIGAND FREE ENERGY PREDICTED BY IDOCK:   -0.56 KCAL/MOL
REMARK 927      BINDING AFFINITY PREDICTED BY RF-SCORE:    0.00 PKD
ROOT
HETATM    1  C   UNL     1      -9.998   7.825  71.142  1.00  0.00    -0.176 C  
HETATM    2  C   UNL     1     -10.563   7.330  69.807  1.00  0.00    -0.247 C  
HETATM    3  C   UNL     1     -11.902   6.688  70.171  1.00  0.00    -0.347 C  
HETATM    4  C   UNL     1     -12.004   6.862  71.690  1.00  0.00    -0.339 C  
HETATM    5  N   UNL     1     -10.591   6.859  72.071  1.00  0.00    -0.210 NA 
HETATM    6  C   UNL     1     -12.717   8.172  72.044  1.00  0.00    -0.355 C  
HETATM    7  C   UNL     1     -11.936   9.463  71.708  1.00  0.00    -0.382 C  
HETATM    8  C   UNL     1     -10.317   7.089  73.479  1.00  0.00    -0.356 C  
HETATM    9  C   UNL     1     -10.425   9.267  71.448  1.00  0.00    -0.408 C  
ENDROOT
BRANCH   7  10
HETATM   10  O   UNL     1     -12.470  10.185  70.587  1.00  0.00    -0.303 OA 
BRANCH  10  11
HETATM   11  C   UNL     1     -11.744  11.356  70.173  1.00  0.00    -0.328 C  
BRANCH  11  12
HETATM   12  C   UNL     1     -12.369  12.588  70.815  1.00  0.00    -0.376 A  
HETATM   13  C   UNL     1     -11.942  13.887  70.507  1.00  0.00    -0.384 A  
HETATM   14  C   UNL     1     -13.408  12.424  71.747  1.00  0.00    -0.368 A  
HETATM   15  C   UNL     1     -12.569  14.994  71.079  1.00  0.00    -0.416 A  
HETATM   16  C   UNL     1     -14.036  13.532  72.317  1.00  0.00    -0.638 A  
HETATM   17  C   UNL     1     -13.622  14.817  71.975  1.00  0.00    -0.502 A  
ENDBRANCH  11  12
BRANCH  11  18
HETATM   18  C   UNL     1     -11.585  11.505  68.666  1.00  0.00    -0.375 A  
HETATM   19  C   UNL     1     -11.761  12.799  66.617  1.00  0.00    -0.459 A  
HETATM   20  C   UNL     1     -11.995  12.661  67.987  1.00  0.00    -0.300 A  
HETATM   21  C   UNL     1     -10.739  10.614  66.558  1.00  0.00    -0.218 A  
HETATM   22  C   UNL     1     -11.126  11.781  65.905  1.00  0.00    -0.355 A  
HETATM   23  C   UNL     1     -10.968  10.475  67.928  1.00  0.00    -0.352 A  
ENDBRANCH  11  18
ENDBRANCH  10  11
ENDBRANCH   7  10
TORSDOF 4
ENDMDL
MODEL       29
REMARK 921   NORMALIZED FREE ENERGY PREDICTED BY IDOCK:   -5.94 KCAL/MOL
REMARK 922        TOTAL FREE ENERGY PREDICTED BY IDOCK:   -8.74 KCAL/MOL
REMARK 923 INTER-LIGAND FREE ENERGY PREDICTED BY IDOCK:   -6.94 KCAL/MOL
REMARK 924 INTRA-LIGAND FREE ENERGY PREDICTED BY IDOCK:   -1.80 KCAL/MOL
REMARK 927      BINDING AFFINITY PREDICTED BY RF-SCORE:    0.00 PKD
ROOT
HETATM    1  C   UNL     1      -8.165   9.989  66.606  1.00  0.00    -0.122 C  
HETATM    2  C   UNL     1      -8.806  10.859  65.521  1.00  0.00    -0.199 C  
HETATM    3  C   UNL     1     -10.284  10.472  65.543  1.00  0.00    -0.325 C  
HETATM    4  C   UNL     1     -10.381   9.407  66.640  1.00  0.00    -0.214 C  
HETATM    5  N   UNL     1      -9.043   8.817  66.580  1.00  0.00    -0.151 NA 
HETATM    6  C   UNL     1     -10.692  10.048  67.998  1.00  0.00    -0.303 C  
HETATM    7  C   UNL     1      -9.558  10.909  68.599  1.00  0.00    -0.190 C  
HETATM    8  C   UNL     1      -8.760   7.795  67.574  1.00  0.00    -0.125 C  
HETATM    9  C   UNL     1      -8.162  10.686  67.974  1.00  0.00    -0.113 C  
ENDROOT
BRANCH   7  10
HETATM   10  O   UNL     1      -9.822  12.321  68.558  1.00  0.00    -0.207 OA 
BRANCH  10  11
HETATM   11  C   UNL     1     -11.192  12.711  68.356  1.00  0.00    -0.279 C  
BRANCH  11  12
HETATM   12  C   UNL     1     -11.304  13.500  67.057  1.00  0.00    -0.348 A  
HETATM   13  C   UNL     1     -10.218  14.197  66.512  1.00  0.00    -0.278 A  
HETATM   14  C   UNL     1     -12.535  13.531  66.377  1.00  0.00    -0.349 A  
HETATM   15  C   UNL     1     -10.345  14.870  65.296  1.00  0.00    -0.424 A  
HETATM   16  C   UNL     1     -12.659  14.202  65.160  1.00  0.00    -0.426 A  
HETATM   17  C   UNL     1     -11.561  14.863  64.616  1.00  0.00    -0.395 A  
ENDBRANCH  11  12
BRANCH  11  18
HETATM   18  C   UNL     1     -11.825  13.441  69.533  1.00  0.00    -0.391 A  
HETATM   19  C   UNL     1     -12.558  15.475  70.642  1.00  0.00    -0.493 A  
HETATM   20  C   UNL     1     -11.899  14.839  69.586  1.00  0.00    -0.362 A  
HETATM   21  C   UNL     1     -13.049  13.335  71.640  1.00  0.00    -0.453 A  
HETATM   22  C   UNL     1     -13.140  14.723  71.662  1.00  0.00    -0.418 A  
HETATM   23  C   UNL     1     -12.394  12.697  70.585  1.00  0.00    -0.375 A  
ENDBRANCH  11  18
ENDBRANCH  10  11
ENDBRANCH   7  10
TORSDOF 4
ENDMDL
MODEL       30
REMARK 921   NORMALIZED FREE ENERGY PREDICTED BY IDOCK:   -5.91 KCAL/MOL
REMARK 922        TOTAL FREE ENERGY PREDICTED BY IDOCK:   -8.70 KCAL/MOL
REMARK 923 INTER-LIGAND FREE ENERGY PREDICTED BY IDOCK:   -7.43 KCAL/MOL
REMARK 924 INTRA-LIGAND FREE ENERGY PREDICTED BY IDOCK:   -1.27 KCAL/MOL
REMARK 927      BINDING AFFINITY PREDICTED BY RF-SCORE:    0.00 PKD
ROOT
HETATM    1  C   UNL     1     -10.184   9.691  66.361  1.00  0.00    -0.217 C  
HETATM    2  C   UNL     1     -10.522   8.570  67.347  1.00  0.00    -0.351 C  
HETATM    3  C   UNL     1      -9.591   8.811  68.536  1.00  0.00    -0.158 C  
HETATM    4  C   UNL     1      -8.787  10.055  68.141  1.00  0.00    -0.122 C  
HETATM    5  N   UNL     1      -8.775   9.931  66.683  1.00  0.00    -0.128 NA 
HETATM    6  C   UNL     1      -9.481  11.332  68.628  1.00  0.00    -0.179 C  
HETATM    7  C   UNL     1     -10.813  11.673  67.921  1.00  0.00    -0.210 C  
HETATM    8  C   UNL     1      -8.141  11.024  65.964  1.00  0.00    -0.110 C  
HETATM    9  C   UNL     1     -11.055  10.936  66.584  1.00  0.00    -0.155 C  
ENDROOT
BRANCH   7  10
HETATM   10  O   UNL     1     -11.973  11.459  68.741  1.00  0.00    -0.412 OA 
BRANCH  10  11
HETATM   11  C   UNL     1     -11.791  11.604  70.161  1.00  0.00    -0.344 C  
BRANCH  11  12
HETATM   12  C   UNL     1     -12.204  10.312  70.855  1.00  0.00    -0.465 A  
HETATM   13  C   UNL     1     -13.526   9.848  70.841  1.00  0.00    -0.181 A  
HETATM   14  C   UNL     1     -11.232   9.556  71.532  1.00  0.00    -0.437 A  
HETATM   15  C   UNL     1     -13.860   8.636  71.448  1.00  0.00    -0.313 A  
HETATM   16  C   UNL     1     -11.566   8.343  72.137  1.00  0.00    -0.442 A  
HETATM   17  C   UNL     1     -12.878   7.880  72.085  1.00  0.00    -0.227 A  
ENDBRANCH  11  12
BRANCH  11  18
HETATM   18  C   UNL     1     -12.464  12.828  70.765  1.00  0.00    -0.357 A  
HETATM   19  C   UNL     1     -13.740  13.913  72.526  1.00  0.00    -0.665 A  
HETATM   20  C   UNL     1     -13.203  12.757  71.954  1.00  0.00    -0.511 A  
HETATM   21  C   UNL     1     -12.848  15.236  70.716  1.00  0.00    -0.494 A  
HETATM   22  C   UNL     1     -13.555  15.152  71.912  1.00  0.00    -0.545 A  
HETATM   23  C   UNL     1     -12.308  14.083  70.145  1.00  0.00    -0.409 A  
ENDBRANCH  11  18
ENDBRANCH  10  11
ENDBRANCH   7  10
TORSDOF 4
ENDMDL
MODEL       31
REMARK 921   NORMALIZED FREE ENERGY PREDICTED BY IDOCK:   -5.90 KCAL/MOL
REMARK 922        TOTAL FREE ENERGY PREDICTED BY IDOCK:   -8.69 KCAL/MOL
REMARK 923 INTER-LIGAND FREE ENERGY PREDICTED BY IDOCK:   -7.17 KCAL/MOL
REMARK 924 INTRA-LIGAND FREE ENERGY PREDICTED BY IDOCK:   -1.52 KCAL/MOL
REMARK 927      BINDING AFFINITY PREDICTED BY RF-SCORE:    0.00 PKD
ROOT
HETATM    1  C   UNL     1      -9.745   6.667  71.681  1.00  0.00    -0.162 C  
HETATM    2  C   UNL     1      -9.343   6.953  70.231  1.00  0.00    -0.162 C  
HETATM    3  C   UNL     1     -10.662   6.936  69.458  1.00  0.00    -0.276 C  
HETATM    4  C   UNL     1     -11.722   6.641  70.524  1.00  0.00    -0.394 C  
HETATM    5  N   UNL     1     -10.947   5.853  71.483  1.00  0.00    -0.267 NA 
HETATM    6  C   UNL     1     -12.273   7.940  71.122  1.00  0.00    -0.273 C  
HETATM    7  C   UNL     1     -11.278   8.743  71.991  1.00  0.00    -0.373 C  
HETATM    8  C   UNL     1     -11.652   5.464  72.693  1.00  0.00    -0.203 C  
HETATM    9  C   UNL     1     -10.035   7.956  72.463  1.00  0.00    -0.312 C  
ENDROOT
BRANCH   7  10
HETATM   10  O   UNL     1     -10.807   9.947  71.364  1.00  0.00    -0.238 OA 
BRANCH  10  11
HETATM   11  C   UNL     1     -11.670  10.536  70.375  1.00  0.00    -0.344 C  
BRANCH  11  12
HETATM   12  C   UNL     1     -10.919  10.644  69.053  1.00  0.00    -0.295 A  
HETATM   13  C   UNL     1     -11.577  10.878  67.839  1.00  0.00    -0.270 A  
HETATM   14  C   UNL     1      -9.520  10.506  69.046  1.00  0.00    -0.211 A  
HETATM   15  C   UNL     1     -10.853  11.018  66.654  1.00  0.00    -0.284 A  
HETATM   16  C   UNL     1      -8.797  10.648  67.861  1.00  0.00    -0.131 A  
HETATM   17  C   UNL     1      -9.463  10.914  66.668  1.00  0.00    -0.204 A  
ENDBRANCH  11  12
BRANCH  11  18
HETATM   18  C   UNL     1     -12.305  11.855  70.790  1.00  0.00    -0.416 A  
HETATM   19  C   UNL     1     -13.728  13.174  72.254  1.00  0.00    -0.647 A  
HETATM   20  C   UNL     1     -13.225  11.937  71.845  1.00  0.00    -0.467 A  
HETATM   21  C   UNL     1     -12.439  14.278  70.539  1.00  0.00    -0.428 A  
HETATM   22  C   UNL     1     -13.328  14.344  71.607  1.00  0.00    -0.442 A  
HETATM   23  C   UNL     1     -11.932  13.043  70.131  1.00  0.00    -0.374 A  
ENDBRANCH  11  18
ENDBRANCH  10  11
ENDBRANCH   7  10
TORSDOF 4
ENDMDL
MODEL       32
REMARK 921   NORMALIZED FREE ENERGY PREDICTED BY IDOCK:   -5.88 KCAL/MOL
REMARK 922        TOTAL FREE ENERGY PREDICTED BY IDOCK:   -8.66 KCAL/MOL
REMARK 923 INTER-LIGAND FREE ENERGY PREDICTED BY IDOCK:   -7.07 KCAL/MOL
REMARK 924 INTRA-LIGAND FREE ENERGY PREDICTED BY IDOCK:   -1.59 KCAL/MOL
REMARK 927      BINDING AFFINITY PREDICTED BY RF-SCORE:    0.00 PKD
ROOT
HETATM    1  C   UNL     1     -11.170  10.863  67.079  1.00  0.00    -0.137 C  
HETATM    2  C   UNL     1     -11.326  10.732  68.597  1.00  0.00    -0.356 C  
HETATM    3  C   UNL     1      -9.965  11.140  69.159  1.00  0.00    -0.104 C  
HETATM    4  C   UNL     1      -9.128  11.474  67.919  1.00  0.00    -0.167 C  
HETATM    5  N   UNL     1      -9.739  10.595  66.921  1.00  0.00    -0.175 NA 
HETATM    6  C   UNL     1      -9.248  12.960  67.562  1.00  0.00    -0.192 C  
HETATM    7  C   UNL     1     -10.634  13.406  67.043  1.00  0.00    -0.264 C  
HETATM    8  C   UNL     1      -9.219  10.719  65.570  1.00  0.00    -0.202 C  
HETATM    9  C   UNL     1     -11.561  12.260  66.579  1.00  0.00    -0.440 C  
ENDROOT
BRANCH   7  10
HETATM   10  O   UNL     1     -11.375  14.198  67.984  1.00  0.00    -0.271 OA 
BRANCH  10  11
HETATM   11  C   UNL     1     -10.623  14.783  69.063  1.00  0.00    -0.248 C  
BRANCH  11  12
HETATM   12  C   UNL     1     -11.465  14.760  70.333  1.00  0.00    -0.303 A  
HETATM   13  C   UNL     1     -11.287  15.693  71.363  1.00  0.00    -0.448 A  
HETATM   14  C   UNL     1     -12.456  13.773  70.481  1.00  0.00    -0.409 A  
HETATM   15  C   UNL     1     -12.109  15.670  72.491  1.00  0.00    -0.563 A  
HETATM   16  C   UNL     1     -13.277  13.753  71.609  1.00  0.00    -0.450 A  
HETATM   17  C   UNL     1     -13.110  14.708  72.608  1.00  0.00    -0.549 A  
ENDBRANCH  11  12
BRANCH  11  18
HETATM   18  C   UNL     1     -10.057  16.164  68.768  1.00  0.00    -0.237 A  
HETATM   19  C   UNL     1      -8.213  17.745  68.685  1.00  0.00    -0.272 A  
HETATM   20  C   UNL     1      -8.722  16.494  69.042  1.00  0.00    -0.215 A  
HETATM   21  C   UNL     1     -10.367  18.385  67.807  1.00  0.00    -0.428 A  
HETATM   22  C   UNL     1      -9.032  18.686  68.060  1.00  0.00    -0.324 A  
HETATM   23  C   UNL     1     -10.877  17.135  68.160  1.00  0.00    -0.316 A  
ENDBRANCH  11  18
ENDBRANCH  10  11
ENDBRANCH   7  10
TORSDOF 4
ENDMDL
MODEL       33
REMARK 921   NORMALIZED FREE ENERGY PREDICTED BY IDOCK:   -5.87 KCAL/MOL
REMARK 922        TOTAL FREE ENERGY PREDICTED BY IDOCK:   -8.65 KCAL/MOL
REMARK 923 INTER-LIGAND FREE ENERGY PREDICTED BY IDOCK:   -7.18 KCAL/MOL
REMARK 924 INTRA-LIGAND FREE ENERGY PREDICTED BY IDOCK:   -1.48 KCAL/MOL
REMARK 927      BINDING AFFINITY PREDICTED BY RF-SCORE:    0.00 PKD
ROOT
HETATM    1  C   UNL     1     -10.481   7.547  69.541  1.00  0.00    -0.226 C  
HETATM    2  C   UNL     1     -11.219   8.042  70.789  1.00  0.00    -0.275 C  
HETATM    3  C   UNL     1     -10.234   8.996  71.464  1.00  0.00    -0.414 C  
HETATM    4  C   UNL     1      -9.003   8.977  70.552  1.00  0.00    -0.213 C  
HETATM    5  N   UNL     1      -9.089   7.629  69.989  1.00  0.00    -0.151 NA 
HETATM    6  C   UNL     1      -9.094  10.077  69.488  1.00  0.00    -0.236 C  
HETATM    7  C   UNL     1     -10.189   9.873  68.416  1.00  0.00    -0.178 C  
HETATM    8  C   UNL     1      -8.085   7.298  68.992  1.00  0.00    -0.124 C  
HETATM    9  C   UNL     1     -10.755   8.438  68.321  1.00  0.00    -0.084 C  
ENDROOT
BRANCH   7  10
HETATM   10  O   UNL     1     -11.307  10.763  68.557  1.00  0.00    -0.259 OA 
BRANCH  10  11
HETATM   11  C   UNL     1     -11.002  12.128  68.895  1.00  0.00    -0.224 C  
BRANCH  11  12
HETATM   12  C   UNL     1     -11.881  12.566  70.060  1.00  0.00    -0.363 A  
HETATM   13  C   UNL     1     -12.157  13.915  70.320  1.00  0.00    -0.423 A  
HETATM   14  C   UNL     1     -12.436  11.589  70.906  1.00  0.00    -0.464 A  
HETATM   15  C   UNL     1     -13.005  14.277  71.368  1.00  0.00    -0.411 A  
HETATM   16  C   UNL     1     -13.284  11.953  71.953  1.00  0.00    -0.467 A  
HETATM   17  C   UNL     1     -13.576  13.296  72.176  1.00  0.00    -0.655 A  
ENDBRANCH  11  12
BRANCH  11  18
HETATM   18  C   UNL     1     -11.063  13.100  67.725  1.00  0.00    -0.287 A  
HETATM   19  C   UNL     1     -10.104  14.873  66.368  1.00  0.00    -0.296 A  
HETATM   20  C   UNL     1     -10.058  14.050  67.496  1.00  0.00    -0.237 A  
HETATM   21  C   UNL     1     -12.180  13.849  65.690  1.00  0.00    -0.477 A  
HETATM   22  C   UNL     1     -11.159  14.767  65.462  1.00  0.00    -0.346 A  
HETATM   23  C   UNL     1     -12.135  13.023  66.814  1.00  0.00    -0.366 A  
ENDBRANCH  11  18
ENDBRANCH  10  11
ENDBRANCH   7  10
TORSDOF 4
ENDMDL
MODEL       34
REMARK 921   NORMALIZED FREE ENERGY PREDICTED BY IDOCK:   -5.86 KCAL/MOL
REMARK 922        TOTAL FREE ENERGY PREDICTED BY IDOCK:   -8.63 KCAL/MOL
REMARK 923 INTER-LIGAND FREE ENERGY PREDICTED BY IDOCK:   -7.53 KCAL/MOL
REMARK 924 INTRA-LIGAND FREE ENERGY PREDICTED BY IDOCK:   -1.10 KCAL/MOL
REMARK 927      BINDING AFFINITY PREDICTED BY RF-SCORE:    0.00 PKD
ROOT
HETATM    1  C   UNL     1      -9.083  16.898  66.430  1.00  0.00    -0.283 C  
HETATM    2  C   UNL     1      -7.869  16.299  67.147  1.00  0.00    -0.225 C  
HETATM    3  C   UNL     1      -7.622  17.236  68.329  1.00  0.00    -0.227 C  
HETATM    4  C   UNL     1      -8.712  18.305  68.201  1.00  0.00    -0.281 C  
HETATM    5  N   UNL     1      -8.925  18.318  66.753  1.00  0.00    -0.276 NA 
HETATM    6  C   UNL     1      -9.966  17.903  68.987  1.00  0.00    -0.276 C  
HETATM    7  C   UNL     1     -10.746  16.695  68.418  1.00  0.00    -0.353 C  
HETATM    8  C   UNL     1      -9.985  19.194  66.281  1.00  0.00    -0.401 C  
HETATM    9  C   UNL     1     -10.405  16.322  66.957  1.00  0.00    -0.292 C  
ENDROOT
BRANCH   7  10
HETATM   10  O   UNL     1     -10.612  15.501  69.204  1.00  0.00    -0.212 OA 
BRANCH  10  11
HETATM   11  C   UNL     1     -11.553  14.446  68.934  1.00  0.00    -0.306 C  
BRANCH  11  12
HETATM   12  C   UNL     1     -12.312  14.110  70.213  1.00  0.00    -0.421 A  
HETATM   13  C   UNL     1     -12.982  15.087  70.960  1.00  0.00    -0.466 A  
HETATM   14  C   UNL     1     -12.345  12.778  70.661  1.00  0.00    -0.381 A  
HETATM   15  C   UNL     1     -13.706  14.735  72.100  1.00  0.00    -0.543 A  
HETATM   16  C   UNL     1     -13.071  12.427  71.800  1.00  0.00    -0.446 A  
HETATM   17  C   UNL     1     -13.760  13.405  72.512  1.00  0.00    -0.636 A  
ENDBRANCH  11  12
BRANCH  11  18
HETATM   18  C   UNL     1     -10.952  13.212  68.275  1.00  0.00    -0.278 A  
HETATM   19  C   UNL     1     -11.095  11.312  66.768  1.00  0.00    -0.314 A  
HETATM   20  C   UNL     1     -11.699  12.390  67.420  1.00  0.00    -0.417 A  
HETATM   21  C   UNL     1      -8.995  11.823  67.839  1.00  0.00    -0.180 A  
HETATM   22  C   UNL     1      -9.744  11.034  66.970  1.00  0.00    -0.208 A  
HETATM   23  C   UNL     1      -9.595  12.903  68.489  1.00  0.00    -0.113 A  
ENDBRANCH  11  18
ENDBRANCH  10  11
ENDBRANCH   7  10
TORSDOF 4
ENDMDL
MODEL       35
REMARK 921   NORMALIZED FREE ENERGY PREDICTED BY IDOCK:   -5.81 KCAL/MOL
REMARK 922        TOTAL FREE ENERGY PREDICTED BY IDOCK:   -8.58 KCAL/MOL
REMARK 923 INTER-LIGAND FREE ENERGY PREDICTED BY IDOCK:   -7.30 KCAL/MOL
REMARK 924 INTRA-LIGAND FREE ENERGY PREDICTED BY IDOCK:   -1.28 KCAL/MOL
REMARK 927      BINDING AFFINITY PREDICTED BY RF-SCORE:    0.00 PKD
ROOT
HETATM    1  C   UNL     1     -10.983   6.910  70.363  1.00  0.00    -0.274 C  
HETATM    2  C   UNL     1     -12.081   7.478  71.267  1.00  0.00    -0.351 C  
HETATM    3  C   UNL     1     -11.345   8.417  72.222  1.00  0.00    -0.448 C  
HETATM    4  C   UNL     1      -9.877   8.317  71.795  1.00  0.00    -0.218 C  
HETATM    5  N   UNL     1      -9.829   6.954  71.265  1.00  0.00    -0.176 NA 
HETATM    6  C   UNL     1      -9.540   9.381  70.743  1.00  0.00    -0.322 C  
HETATM    7  C   UNL     1     -10.206   9.181  69.362  1.00  0.00    -0.210 C  
HETATM    8  C   UNL     1      -8.560   6.548  70.684  1.00  0.00    -0.139 C  
HETATM    9  C   UNL     1     -10.774   7.766  69.106  1.00  0.00    -0.139 C  
ENDROOT
BRANCH   7  10
HETATM   10  O   UNL     1     -11.260  10.118  69.089  1.00  0.00    -0.225 OA 
BRANCH  10  11
HETATM   11  C   UNL     1     -10.939  11.511  69.255  1.00  0.00    -0.208 C  
BRANCH  11  12
HETATM   12  C   UNL     1     -11.916  12.138  70.242  1.00  0.00    -0.389 A  
HETATM   13  C   UNL     1     -12.685  11.365  71.123  1.00  0.00    -0.479 A  
HETATM   14  C   UNL     1     -12.055  13.536  70.276  1.00  0.00    -0.425 A  
HETATM   15  C   UNL     1     -13.535  11.976  72.046  1.00  0.00    -0.364 A  
HETATM   16  C   UNL     1     -12.904  14.145  71.201  1.00  0.00    -0.431 A  
HETATM   17  C   UNL     1     -13.636  13.365  72.092  1.00  0.00    -0.660 A  
ENDBRANCH  11  12
BRANCH  11  18
HETATM   18  C   UNL     1     -10.840  12.299  67.957  1.00  0.00    -0.253 A  
HETATM   19  C   UNL     1      -9.756  13.943  66.533  1.00  0.00    -0.303 A  
HETATM   20  C   UNL     1      -9.871  13.294  67.765  1.00  0.00    -0.224 A  
HETATM   21  C   UNL     1     -11.600  12.651  65.666  1.00  0.00    -0.418 A  
HETATM   22  C   UNL     1     -10.613  13.616  65.482  1.00  0.00    -0.300 A  
HETATM   23  C   UNL     1     -11.715  11.999  66.895  1.00  0.00    -0.342 A  
ENDBRANCH  11  18
ENDBRANCH  10  11
ENDBRANCH   7  10
TORSDOF 4
ENDMDL
MODEL       36
REMARK 921   NORMALIZED FREE ENERGY PREDICTED BY IDOCK:   -5.81 KCAL/MOL
REMARK 922        TOTAL FREE ENERGY PREDICTED BY IDOCK:   -8.58 KCAL/MOL
REMARK 923 INTER-LIGAND FREE ENERGY PREDICTED BY IDOCK:   -6.99 KCAL/MOL
REMARK 924 INTRA-LIGAND FREE ENERGY PREDICTED BY IDOCK:   -1.59 KCAL/MOL
REMARK 927      BINDING AFFINITY PREDICTED BY RF-SCORE:    0.00 PKD
ROOT
HETATM    1  C   UNL     1      -9.732   7.630  68.469  1.00  0.00    -0.158 C  
HETATM    2  C   UNL     1      -9.987   8.219  69.859  1.00  0.00    -0.190 C  
HETATM    3  C   UNL     1      -8.961   9.345  69.992  1.00  0.00    -0.234 C  
HETATM    4  C   UNL     1      -8.194   9.316  68.666  1.00  0.00    -0.113 C  
HETATM    5  N   UNL     1      -8.302   7.902  68.308  1.00  0.00    -0.123 NA 
HETATM    6  C   UNL     1      -8.846  10.247  67.637  1.00  0.00    -0.121 C  
HETATM    7  C   UNL     1     -10.232   9.796  67.121  1.00  0.00    -0.228 C  
HETATM    8  C   UNL     1      -7.730   7.532  67.023  1.00  0.00    -0.111 C  
HETATM    9  C   UNL     1     -10.582   8.315  67.389  1.00  0.00    -0.324 C  
ENDROOT
BRANCH   7  10
HETATM   10  O   UNL     1     -11.320  10.588  67.622  1.00  0.00    -0.394 OA 
BRANCH  10  11
HETATM   11  C   UNL     1     -10.987  11.901  68.109  1.00  0.00    -0.227 C  
BRANCH  11  12
HETATM   12  C   UNL     1     -11.764  12.175  69.391  1.00  0.00    -0.391 A  
HETATM   13  C   UNL     1     -12.234  11.142  70.212  1.00  0.00    -0.436 A  
HETATM   14  C   UNL     1     -12.021  13.505  69.766  1.00  0.00    -0.405 A  
HETATM   15  C   UNL     1     -12.902  11.430  71.403  1.00  0.00    -0.502 A  
HETATM   16  C   UNL     1     -12.687  13.792  70.959  1.00  0.00    -0.416 A  
HETATM   17  C   UNL     1     -13.117  12.754  71.781  1.00  0.00    -0.455 A  
ENDBRANCH  11  12
BRANCH  11  18
HETATM   18  C   UNL     1     -11.145  13.016  67.085  1.00  0.00    -0.304 A  
HETATM   19  C   UNL     1     -10.309  14.972  65.909  1.00  0.00    -0.329 A  
HETATM   20  C   UNL     1     -10.170  14.009  66.912  1.00  0.00    -0.260 A  
HETATM   21  C   UNL     1     -12.417  14.002  65.252  1.00  0.00    -0.495 A  
HETATM   22  C   UNL     1     -11.426  14.962  65.074  1.00  0.00    -0.379 A  
HETATM   23  C   UNL     1     -12.280  13.037  66.251  1.00  0.00    -0.390 A  
ENDBRANCH  11  18
ENDBRANCH  10  11
ENDBRANCH   7  10
TORSDOF 4
ENDMDL
MODEL       37
REMARK 921   NORMALIZED FREE ENERGY PREDICTED BY IDOCK:   -5.77 KCAL/MOL
REMARK 922        TOTAL FREE ENERGY PREDICTED BY IDOCK:   -8.53 KCAL/MOL
REMARK 923 INTER-LIGAND FREE ENERGY PREDICTED BY IDOCK:   -6.84 KCAL/MOL
REMARK 924 INTRA-LIGAND FREE ENERGY PREDICTED BY IDOCK:   -1.69 KCAL/MOL
REMARK 927      BINDING AFFINITY PREDICTED BY RF-SCORE:    0.00 PKD
ROOT
HETATM    1  C   UNL     1      -7.937   9.805  66.479  1.00  0.00    -0.112 C  
HETATM    2  C   UNL     1      -8.604  10.755  65.479  1.00  0.00    -0.181 C  
HETATM    3  C   UNL     1     -10.067  10.314  65.450  1.00  0.00    -0.354 C  
HETATM    4  C   UNL     1     -10.130   9.142  66.435  1.00  0.00    -0.274 C  
HETATM    5  N   UNL     1      -8.771   8.610  66.328  1.00  0.00    -0.134 NA 
HETATM    6  C   UNL     1     -10.471   9.632  67.847  1.00  0.00    -0.296 C  
HETATM    7  C   UNL     1      -9.373  10.470  68.541  1.00  0.00    -0.168 C  
HETATM    8  C   UNL     1      -8.455   7.505  67.217  1.00  0.00    -0.118 C  
HETATM    9  C   UNL     1      -7.967  10.362  67.909  1.00  0.00    -0.102 C  
ENDROOT
BRANCH   7  10
HETATM   10  O   UNL     1      -9.689  11.868  68.637  1.00  0.00    -0.184 OA 
BRANCH  10  11
HETATM   11  C   UNL     1     -11.047  12.241  68.341  1.00  0.00    -0.243 C  
BRANCH  11  12
HETATM   12  C   UNL     1     -11.053  13.257  67.205  1.00  0.00    -0.301 A  
HETATM   13  C   UNL     1      -9.944  14.065  66.922  1.00  0.00    -0.263 A  
HETATM   14  C   UNL     1     -12.205  13.392  66.412  1.00  0.00    -0.435 A  
HETATM   15  C   UNL     1      -9.968  14.951  65.844  1.00  0.00    -0.357 A  
HETATM   16  C   UNL     1     -12.227  14.278  65.333  1.00  0.00    -0.408 A  
HETATM   17  C   UNL     1     -11.104  15.049  65.044  1.00  0.00    -0.421 A  
ENDBRANCH  11  12
BRANCH  11  18
HETATM   18  C   UNL     1     -11.853  12.711  69.544  1.00  0.00    -0.376 A  
HETATM   19  C   UNL     1     -12.972  12.296  71.661  1.00  0.00    -0.416 A  
HETATM   20  C   UNL     1     -12.304  11.822  70.529  1.00  0.00    -0.387 A  
HETATM   21  C   UNL     1     -12.793  14.556  70.835  1.00  0.00    -0.425 A  
HETATM   22  C   UNL     1     -13.208  13.662  71.818  1.00  0.00    -0.477 A  
HETATM   23  C   UNL     1     -12.123  14.085  69.704  1.00  0.00    -0.408 A  
ENDBRANCH  11  18
ENDBRANCH  10  11
ENDBRANCH   7  10
TORSDOF 4
ENDMDL
MODEL       38
REMARK 921   NORMALIZED FREE ENERGY PREDICTED BY IDOCK:   -5.77 KCAL/MOL
REMARK 922        TOTAL FREE ENERGY PREDICTED BY IDOCK:   -8.52 KCAL/MOL
REMARK 923 INTER-LIGAND FREE ENERGY PREDICTED BY IDOCK:   -7.81 KCAL/MOL
REMARK 924 INTRA-LIGAND FREE ENERGY PREDICTED BY IDOCK:   -0.71 KCAL/MOL
REMARK 927      BINDING AFFINITY PREDICTED BY RF-SCORE:    0.00 PKD
ROOT
HETATM    1  C   UNL     1      -9.698  13.084  65.837  1.00  0.00    -0.178 C  
HETATM    2  C   UNL     1     -10.014  14.506  66.311  1.00  0.00    -0.320 C  
HETATM    3  C   UNL     1     -11.280  14.893  65.546  1.00  0.00    -0.348 C  
HETATM    4  C   UNL     1     -11.594  13.663  64.688  1.00  0.00    -0.371 C  
HETATM    5  N   UNL     1     -10.254  13.112  64.482  1.00  0.00    -0.351 NA 
HETATM    6  C   UNL     1     -12.529  12.702  65.431  1.00  0.00    -0.421 C  
HETATM    7  C   UNL     1     -11.910  11.989  66.655  1.00  0.00    -0.159 C  
HETATM    8  C   UNL     1     -10.195  11.857  63.750  1.00  0.00    -0.413 C  
HETATM    9  C   UNL     1     -10.366  12.021  66.721  1.00  0.00    -0.233 C  
ENDROOT
BRANCH   7  10
HETATM   10  O   UNL     1     -12.400  12.473  67.915  1.00  0.00    -0.245 OA 
BRANCH  10  11
HETATM   11  C   UNL     1     -11.445  12.549  68.989  1.00  0.00    -0.304 C  
BRANCH  11  12
HETATM   12  C   UNL     1     -11.558  11.297  69.850  1.00  0.00    -0.413 A  
HETATM   13  C   UNL     1     -10.485  10.412  70.022  1.00  0.00    -0.235 A  
HETATM   14  C   UNL     1     -12.774  11.016  70.497  1.00  0.00    -0.331 A  
HETATM   15  C   UNL     1     -10.610   9.300  70.856  1.00  0.00    -0.366 A  
HETATM   16  C   UNL     1     -12.896   9.905  71.332  1.00  0.00    -0.505 A  
HETATM   17  C   UNL     1     -11.810   9.053  71.519  1.00  0.00    -0.415 A  
ENDBRANCH  11  12
BRANCH  11  18
HETATM   18  C   UNL     1     -11.515  13.827  69.812  1.00  0.00    -0.267 A  
HETATM   19  C   UNL     1     -10.962  16.165  70.179  1.00  0.00    -0.359 A  
HETATM   20  C   UNL     1     -10.813  14.985  69.446  1.00  0.00    -0.265 A  
HETATM   21  C   UNL     1     -12.485  15.054  71.684  1.00  0.00    -0.405 A  
HETATM   22  C   UNL     1     -11.804  16.202  71.290  1.00  0.00    -0.458 A  
HETATM   23  C   UNL     1     -12.340  13.874  70.952  1.00  0.00    -0.451 A  
ENDBRANCH  11  18
ENDBRANCH  10  11
ENDBRANCH   7  10
TORSDOF 4
ENDMDL
MODEL       39
REMARK 921   NORMALIZED FREE ENERGY PREDICTED BY IDOCK:   -5.69 KCAL/MOL
REMARK 922        TOTAL FREE ENERGY PREDICTED BY IDOCK:   -8.43 KCAL/MOL
REMARK 923 INTER-LIGAND FREE ENERGY PREDICTED BY IDOCK:   -6.94 KCAL/MOL
REMARK 924 INTRA-LIGAND FREE ENERGY PREDICTED BY IDOCK:   -1.50 KCAL/MOL
REMARK 927      BINDING AFFINITY PREDICTED BY RF-SCORE:    0.00 PKD
ROOT
HETATM    1  C   UNL     1     -12.291  12.431  65.945  1.00  0.00     0.052 C  
HETATM    2  C   UNL     1     -11.324  11.940  67.026  1.00  0.00    -0.392 C  
HETATM    3  C   UNL     1      -9.951  11.970  66.355  1.00  0.00    -0.240 C  
HETATM    4  C   UNL     1     -10.234  12.475  64.936  1.00  0.00    -0.278 C  
HETATM    5  N   UNL     1     -11.599  11.990  64.731  1.00  0.00    -0.309 NA 
HETATM    6  C   UNL     1     -10.124  14.003  64.868  1.00  0.00    -0.288 C  
HETATM    7  C   UNL     1     -11.226  14.780  65.624  1.00  0.00    -0.343 C  
HETATM    8  C   UNL     1     -12.222  12.376  63.475  1.00  0.00    -0.563 C  
HETATM    9  C   UNL     1     -12.479  13.954  65.990  1.00  0.00    -0.501 C  
ENDROOT
BRANCH   7  10
HETATM   10  O   UNL     1     -10.764  15.410  66.830  1.00  0.00    -0.304 OA 
BRANCH  10  11
HETATM   11  C   UNL     1      -9.621  16.275  66.705  1.00  0.00    -0.246 C  
BRANCH  11  12
HETATM   12  C   UNL     1      -8.446  15.668  67.462  1.00  0.00    -0.182 A  
HETATM   13  C   UNL     1      -8.621  14.696  68.456  1.00  0.00    -0.170 A  
HETATM   14  C   UNL     1      -7.141  16.091  67.156  1.00  0.00    -0.248 A  
HETATM   15  C   UNL     1      -7.518  14.128  69.096  1.00  0.00    -0.037 A  
HETATM   16  C   UNL     1      -6.039  15.521  67.795  1.00  0.00    -0.175 A  
HETATM   17  C   UNL     1      -6.229  14.532  68.757  1.00  0.00    -0.087 A  
ENDBRANCH  11  12
BRANCH  11  18
HETATM   18  C   UNL     1      -9.875  17.724  67.095  1.00  0.00    -0.311 A  
HETATM   19  C   UNL     1     -10.001  19.501  68.748  1.00  0.00    -0.547 A  
HETATM   20  C   UNL     1      -9.843  18.150  68.430  1.00  0.00    -0.380 A  
HETATM   21  C   UNL     1     -10.268  20.032  66.410  1.00  0.00    -0.598 A  
HETATM   22  C   UNL     1     -10.204  20.442  67.739  1.00  0.00    -0.392 A  
HETATM   23  C   UNL     1     -10.108  18.683  66.090  1.00  0.00    -0.399 A  
ENDBRANCH  11  18
ENDBRANCH  10  11
ENDBRANCH   7  10
TORSDOF 4
ENDMDL
MODEL       40
REMARK 921   NORMALIZED FREE ENERGY PREDICTED BY IDOCK:   -5.69 KCAL/MOL
REMARK 922        TOTAL FREE ENERGY PREDICTED BY IDOCK:   -8.43 KCAL/MOL
REMARK 923 INTER-LIGAND FREE ENERGY PREDICTED BY IDOCK:   -7.28 KCAL/MOL
REMARK 924 INTRA-LIGAND FREE ENERGY PREDICTED BY IDOCK:   -1.15 KCAL/MOL
REMARK 927      BINDING AFFINITY PREDICTED BY RF-SCORE:    0.00 PKD
ROOT
HETATM    1  C   UNL     1     -10.587   7.259  70.077  1.00  0.00    -0.233 C  
HETATM    2  C   UNL     1     -11.583   7.994  70.979  1.00  0.00    -0.303 C  
HETATM    3  C   UNL     1     -10.748   9.069  71.674  1.00  0.00    -0.441 C  
HETATM    4  C   UNL     1      -9.334   8.870  71.119  1.00  0.00    -0.257 C  
HETATM    5  N   UNL     1      -9.344   7.435  70.831  1.00  0.00    -0.155 NA 
HETATM    6  C   UNL     1      -9.111   9.729  69.869  1.00  0.00    -0.257 C  
HETATM    7  C   UNL     1      -9.920   9.307  68.621  1.00  0.00    -0.178 C  
HETATM    8  C   UNL     1      -8.144   6.911  70.200  1.00  0.00    -0.127 C  
HETATM    9  C   UNL     1     -10.513   7.881  68.675  1.00  0.00    -0.196 C  
ENDROOT
BRANCH   7  10
HETATM   10  O   UNL     1     -10.997  10.203  68.302  1.00  0.00    -0.245 OA 
BRANCH  10  11
HETATM   11  C   UNL     1     -10.624  11.510  67.829  1.00  0.00    -0.192 C  
BRANCH  11  12
HETATM   12  C   UNL     1     -11.101  12.560  68.826  1.00  0.00    -0.314 A  
HETATM   13  C   UNL     1     -10.657  13.888  68.780  1.00  0.00    -0.258 A  
HETATM   14  C   UNL     1     -12.018  12.190  69.825  1.00  0.00    -0.372 A  
HETATM   15  C   UNL     1     -11.151  14.833  69.679  1.00  0.00    -0.299 A  
HETATM   16  C   UNL     1     -12.513  13.137  70.723  1.00  0.00    -0.389 A  
HETATM   17  C   UNL     1     -12.086  14.460  70.643  1.00  0.00    -0.404 A  
ENDBRANCH  11  12
BRANCH  11  18
HETATM   18  C   UNL     1     -11.064  11.820  66.405  1.00  0.00    -0.360 A  
HETATM   19  C   UNL     1     -12.344  13.120  64.800  1.00  0.00    -0.477 A  
HETATM   20  C   UNL     1     -12.021  12.805  66.122  1.00  0.00    -0.476 A  
HETATM   21  C   UNL     1     -10.794  11.450  64.010  1.00  0.00    -0.450 A  
HETATM   22  C   UNL     1     -11.724  12.450  63.745  1.00  0.00    -0.566 A  
HETATM   23  C   UNL     1     -10.467  11.134  65.330  1.00  0.00    -0.326 A  
ENDBRANCH  11  18
ENDBRANCH  10  11
ENDBRANCH   7  10
TORSDOF 4
ENDMDL
MODEL       41
REMARK 921   NORMALIZED FREE ENERGY PREDICTED BY IDOCK:   -5.66 KCAL/MOL
REMARK 922        TOTAL FREE ENERGY PREDICTED BY IDOCK:   -8.39 KCAL/MOL
REMARK 923 INTER-LIGAND FREE ENERGY PREDICTED BY IDOCK:   -7.23 KCAL/MOL
REMARK 924 INTRA-LIGAND FREE ENERGY PREDICTED BY IDOCK:   -1.15 KCAL/MOL
REMARK 927      BINDING AFFINITY PREDICTED BY RF-SCORE:    0.00 PKD
ROOT
HETATM    1  C   UNL     1      -9.924   9.126  70.875  1.00  0.00    -0.288 C  
HETATM    2  C   UNL     1      -8.501   9.557  70.506  1.00  0.00    -0.213 C  
HETATM    3  C   UNL     1      -8.216   8.844  69.184  1.00  0.00    -0.118 C  
HETATM    4  C   UNL     1      -9.497   8.056  68.894  1.00  0.00    -0.151 C  
HETATM    5  N   UNL     1      -9.986   7.802  70.250  1.00  0.00    -0.188 NA 
HETATM    6  C   UNL     1     -10.472   8.888  68.052  1.00  0.00    -0.263 C  
HETATM    7  C   UNL     1     -11.097  10.105  68.772  1.00  0.00    -0.203 C  
HETATM    8  C   UNL     1     -11.267   7.121  70.340  1.00  0.00    -0.287 C  
HETATM    9  C   UNL     1     -10.980  10.088  70.313  1.00  0.00    -0.377 C  
ENDROOT
BRANCH   7  10
HETATM   10  O   UNL     1     -10.583  11.368  68.320  1.00  0.00    -0.179 OA 
BRANCH  10  11
HETATM   11  C   UNL     1     -11.554  12.394  68.044  1.00  0.00    -0.347 C  
BRANCH  11  12
HETATM   12  C   UNL     1     -11.628  12.622  66.539  1.00  0.00    -0.441 A  
HETATM   13  C   UNL     1     -12.386  13.659  65.979  1.00  0.00    -0.493 A  
HETATM   14  C   UNL     1     -10.914  11.769  65.679  1.00  0.00    -0.348 A  
HETATM   15  C   UNL     1     -12.393  13.868  64.599  1.00  0.00    -0.421 A  
HETATM   16  C   UNL     1     -10.921  11.981  64.300  1.00  0.00    -0.401 A  
HETATM   17  C   UNL     1     -11.652  13.036  63.762  1.00  0.00    -0.517 A  
ENDBRANCH  11  12
BRANCH  11  18
HETATM   18  C   UNL     1     -11.348  13.688  68.817  1.00  0.00    -0.326 A  
HETATM   19  C   UNL     1     -10.164  15.771  69.221  1.00  0.00    -0.248 A  
HETATM   20  C   UNL     1     -10.278  14.552  68.548  1.00  0.00    -0.240 A  
HETATM   21  C   UNL     1     -12.162  15.278  70.479  1.00  0.00    -0.415 A  
HETATM   22  C   UNL     1     -11.109  16.138  70.178  1.00  0.00    -0.373 A  
HETATM   23  C   UNL     1     -12.280  14.061  69.806  1.00  0.00    -0.396 A  
ENDBRANCH  11  18
ENDBRANCH  10  11
ENDBRANCH   7  10
TORSDOF 4
ENDMDL
MODEL       42
REMARK 921   NORMALIZED FREE ENERGY PREDICTED BY IDOCK:   -5.54 KCAL/MOL
REMARK 922        TOTAL FREE ENERGY PREDICTED BY IDOCK:   -8.25 KCAL/MOL
REMARK 923 INTER-LIGAND FREE ENERGY PREDICTED BY IDOCK:   -6.81 KCAL/MOL
REMARK 924 INTRA-LIGAND FREE ENERGY PREDICTED BY IDOCK:   -1.44 KCAL/MOL
REMARK 927      BINDING AFFINITY PREDICTED BY RF-SCORE:    0.00 PKD
ROOT
HETATM    1  C   UNL     1      -8.843  18.512  66.269  1.00  0.00    -0.207 C  
HETATM    2  C   UNL     1      -8.106  17.182  66.458  1.00  0.00    -0.318 C  
HETATM    3  C   UNL     1      -7.644  17.204  67.915  1.00  0.00    -0.180 C  
HETATM    4  C   UNL     1      -8.151  18.546  68.454  1.00  0.00    -0.323 C  
HETATM    5  N   UNL     1      -8.143  19.360  67.237  1.00  0.00    -0.264 NA 
HETATM    6  C   UNL     1      -9.549  18.397  69.065  1.00  0.00    -0.206 C  
HETATM    7  C   UNL     1     -10.684  18.099  68.058  1.00  0.00    -0.277 C  
HETATM    8  C   UNL     1      -8.658  20.711  67.380  1.00  0.00    -0.203 C  
HETATM    9  C   UNL     1     -10.341  18.387  66.579  1.00  0.00    -0.426 C  
ENDROOT
BRANCH   7  10
HETATM   10  O   UNL     1     -11.175  16.751  68.126  1.00  0.00    -0.325 OA 
BRANCH  10  11
HETATM   11  C   UNL     1     -10.534  15.881  69.076  1.00  0.00    -0.234 C  
BRANCH  11  12
HETATM   12  C   UNL     1      -9.924  14.694  68.339  1.00  0.00    -0.227 A  
HETATM   13  C   UNL     1      -8.743  14.076  68.769  1.00  0.00    -0.028 A  
HETATM   14  C   UNL     1     -10.564  14.199  67.189  1.00  0.00    -0.278 A  
HETATM   15  C   UNL     1      -8.239  12.962  68.096  1.00  0.00    -0.163 A  
HETATM   16  C   UNL     1     -10.060  13.084  66.519  1.00  0.00    -0.270 A  
HETATM   17  C   UNL     1      -8.903  12.460  66.979  1.00  0.00    -0.210 A  
ENDBRANCH  11  12
BRANCH  11  18
HETATM   18  C   UNL     1     -11.415  15.450  70.239  1.00  0.00    -0.339 A  
HETATM   19  C   UNL     1     -12.783  13.801  71.387  1.00  0.00    -0.450 A  
HETATM   20  C   UNL     1     -12.046  14.198  70.269  1.00  0.00    -0.412 A  
HETATM   21  C   UNL     1     -12.313  15.910  72.461  1.00  0.00    -0.575 A  
HETATM   22  C   UNL     1     -12.908  14.652  72.485  1.00  0.00    -0.475 A  
HETATM   23  C   UNL     1     -11.573  16.308  71.345  1.00  0.00    -0.424 A  
ENDBRANCH  11  18
ENDBRANCH  10  11
ENDBRANCH   7  10
TORSDOF 4
ENDMDL
MODEL       43
REMARK 921   NORMALIZED FREE ENERGY PREDICTED BY IDOCK:   -5.54 KCAL/MOL
REMARK 922        TOTAL FREE ENERGY PREDICTED BY IDOCK:   -8.25 KCAL/MOL
REMARK 923 INTER-LIGAND FREE ENERGY PREDICTED BY IDOCK:   -6.55 KCAL/MOL
REMARK 924 INTRA-LIGAND FREE ENERGY PREDICTED BY IDOCK:   -1.70 KCAL/MOL
REMARK 927      BINDING AFFINITY PREDICTED BY RF-SCORE:    0.00 PKD
ROOT
HETATM    1  C   UNL     1      -8.224   8.222  67.886  1.00  0.00    -0.128 C  
HETATM    2  C   UNL     1      -9.024   8.201  66.580  1.00  0.00    -0.191 C  
HETATM    3  C   UNL     1     -10.486   8.177  67.026  1.00  0.00    -0.396 C  
HETATM    4  C   UNL     1     -10.415   8.186  68.556  1.00  0.00    -0.162 C  
HETATM    5  N   UNL     1      -9.137   7.510  68.784  1.00  0.00    -0.136 NA 
HETATM    6  C   UNL     1     -10.438   9.620  69.097  1.00  0.00    -0.230 C  
HETATM    7  C   UNL     1      -9.178  10.463  68.795  1.00  0.00    -0.172 C  
HETATM    8  C   UNL     1      -8.712   7.416  70.170  1.00  0.00    -0.143 C  
HETATM    9  C   UNL     1      -7.935   9.653  68.360  1.00  0.00    -0.096 C  
ENDROOT
BRANCH   7  10
HETATM   10  O   UNL     1      -9.389  11.481  67.804  1.00  0.00    -0.161 OA 
BRANCH  10  11
HETATM   11  C   UNL     1     -10.726  12.001  67.694  1.00  0.00    -0.217 C  
BRANCH  11  12
HETATM   12  C   UNL     1     -11.115  12.080  66.222  1.00  0.00    -0.363 A  
HETATM   13  C   UNL     1     -12.283  12.724  65.793  1.00  0.00    -0.469 A  
HETATM   14  C   UNL     1     -10.279  11.489  65.259  1.00  0.00    -0.315 A  
HETATM   15  C   UNL     1     -12.583  12.817  64.433  1.00  0.00    -0.431 A  
HETATM   16  C   UNL     1     -10.579  11.585  63.900  1.00  0.00    -0.448 A  
HETATM   17  C   UNL     1     -11.726  12.258  63.488  1.00  0.00    -0.584 A  
ENDBRANCH  11  12
BRANCH  11  18
HETATM   18  C   UNL     1     -10.959  13.315  68.426  1.00  0.00    -0.289 A  
HETATM   19  C   UNL     1     -10.583  15.699  68.708  1.00  0.00    -0.238 A  
HETATM   20  C   UNL     1     -10.287  14.493  68.069  1.00  0.00    -0.229 A  
HETATM   21  C   UNL     1     -12.200  14.578  70.103  1.00  0.00    -0.399 A  
HETATM   22  C   UNL     1     -11.545  15.744  69.717  1.00  0.00    -0.359 A  
HETATM   23  C   UNL     1     -11.909  13.372  69.464  1.00  0.00    -0.391 A  
ENDBRANCH  11  18
ENDBRANCH  10  11
ENDBRANCH   7  10
TORSDOF 4
ENDMDL
MODEL       44
REMARK 921   NORMALIZED FREE ENERGY PREDICTED BY IDOCK:   -5.51 KCAL/MOL
REMARK 922        TOTAL FREE ENERGY PREDICTED BY IDOCK:   -8.21 KCAL/MOL
REMARK 923 INTER-LIGAND FREE ENERGY PREDICTED BY IDOCK:   -6.76 KCAL/MOL
REMARK 924 INTRA-LIGAND FREE ENERGY PREDICTED BY IDOCK:   -1.44 KCAL/MOL
REMARK 927      BINDING AFFINITY PREDICTED BY RF-SCORE:    0.00 PKD
ROOT
HETATM    1  C   UNL     1      -8.509  16.707  68.414  1.00  0.00    -0.216 C  
HETATM    2  C   UNL     1      -9.396  16.109  69.510  1.00  0.00    -0.096 C  
HETATM    3  C   UNL     1     -10.821  16.266  68.978  1.00  0.00    -0.315 C  
HETATM    4  C   UNL     1     -10.644  16.944  67.615  1.00  0.00    -0.325 C  
HETATM    5  N   UNL     1      -9.413  17.704  67.836  1.00  0.00    -0.269 NA 
HETATM    6  C   UNL     1     -10.511  15.901  66.499  1.00  0.00    -0.305 C  
HETATM    7  C   UNL     1      -9.210  15.067  66.522  1.00  0.00    -0.290 C  
HETATM    8  C   UNL     1      -8.902  18.424  66.681  1.00  0.00    -0.289 C  
HETATM    9  C   UNL     1      -8.071  15.651  67.389  1.00  0.00    -0.195 C  
ENDROOT
BRANCH   7  10
HETATM   10  O   UNL     1      -9.405  13.706  66.937  1.00  0.00    -0.240 OA 
BRANCH  10  11
HETATM   11  C   UNL     1     -10.758  13.217  66.919  1.00  0.00    -0.263 C  
BRANCH  11  12
HETATM   12  C   UNL     1     -10.961  12.254  68.083  1.00  0.00    -0.269 A  
HETATM   13  C   UNL     1     -11.737  12.588  69.200  1.00  0.00    -0.375 A  
HETATM   14  C   UNL     1     -10.352  10.988  68.039  1.00  0.00    -0.209 A  
HETATM   15  C   UNL     1     -11.940  11.664  70.226  1.00  0.00    -0.445 A  
HETATM   16  C   UNL     1     -10.557  10.064  69.065  1.00  0.00    -0.235 A  
HETATM   17  C   UNL     1     -11.360  10.400  70.152  1.00  0.00    -0.397 A  
ENDBRANCH  11  12
BRANCH  11  18
HETATM   18  C   UNL     1     -11.200  12.621  65.590  1.00  0.00    -0.344 A  
HETATM   19  C   UNL     1     -12.888  12.197  63.894  1.00  0.00    -0.420 A  
HETATM   20  C   UNL     1     -12.531  12.682  65.155  1.00  0.00    -0.531 A  
HETATM   21  C   UNL     1     -10.603  11.540  63.486  1.00  0.00    -0.487 A  
HETATM   22  C   UNL     1     -11.924  11.635  63.057  1.00  0.00     0.066 A  
HETATM   23  C   UNL     1     -10.243  12.027  64.744  1.00  0.00    -0.311 A  
ENDBRANCH  11  18
ENDBRANCH  10  11
ENDBRANCH   7  10
TORSDOF 4
ENDMDL
MODEL       45
REMARK 921   NORMALIZED FREE ENERGY PREDICTED BY IDOCK:   -5.48 KCAL/MOL
REMARK 922        TOTAL FREE ENERGY PREDICTED BY IDOCK:   -8.17 KCAL/MOL
REMARK 923 INTER-LIGAND FREE ENERGY PREDICTED BY IDOCK:   -6.74 KCAL/MOL
REMARK 924 INTRA-LIGAND FREE ENERGY PREDICTED BY IDOCK:   -1.44 KCAL/MOL
REMARK 927      BINDING AFFINITY PREDICTED BY RF-SCORE:    0.00 PKD
ROOT
HETATM    1  C   UNL     1     -10.407   8.284  68.492  1.00  0.00    -0.199 C  
HETATM    2  C   UNL     1     -10.301   8.639  69.978  1.00  0.00    -0.213 C  
HETATM    3  C   UNL     1      -8.805   8.831  70.221  1.00  0.00    -0.171 C  
HETATM    4  C   UNL     1      -8.162   8.570  68.855  1.00  0.00    -0.117 C  
HETATM    5  N   UNL     1      -9.116   7.627  68.269  1.00  0.00    -0.137 NA 
HETATM    6  C   UNL     1      -8.037   9.871  68.053  1.00  0.00    -0.108 C  
HETATM    7  C   UNL     1      -9.372  10.487  67.576  1.00  0.00    -0.149 C  
HETATM    8  C   UNL     1      -8.842   7.223  66.901  1.00  0.00    -0.132 C  
HETATM    9  C   UNL     1     -10.586   9.531  67.614  1.00  0.00    -0.329 C  
ENDROOT
BRANCH   7  10
HETATM   10  O   UNL     1      -9.745  11.677  68.288  1.00  0.00    -0.186 OA 
BRANCH  10  11
HETATM   11  C   UNL     1     -11.108  12.112  68.141  1.00  0.00    -0.248 C  
BRANCH  11  12
HETATM   12  C   UNL     1     -11.193  13.127  67.007  1.00  0.00    -0.325 A  
HETATM   13  C   UNL     1     -10.126  13.976  66.685  1.00  0.00    -0.276 A  
HETATM   14  C   UNL     1     -12.377  13.217  66.254  1.00  0.00    -0.382 A  
HETATM   15  C   UNL     1     -10.222  14.860  65.609  1.00  0.00    -0.382 A  
HETATM   16  C   UNL     1     -12.470  14.101  65.178  1.00  0.00    -0.453 A  
HETATM   17  C   UNL     1     -11.389  14.914  64.850  1.00  0.00    -0.415 A  
ENDBRANCH  11  12
BRANCH  11  18
HETATM   18  C   UNL     1     -11.755  12.620  69.422  1.00  0.00    -0.387 A  
HETATM   19  C   UNL     1     -12.588  14.419  70.827  1.00  0.00    -0.426 A  
HETATM   20  C   UNL     1     -11.918  13.988  69.680  1.00  0.00    -0.393 A  
HETATM   21  C   UNL     1     -12.915  12.128  71.511  1.00  0.00    -0.398 A  
HETATM   22  C   UNL     1     -13.094  13.490  71.737  1.00  0.00    -0.475 A  
HETATM   23  C   UNL     1     -12.249  11.695  70.363  1.00  0.00    -0.434 A  
ENDBRANCH  11  18
ENDBRANCH  10  11
ENDBRANCH   7  10
TORSDOF 4
ENDMDL
MODEL       46
REMARK 921   NORMALIZED FREE ENERGY PREDICTED BY IDOCK:   -5.48 KCAL/MOL
REMARK 922        TOTAL FREE ENERGY PREDICTED BY IDOCK:   -8.17 KCAL/MOL
REMARK 923 INTER-LIGAND FREE ENERGY PREDICTED BY IDOCK:   -6.87 KCAL/MOL
REMARK 924 INTRA-LIGAND FREE ENERGY PREDICTED BY IDOCK:   -1.30 KCAL/MOL
REMARK 927      BINDING AFFINITY PREDICTED BY RF-SCORE:    0.00 PKD
ROOT
HETATM    1  C   UNL     1      -9.752   9.201  66.674  1.00  0.00    -0.223 C  
HETATM    2  C   UNL     1     -10.373   8.606  67.942  1.00  0.00    -0.286 C  
HETATM    3  C   UNL     1      -9.287   8.757  69.007  1.00  0.00    -0.145 C  
HETATM    4  C   UNL     1      -8.123   9.427  68.270  1.00  0.00    -0.109 C  
HETATM    5  N   UNL     1      -8.331   8.935  66.908  1.00  0.00    -0.111 NA 
HETATM    6  C   UNL     1      -8.216  10.954  68.375  1.00  0.00    -0.133 C  
HETATM    7  C   UNL     1      -9.391  11.601  67.607  1.00  0.00    -0.178 C  
HETATM    8  C   UNL     1      -7.418   9.456  65.904  1.00  0.00    -0.099 C  
HETATM    9  C   UNL     1     -10.050  10.701  66.537  1.00  0.00    -0.275 C  
ENDROOT
BRANCH   7  10
HETATM   10  O   UNL     1     -10.439  12.087  68.459  1.00  0.00    -0.218 OA 
BRANCH  10  11
HETATM   11  C   UNL     1     -10.693  13.503  68.420  1.00  0.00    -0.259 C  
BRANCH  11  12
HETATM   12  C   UNL     1     -11.625  13.879  69.566  1.00  0.00    -0.358 A  
HETATM   13  C   UNL     1     -12.164  12.920  70.433  1.00  0.00    -0.381 A  
HETATM   14  C   UNL     1     -11.957  15.230  69.765  1.00  0.00    -0.374 A  
HETATM   15  C   UNL     1     -12.976  13.305  71.501  1.00  0.00    -0.426 A  
HETATM   16  C   UNL     1     -12.767  15.614  70.834  1.00  0.00    -0.500 A  
HETATM   17  C   UNL     1     -13.268  14.652  71.707  1.00  0.00    -0.434 A  
ENDBRANCH  11  12
BRANCH  11  18
HETATM   18  C   UNL     1     -11.187  14.023  67.077  1.00  0.00    -0.325 A  
HETATM   19  C   UNL     1     -10.905  15.366  65.072  1.00  0.00    -0.462 A  
HETATM   20  C   UNL     1     -10.465  14.970  66.337  1.00  0.00    -0.296 A  
HETATM   21  C   UNL     1     -12.820  13.912  65.268  1.00  0.00    -0.437 A  
HETATM   22  C   UNL     1     -12.075  14.831  64.534  1.00  0.00    -0.460 A  
HETATM   23  C   UNL     1     -12.381  13.512  66.531  1.00  0.00    -0.382 A  
ENDBRANCH  11  18
ENDBRANCH  10  11
ENDBRANCH   7  10
TORSDOF 4
ENDMDL
MODEL       47
REMARK 921   NORMALIZED FREE ENERGY PREDICTED BY IDOCK:   -5.45 KCAL/MOL
REMARK 922        TOTAL FREE ENERGY PREDICTED BY IDOCK:   -8.13 KCAL/MOL
REMARK 923 INTER-LIGAND FREE ENERGY PREDICTED BY IDOCK:   -6.91 KCAL/MOL
REMARK 924 INTRA-LIGAND FREE ENERGY PREDICTED BY IDOCK:   -1.23 KCAL/MOL
REMARK 927      BINDING AFFINITY PREDICTED BY RF-SCORE:    0.00 PKD
ROOT
HETATM    1  C   UNL     1     -10.154   8.880  67.700  1.00  0.00    -0.218 C  
HETATM    2  C   UNL     1     -10.545   8.705  69.171  1.00  0.00    -0.193 C  
HETATM    3  C   UNL     1      -9.293   9.105  69.950  1.00  0.00    -0.198 C  
HETATM    4  C   UNL     1      -8.276   9.480  68.867  1.00  0.00    -0.116 C  
HETATM    5  N   UNL     1      -8.713   8.626  67.762  1.00  0.00    -0.136 NA 
HETATM    6  C   UNL     1      -8.355  10.975  68.537  1.00  0.00    -0.149 C  
HETATM    7  C   UNL     1      -9.648  11.427  67.818  1.00  0.00    -0.172 C  
HETATM    8  C   UNL     1      -7.989   8.794  66.513  1.00  0.00    -0.103 C  
HETATM    9  C   UNL     1     -10.478  10.289  67.183  1.00  0.00    -0.311 C  
ENDROOT
BRANCH   7  10
HETATM   10  O   UNL     1     -10.536  12.187  68.653  1.00  0.00    -0.228 OA 
BRANCH  10  11
HETATM   11  C   UNL     1     -10.544  13.611  68.452  1.00  0.00    -0.251 C  
BRANCH  11  12
HETATM   12  C   UNL     1     -11.296  14.277  69.599  1.00  0.00    -0.292 A  
HETATM   13  C   UNL     1     -10.928  15.531  70.104  1.00  0.00    -0.336 A  
HETATM   14  C   UNL     1     -12.396  13.616  70.173  1.00  0.00    -0.372 A  
HETATM   15  C   UNL     1     -11.668  16.131  71.123  1.00  0.00    -0.454 A  
HETATM   16  C   UNL     1     -13.136  14.218  71.192  1.00  0.00    -0.412 A  
HETATM   17  C   UNL     1     -12.777  15.479  71.659  1.00  0.00    -0.502 A  
ENDBRANCH  11  12
BRANCH  11  18
HETATM   18  C   UNL     1     -11.054  14.057  67.089  1.00  0.00    -0.313 A  
HETATM   19  C   UNL     1     -10.778  15.253  64.991  1.00  0.00    -0.461 A  
HETATM   20  C   UNL     1     -10.320  14.927  66.270  1.00  0.00    -0.302 A  
HETATM   21  C   UNL     1     -12.735  13.883  65.330  1.00  0.00    -0.525 A  
HETATM   22  C   UNL     1     -11.979  14.724  64.519  1.00  0.00    -0.451 A  
HETATM   23  C   UNL     1     -12.278  13.553  66.607  1.00  0.00    -0.411 A  
ENDBRANCH  11  18
ENDBRANCH  10  11
ENDBRANCH   7  10
TORSDOF 4
ENDMDL
MODEL       48
REMARK 921   NORMALIZED FREE ENERGY PREDICTED BY IDOCK:   -5.38 KCAL/MOL
REMARK 922        TOTAL FREE ENERGY PREDICTED BY IDOCK:   -8.05 KCAL/MOL
REMARK 923 INTER-LIGAND FREE ENERGY PREDICTED BY IDOCK:   -6.40 KCAL/MOL
REMARK 924 INTRA-LIGAND FREE ENERGY PREDICTED BY IDOCK:   -1.65 KCAL/MOL
REMARK 927      BINDING AFFINITY PREDICTED BY RF-SCORE:    0.00 PKD
ROOT
HETATM    1  C   UNL     1     -11.452  13.091  65.757  1.00  0.00    -0.332 C  
HETATM    2  C   UNL     1     -10.856  11.813  65.161  1.00  0.00    -0.351 C  
HETATM    3  C   UNL     1      -9.423  11.775  65.692  1.00  0.00    -0.209 C  
HETATM    4  C   UNL     1      -9.305  13.036  66.554  1.00  0.00    -0.217 C  
HETATM    5  N   UNL     1     -10.255  13.925  65.884  1.00  0.00    -0.306 NA 
HETATM    6  C   UNL     1      -9.684  12.741  68.010  1.00  0.00    -0.220 C  
HETATM    7  C   UNL     1     -11.177  12.424  68.254  1.00  0.00    -0.263 C  
HETATM    8  C   UNL     1     -10.453  15.222  66.511  1.00  0.00    -0.298 C  
HETATM    9  C   UNL     1     -12.131  12.833  67.109  1.00  0.00    -0.236 C  
ENDROOT
BRANCH   7  10
HETATM   10  O   UNL     1     -11.432  11.041  68.546  1.00  0.00    -0.263 OA 
BRANCH  10  11
HETATM   11  C   UNL     1     -10.387  10.326  69.229  1.00  0.00    -0.231 C  
BRANCH  11  12
HETATM   12  C   UNL     1      -9.694   9.388  68.248  1.00  0.00    -0.162 A  
HETATM   13  C   UNL     1     -10.411   8.537  67.398  1.00  0.00    -0.351 A  
HETATM   14  C   UNL     1      -8.290   9.374  68.188  1.00  0.00    -0.119 A  
HETATM   15  C   UNL     1      -9.745   7.726  66.478  1.00  0.00    -0.265 A  
HETATM   16  C   UNL     1      -7.625   8.564  67.266  1.00  0.00    -0.097 A  
HETATM   17  C   UNL     1      -8.354   7.748  66.405  1.00  0.00    -0.131 A  
ENDBRANCH  11  12
BRANCH  11  18
HETATM   18  C   UNL     1     -10.830   9.611  70.498  1.00  0.00    -0.371 A  
HETATM   19  C   UNL     1     -12.546   8.934  72.081  1.00  0.00    -0.467 A  
HETATM   20  C   UNL     1     -12.154   9.667  70.958  1.00  0.00    -0.421 A  
HETATM   21  C   UNL     1     -10.296   8.104  72.340  1.00  0.00    -0.382 A  
HETATM   22  C   UNL     1     -11.620   8.147  72.765  1.00  0.00    -0.371 A  
HETATM   23  C   UNL     1      -9.902   8.832  71.216  1.00  0.00    -0.336 A  
ENDBRANCH  11  18
ENDBRANCH  10  11
ENDBRANCH   7  10
TORSDOF 4
ENDMDL
MODEL       49
REMARK 921   NORMALIZED FREE ENERGY PREDICTED BY IDOCK:   -5.37 KCAL/MOL
REMARK 922        TOTAL FREE ENERGY PREDICTED BY IDOCK:   -8.03 KCAL/MOL
REMARK 923 INTER-LIGAND FREE ENERGY PREDICTED BY IDOCK:   -6.84 KCAL/MOL
REMARK 924 INTRA-LIGAND FREE ENERGY PREDICTED BY IDOCK:   -1.19 KCAL/MOL
REMARK 927      BINDING AFFINITY PREDICTED BY RF-SCORE:    0.00 PKD
ROOT
HETATM    1  C   UNL     1     -10.780  13.295  64.247  1.00  0.00    -0.387 C  
HETATM    2  C   UNL     1     -12.125  14.008  64.075  1.00  0.00    -0.413 C  
HETATM    3  C   UNL     1     -12.986  13.484  65.224  1.00  0.00    -0.290 C  
HETATM    4  C   UNL     1     -12.071  12.508  65.970  1.00  0.00    -0.321 C  
HETATM    5  N   UNL     1     -11.206  12.046  64.884  1.00  0.00    -0.320 NA 
HETATM    6  C   UNL     1     -11.300  13.225  67.085  1.00  0.00    -0.351 C  
HETATM    7  C   UNL     1     -10.234  14.238  66.608  1.00  0.00    -0.272 C  
HETATM    8  C   UNL     1     -10.137  11.140  65.271  1.00  0.00    -0.276 C  
HETATM    9  C   UNL     1      -9.812  14.099  65.127  1.00  0.00    -0.140 C  
ENDROOT
BRANCH   7  10
HETATM   10  O   UNL     1     -10.606  15.609  66.817  1.00  0.00    -0.301 OA 
BRANCH  10  11
HETATM   11  C   UNL     1      -9.925  16.304  67.877  1.00  0.00    -0.241 C  
BRANCH  11  12
HETATM   12  C   UNL     1      -9.959  17.802  67.599  1.00  0.00    -0.322 A  
HETATM   13  C   UNL     1      -9.623  18.749  68.575  1.00  0.00    -0.413 A  
HETATM   14  C   UNL     1     -10.338  18.255  66.323  1.00  0.00    -0.422 A  
HETATM   15  C   UNL     1      -9.620  20.111  68.271  1.00  0.00    -0.317 A  
HETATM   16  C   UNL     1     -10.333  19.617  66.020  1.00  0.00    -0.620 A  
HETATM   17  C   UNL     1      -9.964  20.543  66.992  1.00  0.00    -0.489 A  
ENDBRANCH  11  12
BRANCH  11  18
HETATM   18  C   UNL     1      -8.518  15.800  68.166  1.00  0.00    -0.162 A  
HETATM   19  C   UNL     1      -6.942  14.500  69.483  1.00  0.00    -0.147 A  
HETATM   20  C   UNL     1      -8.227  15.014  69.290  1.00  0.00    -0.165 A  
HETATM   21  C   UNL     1      -6.194  15.577  67.458  1.00  0.00    -0.141 A  
HETATM   22  C   UNL     1      -5.930  14.774  68.563  1.00  0.00    -0.096 A  
HETATM   23  C   UNL     1      -7.478  16.089  67.261  1.00  0.00    -0.236 A  
ENDBRANCH  11  18
ENDBRANCH  10  11
ENDBRANCH   7  10
TORSDOF 4
ENDMDL
MODEL       50
REMARK 921   NORMALIZED FREE ENERGY PREDICTED BY IDOCK:   -5.32 KCAL/MOL
REMARK 922        TOTAL FREE ENERGY PREDICTED BY IDOCK:   -7.97 KCAL/MOL
REMARK 923 INTER-LIGAND FREE ENERGY PREDICTED BY IDOCK:   -6.84 KCAL/MOL
REMARK 924 INTRA-LIGAND FREE ENERGY PREDICTED BY IDOCK:   -1.13 KCAL/MOL
REMARK 927      BINDING AFFINITY PREDICTED BY RF-SCORE:    0.00 PKD
ROOT
HETATM    1  C   UNL     1     -12.098  14.220  66.484  1.00  0.00    -0.429 C  
HETATM    2  C   UNL     1     -11.969  13.922  64.987  1.00  0.00    -0.403 C  
HETATM    3  C   UNL     1     -10.468  13.991  64.710  1.00  0.00    -0.445 C  
HETATM    4  C   UNL     1      -9.846  14.325  66.070  1.00  0.00    -0.314 C  
HETATM    5  N   UNL     1     -10.931  15.080  66.698  1.00  0.00    -0.323 NA 
HETATM    6  C   UNL     1      -9.486  13.046  66.835  1.00  0.00    -0.242 C  
HETATM    7  C   UNL     1     -10.687  12.203  67.321  1.00  0.00    -0.229 C  
HETATM    8  C   UNL     1     -10.697  15.494  68.072  1.00  0.00    -0.283 C  
HETATM    9  C   UNL     1     -12.045  12.941  67.331  1.00  0.00    -0.258 C  
ENDROOT
BRANCH   7  10
HETATM   10  O   UNL     1     -10.872  10.984  66.585  1.00  0.00    -0.261 OA 
BRANCH  10  11
HETATM   11  C   UNL     1      -9.852   9.980  66.740  1.00  0.00    -0.198 C  
BRANCH  11  12
HETATM   12  C   UNL     1      -9.280   9.630  65.371  1.00  0.00    -0.295 A  
HETATM   13  C   UNL     1      -8.305   8.638  65.203  1.00  0.00    -0.178 A  
HETATM   14  C   UNL     1      -9.742  10.320  64.237  1.00  0.00    -0.373 A  
HETATM   15  C   UNL     1      -7.838   8.311  63.929  1.00  0.00    -0.147 A  
HETATM   16  C   UNL     1      -9.275   9.991  62.964  1.00  0.00    -0.313 A  
HETATM   17  C   UNL     1      -8.331   8.979  62.810  1.00  0.00    -0.202 A  
ENDBRANCH  11  12
BRANCH  11  18
HETATM   18  C   UNL     1     -10.287   8.747  67.519  1.00  0.00    -0.334 A  
HETATM   19  C   UNL     1     -11.017   6.432  67.621  1.00  0.00    -0.441 A  
HETATM   20  C   UNL     1     -10.702   7.572  66.878  1.00  0.00    -0.299 A  
HETATM   21  C   UNL     1     -10.553   7.622  69.667  1.00  0.00    -0.243 A  
HETATM   22  C   UNL     1     -10.935   6.454  69.013  1.00  0.00    -0.410 A  
HETATM   23  C   UNL     1     -10.234   8.762  68.927  1.00  0.00    -0.221 A  
ENDBRANCH  11  18
ENDBRANCH  10  11
ENDBRANCH   7  10
TORSDOF 4
ENDMDL
MODEL       51
REMARK 921   NORMALIZED FREE ENERGY PREDICTED BY IDOCK:   -5.31 KCAL/MOL
REMARK 922        TOTAL FREE ENERGY PREDICTED BY IDOCK:   -7.97 KCAL/MOL
REMARK 923 INTER-LIGAND FREE ENERGY PREDICTED BY IDOCK:   -7.72 KCAL/MOL
REMARK 924 INTRA-LIGAND FREE ENERGY PREDICTED BY IDOCK:   -0.24 KCAL/MOL
REMARK 927      BINDING AFFINITY PREDICTED BY RF-SCORE:    0.00 PKD
ROOT
HETATM    1  C   UNL     1     -10.407  13.577  64.862  1.00  0.00    -0.377 C  
HETATM    2  C   UNL     1     -11.851  13.752  64.383  1.00  0.00    -0.458 C  
HETATM    3  C   UNL     1     -12.640  12.690  65.148  1.00  0.00    -0.459 C  
HETATM    4  C   UNL     1     -11.588  11.983  66.009  1.00  0.00    -0.305 C  
HETATM    5  N   UNL     1     -10.391  12.148  65.184  1.00  0.00    -0.271 NA 
HETATM    6  C   UNL     1     -11.466  12.654  67.383  1.00  0.00    -0.397 C  
HETATM    7  C   UNL     1     -10.854  14.073  67.375  1.00  0.00    -0.282 C  
HETATM    8  C   UNL     1      -9.155  11.645  65.761  1.00  0.00    -0.120 C  
HETATM    9  C   UNL     1     -10.096  14.454  66.083  1.00  0.00    -0.323 C  
ENDROOT
BRANCH   7  10
HETATM   10  O   UNL     1     -11.811  15.115  67.628  1.00  0.00    -0.294 OA 
BRANCH  10  11
HETATM   11  C   UNL     1     -11.545  15.969  68.755  1.00  0.00    -0.351 C  
BRANCH  11  12
HETATM   12  C   UNL     1     -10.083  16.399  68.727  1.00  0.00    -0.247 A  
HETATM   13  C   UNL     1      -9.656  17.548  68.049  1.00  0.00    -0.282 A  
HETATM   14  C   UNL     1      -9.126  15.620  69.401  1.00  0.00    -0.278 A  
HETATM   15  C   UNL     1      -8.316  17.937  68.084  1.00  0.00    -0.267 A  
HETATM   16  C   UNL     1      -7.787  16.010  69.436  1.00  0.00    -0.167 A  
HETATM   17  C   UNL     1      -7.385  17.174  68.786  1.00  0.00    -0.241 A  
ENDBRANCH  11  12
BRANCH  11  18
HETATM   18  C   UNL     1     -11.953  15.390  70.102  1.00  0.00    -0.378 A  
HETATM   19  C   UNL     1     -12.401  15.621  72.479  1.00  0.00    -0.528 A  
HETATM   20  C   UNL     1     -11.944  16.160  71.274  1.00  0.00    -0.402 A  
HETATM   21  C   UNL     1     -12.850  13.519  71.384  1.00  0.00    -0.440 A  
HETATM   22  C   UNL     1     -12.862  14.305  72.532  1.00  0.00    -0.444 A  
HETATM   23  C   UNL     1     -12.396  14.055  70.178  1.00  0.00    -0.409 A  
ENDBRANCH  11  18
ENDBRANCH  10  11
ENDBRANCH   7  10
TORSDOF 4
ENDMDL
MODEL       52
REMARK 921   NORMALIZED FREE ENERGY PREDICTED BY IDOCK:   -5.30 KCAL/MOL
REMARK 922        TOTAL FREE ENERGY PREDICTED BY IDOCK:   -7.95 KCAL/MOL
REMARK 923 INTER-LIGAND FREE ENERGY PREDICTED BY IDOCK:   -6.79 KCAL/MOL
REMARK 924 INTRA-LIGAND FREE ENERGY PREDICTED BY IDOCK:   -1.16 KCAL/MOL
REMARK 927      BINDING AFFINITY PREDICTED BY RF-SCORE:    0.00 PKD
ROOT
HETATM    1  C   UNL     1      -8.030  10.311  66.556  1.00  0.00    -0.118 C  
HETATM    2  C   UNL     1      -8.884  11.467  66.025  1.00  0.00    -0.177 C  
HETATM    3  C   UNL     1     -10.171  10.801  65.539  1.00  0.00    -0.330 C  
HETATM    4  C   UNL     1      -9.959   9.311  65.826  1.00  0.00    -0.145 C  
HETATM    5  N   UNL     1      -8.504   9.207  65.717  1.00  0.00    -0.134 NA 
HETATM    6  C   UNL     1     -10.483   8.943  67.219  1.00  0.00    -0.348 C  
HETATM    7  C   UNL     1      -9.684   9.531  68.404  1.00  0.00    -0.154 C  
HETATM    8  C   UNL     1      -7.942   7.900  66.018  1.00  0.00    -0.103 C  
HETATM    9  C   UNL     1      -8.273  10.055  68.050  1.00  0.00    -0.116 C  
ENDROOT
BRANCH   7  10
HETATM   10  O   UNL     1     -10.369  10.589  69.094  1.00  0.00    -0.197 OA 
BRANCH  10  11
HETATM   11  C   UNL     1     -11.517  10.208  69.874  1.00  0.00    -0.254 C  
BRANCH  11  12
HETATM   12  C   UNL     1     -12.140  11.454  70.492  1.00  0.00    -0.487 A  
HETATM   13  C   UNL     1     -12.981  11.391  71.611  1.00  0.00    -0.523 A  
HETATM   14  C   UNL     1     -11.866  12.711  69.925  1.00  0.00    -0.364 A  
HETATM   15  C   UNL     1     -13.496  12.557  72.178  1.00  0.00    -0.523 A  
HETATM   16  C   UNL     1     -12.381  13.877  70.495  1.00  0.00    -0.439 A  
HETATM   17  C   UNL     1     -13.187  13.799  71.628  1.00  0.00    -0.450 A  
ENDBRANCH  11  12
BRANCH  11  18
HETATM   18  C   UNL     1     -11.252   9.121  70.905  1.00  0.00    -0.359 A  
HETATM   19  C   UNL     1      -9.985   8.202  72.764  1.00  0.00    -0.361 A  
HETATM   20  C   UNL     1     -10.155   9.175  71.776  1.00  0.00    -0.279 A  
HETATM   21  C   UNL     1     -11.980   7.073  72.013  1.00  0.00    -0.334 A  
HETATM   22  C   UNL     1     -10.902   7.158  72.888  1.00  0.00    -0.362 A  
HETATM   23  C   UNL     1     -12.153   8.045  71.026  1.00  0.00    -0.232 A  
ENDBRANCH  11  18
ENDBRANCH  10  11
ENDBRANCH   7  10
TORSDOF 4
ENDMDL
MODEL       53
REMARK 921   NORMALIZED FREE ENERGY PREDICTED BY IDOCK:   -5.28 KCAL/MOL
REMARK 922        TOTAL FREE ENERGY PREDICTED BY IDOCK:   -7.93 KCAL/MOL
REMARK 923 INTER-LIGAND FREE ENERGY PREDICTED BY IDOCK:   -6.65 KCAL/MOL
REMARK 924 INTRA-LIGAND FREE ENERGY PREDICTED BY IDOCK:   -1.28 KCAL/MOL
REMARK 927      BINDING AFFINITY PREDICTED BY RF-SCORE:    0.00 PKD
ROOT
HETATM    1  C   UNL     1     -12.181  14.102  72.668  1.00  0.00     0.168 C  
HETATM    2  C   UNL     1     -12.848  12.807  72.196  1.00  0.00    -0.219 C  
HETATM    3  C   UNL     1     -14.274  13.220  71.832  1.00  0.00     0.082 C  
HETATM    4  C   UNL     1     -14.319  14.723  72.125  1.00  0.00    -0.501 C  
HETATM    5  N   UNL     1     -13.334  14.831  73.202  1.00  0.00    -0.557 NA 
HETATM    6  C   UNL     1     -13.936  15.534  70.881  1.00  0.00    -0.019 C  
HETATM    7  C   UNL     1     -12.458  15.419  70.444  1.00  0.00    -0.404 C  
HETATM    8  C   UNL     1     -13.065  16.178  73.676  1.00  0.00    -0.446 C  
HETATM    9  C   UNL     1     -11.499  14.852  71.515  1.00  0.00    -0.307 C  
ENDROOT
BRANCH   7  10
HETATM   10  O   UNL     1     -12.268  14.644  69.250  1.00  0.00    -0.288 OA 
BRANCH  10  11
HETATM   11  C   UNL     1     -11.729  15.341  68.112  1.00  0.00    -0.279 C  
BRANCH  11  12
HETATM   12  C   UNL     1     -11.665  14.389  66.924  1.00  0.00    -0.422 A  
HETATM   13  C   UNL     1     -11.637  14.848  65.601  1.00  0.00    -0.245 A  
HETATM   14  C   UNL     1     -11.632  13.003  67.156  1.00  0.00    -0.411 A  
HETATM   15  C   UNL     1     -11.531  13.949  64.539  1.00  0.00    -0.393 A  
HETATM   16  C   UNL     1     -11.523  12.105  66.094  1.00  0.00    -0.429 A  
HETATM   17  C   UNL     1     -11.463  12.580  64.786  1.00  0.00    -0.369 A  
ENDBRANCH  11  12
BRANCH  11  18
HETATM   18  C   UNL     1     -10.402  16.041  68.366  1.00  0.00    -0.251 A  
HETATM   19  C   UNL     1      -8.007  15.997  68.777  1.00  0.00    -0.196 A  
HETATM   20  C   UNL     1      -9.224  15.328  68.629  1.00  0.00    -0.201 A  
HETATM   21  C   UNL     1      -9.117  18.113  68.445  1.00  0.00    -0.318 A  
HETATM   22  C   UNL     1      -7.952  17.387  68.676  1.00  0.00    -0.271 A  
HETATM   23  C   UNL     1     -10.334  17.446  68.293  1.00  0.00    -0.374 A  
ENDBRANCH  11  18
ENDBRANCH  10  11
ENDBRANCH   7  10
TORSDOF 4
ENDMDL
MODEL       54
REMARK 921   NORMALIZED FREE ENERGY PREDICTED BY IDOCK:   -5.24 KCAL/MOL
REMARK 922        TOTAL FREE ENERGY PREDICTED BY IDOCK:   -7.87 KCAL/MOL
REMARK 923 INTER-LIGAND FREE ENERGY PREDICTED BY IDOCK:   -6.75 KCAL/MOL
REMARK 924 INTRA-LIGAND FREE ENERGY PREDICTED BY IDOCK:   -1.13 KCAL/MOL
REMARK 927      BINDING AFFINITY PREDICTED BY RF-SCORE:    0.00 PKD
ROOT
HETATM    1  C   UNL     1     -10.026   6.778  71.168  1.00  0.00    -0.181 C  
HETATM    2  C   UNL     1     -11.356   6.226  70.647  1.00  0.00    -0.409 C  
HETATM    3  C   UNL     1     -12.419   7.109  71.299  1.00  0.00    -0.425 C  
HETATM    4  C   UNL     1     -11.619   8.103  72.147  1.00  0.00    -0.357 C  
HETATM    5  N   UNL     1     -10.435   7.307  72.472  1.00  0.00    -0.222 NA 
HETATM    6  C   UNL     1     -11.290   9.366  71.344  1.00  0.00    -0.451 C  
HETATM    7  C   UNL     1     -10.282   9.172  70.188  1.00  0.00    -0.205 C  
HETATM    8  C   UNL     1      -9.400   7.996  73.226  1.00  0.00    -0.275 C  
HETATM    9  C   UNL     1      -9.456   7.868  70.249  1.00  0.00    -0.163 C  
ENDROOT
BRANCH   7  10
HETATM   10  O   UNL     1     -10.881   9.236  68.884  1.00  0.00    -0.194 OA 
BRANCH  10  11
HETATM   11  C   UNL     1      -9.980   9.208  67.762  1.00  0.00    -0.189 C  
BRANCH  11  12
HETATM   12  C   UNL     1     -10.408  10.262  66.748  1.00  0.00    -0.288 A  
HETATM   13  C   UNL     1     -10.032  10.195  65.400  1.00  0.00    -0.377 A  
HETATM   14  C   UNL     1     -11.206  11.339  67.173  1.00  0.00    -0.344 A  
HETATM   15  C   UNL     1     -10.481  11.153  64.490  1.00  0.00    -0.415 A  
HETATM   16  C   UNL     1     -11.655  12.295  66.261  1.00  0.00    -0.446 A  
HETATM   17  C   UNL     1     -11.301  12.195  64.918  1.00  0.00    -0.378 A  
ENDBRANCH  11  12
BRANCH  11  18
HETATM   18  C   UNL     1      -9.797   7.836  67.129  1.00  0.00    -0.270 A  
HETATM   19  C   UNL     1      -8.399   6.100  66.158  1.00  0.00    -0.128 A  
HETATM   20  C   UNL     1      -8.551   7.395  66.660  1.00  0.00    -0.128 A  
HETATM   21  C   UNL     1     -10.741   5.664  66.542  1.00  0.00    -0.296 A  
HETATM   22  C   UNL     1      -9.490   5.233  66.108  1.00  0.00    -0.170 A  
HETATM   23  C   UNL     1     -10.894   6.957  67.047  1.00  0.00    -0.436 A  
ENDBRANCH  11  18
ENDBRANCH  10  11
ENDBRANCH   7  10
TORSDOF 4
ENDMDL
MODEL       55
REMARK 921   NORMALIZED FREE ENERGY PREDICTED BY IDOCK:   -5.24 KCAL/MOL
REMARK 922        TOTAL FREE ENERGY PREDICTED BY IDOCK:   -7.87 KCAL/MOL
REMARK 923 INTER-LIGAND FREE ENERGY PREDICTED BY IDOCK:   -6.65 KCAL/MOL
REMARK 924 INTRA-LIGAND FREE ENERGY PREDICTED BY IDOCK:   -1.22 KCAL/MOL
REMARK 927      BINDING AFFINITY PREDICTED BY RF-SCORE:    0.00 PKD
ROOT
HETATM    1  C   UNL     1      -7.463  16.707  69.195  1.00  0.00    -0.207 C  
HETATM    2  C   UNL     1      -7.886  17.485  67.945  1.00  0.00    -0.218 C  
HETATM    3  C   UNL     1      -7.034  16.895  66.821  1.00  0.00    -0.270 C  
HETATM    4  C   UNL     1      -6.185  15.823  67.511  1.00  0.00    -0.143 C  
HETATM    5  N   UNL     1      -6.075  16.375  68.861  1.00  0.00    -0.136 NA 
HETATM    6  C   UNL     1      -6.890  14.462  67.476  1.00  0.00    -0.162 C  
HETATM    7  C   UNL     1      -8.164  14.353  68.344  1.00  0.00    -0.145 C  
HETATM    8  C   UNL     1      -5.376  15.544  69.827  1.00  0.00    -0.104 C  
HETATM    9  C   UNL     1      -8.326  15.457  69.414  1.00  0.00    -0.250 C  
ENDROOT
BRANCH   7  10
HETATM   10  O   UNL     1      -9.381  14.319  67.581  1.00  0.00    -0.192 OA 
BRANCH  10  11
HETATM   11  C   UNL     1      -9.983  13.026  67.390  1.00  0.00    -0.228 C  
BRANCH  11  12
HETATM   12  C   UNL     1     -10.731  13.011  66.063  1.00  0.00    -0.290 A  
HETATM   13  C   UNL     1     -10.645  11.934  65.170  1.00  0.00    -0.333 A  
HETATM   14  C   UNL     1     -11.537  14.109  65.717  1.00  0.00    -0.343 A  
HETATM   15  C   UNL     1     -11.382  11.934  63.985  1.00  0.00    -0.475 A  
HETATM   16  C   UNL     1     -12.275  14.107  64.533  1.00  0.00    -0.468 A  
HETATM   17  C   UNL     1     -12.204  13.014  63.673  1.00  0.00    -0.568 A  
ENDBRANCH  11  12
BRANCH  11  18
HETATM   18  C   UNL     1     -10.847  12.551  68.549  1.00  0.00    -0.271 A  
HETATM   19  C   UNL     1     -11.659  10.807  70.034  1.00  0.00    -0.417 A  
HETATM   20  C   UNL     1     -10.920  11.199  68.916  1.00  0.00    -0.276 A  
HETATM   21  C   UNL     1     -12.307  13.097  70.425  1.00  0.00    -0.351 A  
HETATM   22  C   UNL     1     -12.344  11.755  70.793  1.00  0.00    -0.433 A  
HETATM   23  C   UNL     1     -11.566  13.493  69.310  1.00  0.00    -0.369 A  
ENDBRANCH  11  18
ENDBRANCH  10  11
ENDBRANCH   7  10
TORSDOF 4
ENDMDL
MODEL       56
REMARK 921   NORMALIZED FREE ENERGY PREDICTED BY IDOCK:   -5.23 KCAL/MOL
REMARK 922        TOTAL FREE ENERGY PREDICTED BY IDOCK:   -7.86 KCAL/MOL
REMARK 923 INTER-LIGAND FREE ENERGY PREDICTED BY IDOCK:   -6.30 KCAL/MOL
REMARK 924 INTRA-LIGAND FREE ENERGY PREDICTED BY IDOCK:   -1.56 KCAL/MOL
REMARK 927      BINDING AFFINITY PREDICTED BY RF-SCORE:    0.00 PKD
ROOT
HETATM    1  C   UNL     1      -9.948  16.411  69.422  1.00  0.00    -0.214 C  
HETATM    2  C   UNL     1     -10.906  15.572  70.273  1.00  0.00    -0.358 C  
HETATM    3  C   UNL     1     -12.002  15.137  69.300  1.00  0.00    -0.322 C  
HETATM    4  C   UNL     1     -11.591  15.761  67.962  1.00  0.00    -0.210 C  
HETATM    5  N   UNL     1     -10.866  16.949  68.415  1.00  0.00    -0.362 NA 
HETATM    6  C   UNL     1     -10.713  14.796  67.157  1.00  0.00    -0.299 C  
HETATM    7  C   UNL     1      -9.306  14.534  67.741  1.00  0.00    -0.198 C  
HETATM    8  C   UNL     1     -10.255  17.751  67.369  1.00  0.00    -0.353 C  
HETATM    9  C   UNL     1      -8.834  15.557  68.799  1.00  0.00    -0.203 C  
ENDROOT
BRANCH   7  10
HETATM   10  O   UNL     1      -9.155  13.227  68.317  1.00  0.00    -0.196 OA 
BRANCH  10  11
HETATM   11  C   UNL     1      -9.994  12.188  67.780  1.00  0.00    -0.198 C  
BRANCH  11  12
HETATM   12  C   UNL     1     -10.569  11.364  68.925  1.00  0.00    -0.234 A  
HETATM   13  C   UNL     1     -11.895  11.508  69.355  1.00  0.00    -0.417 A  
HETATM   14  C   UNL     1      -9.749  10.426  69.575  1.00  0.00    -0.196 A  
HETATM   15  C   UNL     1     -12.402  10.703  70.376  1.00  0.00    -0.428 A  
HETATM   16  C   UNL     1     -10.258   9.620  70.595  1.00  0.00    -0.346 A  
HETATM   17  C   UNL     1     -11.587   9.753  70.987  1.00  0.00    -0.455 A  
ENDBRANCH  11  12
BRANCH  11  18
HETATM   18  C   UNL     1      -9.330  11.322  66.719  1.00  0.00    -0.191 A  
HETATM   19  C   UNL     1      -9.437   9.871  64.772  1.00  0.00    -0.356 A  
HETATM   20  C   UNL     1     -10.077  10.592  65.783  1.00  0.00    -0.327 A  
HETATM   21  C   UNL     1      -7.288  10.555  65.627  1.00  0.00    -0.126 A  
HETATM   22  C   UNL     1      -8.045   9.860  64.689  1.00  0.00    -0.152 A  
HETATM   23  C   UNL     1      -7.925  11.279  66.636  1.00  0.00    -0.159 A  
ENDBRANCH  11  18
ENDBRANCH  10  11
ENDBRANCH   7  10
TORSDOF 4
ENDMDL
MODEL       57
REMARK 921   NORMALIZED FREE ENERGY PREDICTED BY IDOCK:   -5.20 KCAL/MOL
REMARK 922        TOTAL FREE ENERGY PREDICTED BY IDOCK:   -7.82 KCAL/MOL
REMARK 923 INTER-LIGAND FREE ENERGY PREDICTED BY IDOCK:   -6.68 KCAL/MOL
REMARK 924 INTRA-LIGAND FREE ENERGY PREDICTED BY IDOCK:   -1.14 KCAL/MOL
REMARK 927      BINDING AFFINITY PREDICTED BY RF-SCORE:    0.00 PKD
ROOT
HETATM    1  C   UNL     1      -9.096  10.202  68.090  1.00  0.00    -0.128 C  
HETATM    2  C   UNL     1      -7.836  11.040  68.328  1.00  0.00    -0.121 C  
HETATM    3  C   UNL     1      -7.833  12.058  67.188  1.00  0.00    -0.168 C  
HETATM    4  C   UNL     1      -9.092  11.727  66.380  1.00  0.00    -0.213 C  
HETATM    5  N   UNL     1      -9.221  10.292  66.633  1.00  0.00    -0.153 NA 
HETATM    6  C   UNL     1     -10.293  12.535  66.885  1.00  0.00    -0.242 C  
HETATM    7  C   UNL     1     -10.804  12.152  68.293  1.00  0.00    -0.223 C  
HETATM    8  C   UNL     1     -10.395   9.654  66.061  1.00  0.00    -0.090 C  
HETATM    9  C   UNL     1     -10.318  10.782  68.818  1.00  0.00    -0.209 C  
ENDROOT
BRANCH   7  10
HETATM   10  O   UNL     1     -10.498  13.127  69.303  1.00  0.00     0.016 OA 
BRANCH  10  11
HETATM   11  C   UNL     1     -11.304  14.319  69.308  1.00  0.00    -0.283 C  
BRANCH  11  12
HETATM   12  C   UNL     1     -10.463  15.495  68.826  1.00  0.00    -0.234 A  
HETATM   13  C   UNL     1     -11.012  16.549  68.084  1.00  0.00    -0.336 A  
HETATM   14  C   UNL     1      -9.092  15.530  69.134  1.00  0.00    -0.248 A  
HETATM   15  C   UNL     1     -10.222  17.634  67.700  1.00  0.00    -0.351 A  
HETATM   16  C   UNL     1      -8.304  16.616  68.750  1.00  0.00    -0.252 A  
HETATM   17  C   UNL     1      -8.872  17.672  68.042  1.00  0.00    -0.257 A  
ENDBRANCH  11  12
BRANCH  11  18
HETATM   18  C   UNL     1     -12.002  14.608  70.629  1.00  0.00    -0.380 A  
HETATM   19  C   UNL     1     -13.435  13.949  72.478  1.00  0.00    -0.676 A  
HETATM   20  C   UNL     1     -12.874  13.686  71.225  1.00  0.00    -0.424 A  
HETATM   21  C   UNL     1     -12.302  16.077  72.554  1.00  0.00    -0.584 A  
HETATM   22  C   UNL     1     -13.142  15.138  73.145  1.00  0.00    -0.625 A  
HETATM   23  C   UNL     1     -11.737  15.816  71.304  1.00  0.00    -0.496 A  
ENDBRANCH  11  18
ENDBRANCH  10  11
ENDBRANCH   7  10
TORSDOF 4
ENDMDL
MODEL       58
REMARK 921   NORMALIZED FREE ENERGY PREDICTED BY IDOCK:   -5.17 KCAL/MOL
REMARK 922        TOTAL FREE ENERGY PREDICTED BY IDOCK:   -7.79 KCAL/MOL
REMARK 923 INTER-LIGAND FREE ENERGY PREDICTED BY IDOCK:   -6.08 KCAL/MOL
REMARK 924 INTRA-LIGAND FREE ENERGY PREDICTED BY IDOCK:   -1.71 KCAL/MOL
REMARK 927      BINDING AFFINITY PREDICTED BY RF-SCORE:    0.00 PKD
ROOT
HETATM    1  C   UNL     1      -9.910   9.116  71.030  1.00  0.00    -0.296 C  
HETATM    2  C   UNL     1      -8.463   9.364  70.593  1.00  0.00    -0.239 C  
HETATM    3  C   UNL     1      -8.266   8.452  69.383  1.00  0.00    -0.116 C  
HETATM    4  C   UNL     1      -9.616   7.746  69.216  1.00  0.00    -0.159 C  
HETATM    5  N   UNL     1     -10.098   7.728  70.598  1.00  0.00    -0.191 NA 
HETATM    6  C   UNL     1     -10.532   8.534  68.272  1.00  0.00    -0.222 C  
HETATM    7  C   UNL     1     -11.036   9.890  68.818  1.00  0.00    -0.179 C  
HETATM    8  C   UNL     1     -11.430   7.182  70.793  1.00  0.00    -0.305 C  
HETATM    9  C   UNL     1     -10.891  10.078  70.345  1.00  0.00    -0.380 C  
ENDROOT
BRANCH   7  10
HETATM   10  O   UNL     1     -10.424  11.028  68.189  1.00  0.00    -0.175 OA 
BRANCH  10  11
HETATM   11  C   UNL     1      -9.886  10.820  66.871  1.00  0.00    -0.187 C  
BRANCH  11  12
HETATM   12  C   UNL     1      -8.414  11.214  66.861  1.00  0.00    -0.147 A  
HETATM   13  C   UNL     1      -7.956  12.403  67.444  1.00  0.00    -0.178 A  
HETATM   14  C   UNL     1      -7.479  10.360  66.250  1.00  0.00    -0.127 A  
HETATM   15  C   UNL     1      -6.595  12.709  67.458  1.00  0.00    -0.156 A  
HETATM   16  C   UNL     1      -6.118  10.666  66.267  1.00  0.00    -0.111 A  
HETATM   17  C   UNL     1      -5.676  11.836  66.880  1.00  0.00    -0.142 A  
ENDBRANCH  11  12
BRANCH  11  18
HETATM   18  C   UNL     1     -10.672  11.488  65.751  1.00  0.00    -0.325 A  
HETATM   19  C   UNL     1     -11.275  11.721  63.409  1.00  0.00    -0.440 A  
HETATM   20  C   UNL     1     -10.480  11.148  64.405  1.00  0.00    -0.418 A  
HETATM   21  C   UNL     1     -12.445  13.019  65.071  1.00  0.00    -0.534 A  
HETATM   22  C   UNL     1     -12.262  12.648  63.742  1.00  0.00    -0.600 A  
HETATM   23  C   UNL     1     -11.655  12.445  66.069  1.00  0.00    -0.455 A  
ENDBRANCH  11  18
ENDBRANCH  10  11
ENDBRANCH   7  10
TORSDOF 4
ENDMDL
MODEL       59
REMARK 921   NORMALIZED FREE ENERGY PREDICTED BY IDOCK:   -5.16 KCAL/MOL
REMARK 922        TOTAL FREE ENERGY PREDICTED BY IDOCK:   -7.78 KCAL/MOL
REMARK 923 INTER-LIGAND FREE ENERGY PREDICTED BY IDOCK:   -6.47 KCAL/MOL
REMARK 924 INTRA-LIGAND FREE ENERGY PREDICTED BY IDOCK:   -1.30 KCAL/MOL
REMARK 927      BINDING AFFINITY PREDICTED BY RF-SCORE:    0.00 PKD
ROOT
HETATM    1  C   UNL     1      -9.878  14.553  66.757  1.00  0.00    -0.265 C  
HETATM    2  C   UNL     1     -10.426  15.077  68.089  1.00  0.00    -0.245 C  
HETATM    3  C   UNL     1     -11.887  14.629  68.105  1.00  0.00    -0.332 C  
HETATM    4  C   UNL     1     -12.069  13.881  66.780  1.00  0.00    -0.439 C  
HETATM    5  N   UNL     1     -11.090  14.564  65.934  1.00  0.00    -0.321 NA 
HETATM    6  C   UNL     1     -11.775  12.386  66.951  1.00  0.00    -0.432 C  
HETATM    7  C   UNL     1     -10.296  12.030  67.226  1.00  0.00    -0.212 C  
HETATM    8  C   UNL     1     -10.942  14.034  64.588  1.00  0.00    -0.392 C  
HETATM    9  C   UNL     1      -9.279  13.146  66.896  1.00  0.00    -0.236 C  
ENDROOT
BRANCH   7  10
HETATM   10  O   UNL     1     -10.045  11.612  68.577  1.00  0.00    -0.200 OA 
BRANCH  10  11
HETATM   11  C   UNL     1     -10.240  10.215  68.863  1.00  0.00    -0.199 C  
BRANCH  11  12
HETATM   12  C   UNL     1     -11.236  10.071  70.007  1.00  0.00    -0.345 A  
HETATM   13  C   UNL     1     -11.433   8.855  70.675  1.00  0.00    -0.280 A  
HETATM   14  C   UNL     1     -11.983  11.190  70.412  1.00  0.00    -0.469 A  
HETATM   15  C   UNL     1     -12.320   8.771  71.749  1.00  0.00    -0.412 A  
HETATM   16  C   UNL     1     -12.868  11.105  71.488  1.00  0.00    -0.542 A  
HETATM   17  C   UNL     1     -13.028   9.898  72.162  1.00  0.00    -0.471 A  
ENDBRANCH  11  12
BRANCH  11  18
HETATM   18  C   UNL     1      -8.958   9.432  69.108  1.00  0.00    -0.147 A  
HETATM   19  C   UNL     1      -7.426   7.621  68.578  1.00  0.00    -0.104 A  
HETATM   20  C   UNL     1      -8.648   8.271  68.386  1.00  0.00    -0.133 A  
HETATM   21  C   UNL     1      -6.809   9.249  70.247  1.00  0.00    -0.071 A  
HETATM   22  C   UNL     1      -6.504   8.115  69.501  1.00  0.00    -0.034 A  
HETATM   23  C   UNL     1      -8.027   9.902  70.055  1.00  0.00    -0.194 A  
ENDBRANCH  11  18
ENDBRANCH  10  11
ENDBRANCH   7  10
TORSDOF 4
ENDMDL
MODEL       60
REMARK 921   NORMALIZED FREE ENERGY PREDICTED BY IDOCK:   -5.13 KCAL/MOL
REMARK 922        TOTAL FREE ENERGY PREDICTED BY IDOCK:   -7.74 KCAL/MOL
REMARK 923 INTER-LIGAND FREE ENERGY PREDICTED BY IDOCK:   -6.36 KCAL/MOL
REMARK 924 INTRA-LIGAND FREE ENERGY PREDICTED BY IDOCK:   -1.38 KCAL/MOL
REMARK 927      BINDING AFFINITY PREDICTED BY RF-SCORE:    0.00 PKD
ROOT
HETATM    1  C   UNL     1     -10.988   6.268  67.758  1.00  0.00    -0.332 C  
HETATM    2  C   UNL     1     -11.367   6.245  69.242  1.00  0.00    -0.411 C  
HETATM    3  C   UNL     1     -10.074   5.862  69.962  1.00  0.00    -0.258 C  
HETATM    4  C   UNL     1      -9.049   5.694  68.836  1.00  0.00    -0.115 C  
HETATM    5  N   UNL     1      -9.910   5.276  67.729  1.00  0.00    -0.143 NA 
HETATM    6  C   UNL     1      -8.318   7.013  68.560  1.00  0.00    -0.121 C  
HETATM    7  C   UNL     1      -9.182   8.130  67.932  1.00  0.00    -0.131 C  
HETATM    8  C   UNL     1      -9.249   5.101  66.447  1.00  0.00    -0.141 C  
HETATM    9  C   UNL     1     -10.514   7.658  67.308  1.00  0.00    -0.396 C  
ENDROOT
BRANCH   7  10
HETATM   10  O   UNL     1      -9.493   9.198  68.841  1.00  0.00    -0.149 OA 
BRANCH  10  11
HETATM   11  C   UNL     1     -10.685   9.953  68.560  1.00  0.00    -0.226 C  
BRANCH  11  12
HETATM   12  C   UNL     1     -10.332  11.133  67.661  1.00  0.00    -0.223 A  
HETATM   13  C   UNL     1     -11.136  11.512  66.579  1.00  0.00    -0.341 A  
HETATM   14  C   UNL     1      -9.163  11.868  67.923  1.00  0.00    -0.187 A  
HETATM   15  C   UNL     1     -10.807  12.626  65.806  1.00  0.00    -0.304 A  
HETATM   16  C   UNL     1      -8.836  12.984  67.150  1.00  0.00    -0.218 A  
HETATM   17  C   UNL     1      -9.664  13.367  66.099  1.00  0.00    -0.260 A  
ENDBRANCH  11  12
BRANCH  11  18
HETATM   18  C   UNL     1     -11.474  10.378  69.790  1.00  0.00    -0.348 A  
HETATM   19  C   UNL     1     -12.666  12.048  71.093  1.00  0.00    -0.365 A  
HETATM   20  C   UNL     1     -11.874  11.706  69.994  1.00  0.00    -0.435 A  
HETATM   21  C   UNL     1     -12.646   9.753  71.836  1.00  0.00    -0.479 A  
HETATM   22  C   UNL     1     -13.059  11.071  72.007  1.00  0.00    -0.449 A  
HETATM   23  C   UNL     1     -11.857   9.408  70.737  1.00  0.00    -0.323 A  
ENDBRANCH  11  18
ENDBRANCH  10  11
ENDBRANCH   7  10
TORSDOF 4
ENDMDL
MODEL       61
REMARK 921   NORMALIZED FREE ENERGY PREDICTED BY IDOCK:   -5.12 KCAL/MOL
REMARK 922        TOTAL FREE ENERGY PREDICTED BY IDOCK:   -7.73 KCAL/MOL
REMARK 923 INTER-LIGAND FREE ENERGY PREDICTED BY IDOCK:   -6.29 KCAL/MOL
REMARK 924 INTRA-LIGAND FREE ENERGY PREDICTED BY IDOCK:   -1.44 KCAL/MOL
REMARK 927      BINDING AFFINITY PREDICTED BY RF-SCORE:    0.00 PKD
ROOT
HETATM    1  C   UNL     1      -9.573  12.922  66.085  1.00  0.00    -0.210 C  
HETATM    2  C   UNL     1      -9.931  14.327  65.591  1.00  0.00    -0.346 C  
HETATM    3  C   UNL     1     -11.442  14.433  65.796  1.00  0.00    -0.335 C  
HETATM    4  C   UNL     1     -11.839  13.078  66.392  1.00  0.00    -0.405 C  
HETATM    5  N   UNL     1     -10.820  12.204  65.810  1.00  0.00    -0.271 NA 
HETATM    6  C   UNL     1     -11.789  13.120  67.923  1.00  0.00    -0.390 C  
HETATM    7  C   UNL     1     -10.376  13.246  68.537  1.00  0.00    -0.239 C  
HETATM    8  C   UNL     1     -10.858  10.817  66.244  1.00  0.00    -0.073 C  
HETATM    9  C   UNL     1      -9.211  12.912  67.577  1.00  0.00    -0.192 C  
ENDROOT
BRANCH   7  10
HETATM   10  O   UNL     1     -10.105  14.539  69.100  1.00  0.00    -0.214 OA 
BRANCH  10  11
HETATM   11  C   UNL     1     -11.210  15.459  69.156  1.00  0.00    -0.287 C  
BRANCH  11  12
HETATM   12  C   UNL     1     -10.760  16.818  68.632  1.00  0.00    -0.352 A  
HETATM   13  C   UNL     1      -9.721  17.541  69.231  1.00  0.00    -0.005 A  
HETATM   14  C   UNL     1     -11.405  17.368  67.510  1.00  0.00     0.443 A  
HETATM   15  C   UNL     1      -9.304  18.760  68.696  1.00  0.00    -0.392 A  
HETATM   16  C   UNL     1     -10.985  18.587  66.975  1.00  0.00    -0.103 A  
HETATM   17  C   UNL     1      -9.928  19.277  67.563  1.00  0.00    -0.460 A  
ENDBRANCH  11  12
BRANCH  11  18
HETATM   18  C   UNL     1     -11.887  15.557  70.515  1.00  0.00    -0.388 A  
HETATM   19  C   UNL     1     -13.874  15.690  71.908  1.00  0.00    -0.493 A  
HETATM   20  C   UNL     1     -13.277  15.684  70.645  1.00  0.00    -0.162 A  
HETATM   21  C   UNL     1     -11.707  15.485  72.947  1.00  0.00    -0.521 A  
HETATM   22  C   UNL     1     -13.091  15.581  73.057  1.00  0.00    -0.632 A  
HETATM   23  C   UNL     1     -11.108  15.475  71.686  1.00  0.00    -0.266 A  
ENDBRANCH  11  18
ENDBRANCH  10  11
ENDBRANCH   7  10
TORSDOF 4
ENDMDL
MODEL       62
REMARK 921   NORMALIZED FREE ENERGY PREDICTED BY IDOCK:   -5.12 KCAL/MOL
REMARK 922        TOTAL FREE ENERGY PREDICTED BY IDOCK:   -7.73 KCAL/MOL
REMARK 923 INTER-LIGAND FREE ENERGY PREDICTED BY IDOCK:   -6.81 KCAL/MOL
REMARK 924 INTRA-LIGAND FREE ENERGY PREDICTED BY IDOCK:   -0.92 KCAL/MOL
REMARK 927      BINDING AFFINITY PREDICTED BY RF-SCORE:    0.00 PKD
ROOT
HETATM    1  C   UNL     1     -14.246  14.738  71.754  1.00  0.00    -0.541 C  
HETATM    2  C   UNL     1     -14.128  16.092  72.459  1.00  0.00    -0.187 C  
HETATM    3  C   UNL     1     -12.838  15.989  73.273  1.00  0.00    -0.649 C  
HETATM    4  C   UNL     1     -12.312  14.581  72.974  1.00  0.00    -0.166 C  
HETATM    5  N   UNL     1     -13.560  13.864  72.709  1.00  0.00    -0.699 NA 
HETATM    6  C   UNL     1     -11.364  14.596  71.769  1.00  0.00     0.214 C  
HETATM    7  C   UNL     1     -12.028  14.899  70.407  1.00  0.00    -0.314 C  
HETATM    8  C   UNL     1     -13.415  12.476  72.303  1.00  0.00    -0.386 C  
HETATM    9  C   UNL     1     -13.566  14.745  70.377  1.00  0.00     0.288 C  
ENDROOT
BRANCH   7  10
HETATM   10  O   UNL     1     -11.721  16.204  69.893  1.00  0.00    -0.300 OA 
BRANCH  10  11
HETATM   11  C   UNL     1     -11.460  16.293  68.481  1.00  0.00    -0.272 C  
BRANCH  11  12
HETATM   12  C   UNL     1     -10.833  14.989  68.003  1.00  0.00    -0.270 A  
HETATM   13  C   UNL     1      -9.554  14.584  68.407  1.00  0.00    -0.213 A  
HETATM   14  C   UNL     1     -11.557  14.160  67.128  1.00  0.00    -0.400 A  
HETATM   15  C   UNL     1      -9.031  13.360  67.987  1.00  0.00    -0.190 A  
HETATM   16  C   UNL     1     -11.033  12.936  66.710  1.00  0.00    -0.300 A  
HETATM   17  C   UNL     1      -9.774  12.533  67.148  1.00  0.00    -0.205 A  
ENDBRANCH  11  12
BRANCH  11  18
HETATM   18  C   UNL     1     -10.652  17.513  68.059  1.00  0.00    -0.384 A  
HETATM   19  C   UNL     1     -10.049  19.220  66.439  1.00  0.00    -0.507 A  
HETATM   20  C   UNL     1     -10.741  18.052  66.769  1.00  0.00    -0.185 A  
HETATM   21  C   UNL     1      -9.127  19.318  68.666  1.00  0.00    -0.428 A  
HETATM   22  C   UNL     1      -9.250  19.857  67.389  1.00  0.00    -0.455 A  
HETATM   23  C   UNL     1      -9.821  18.153  68.999  1.00  0.00    -0.259 A  
ENDBRANCH  11  18
ENDBRANCH  10  11
ENDBRANCH   7  10
TORSDOF 4
ENDMDL
MODEL       63
REMARK 921   NORMALIZED FREE ENERGY PREDICTED BY IDOCK:   -5.11 KCAL/MOL
REMARK 922        TOTAL FREE ENERGY PREDICTED BY IDOCK:   -7.71 KCAL/MOL
REMARK 923 INTER-LIGAND FREE ENERGY PREDICTED BY IDOCK:   -6.34 KCAL/MOL
REMARK 924 INTRA-LIGAND FREE ENERGY PREDICTED BY IDOCK:   -1.37 KCAL/MOL
REMARK 927      BINDING AFFINITY PREDICTED BY RF-SCORE:    0.00 PKD
ROOT
HETATM    1  C   UNL     1      -8.436  11.028  66.930  1.00  0.00    -0.139 C  
HETATM    2  C   UNL     1      -9.662  11.862  66.547  1.00  0.00    -0.226 C  
HETATM    3  C   UNL     1     -10.418  10.994  65.542  1.00  0.00    -0.302 C  
HETATM    4  C   UNL     1      -9.568   9.725  65.422  1.00  0.00    -0.292 C  
HETATM    5  N   UNL     1      -8.232  10.252  65.704  1.00  0.00    -0.147 NA 
HETATM    6  C   UNL     1     -10.020   8.667  66.436  1.00  0.00    -0.331 C  
HETATM    7  C   UNL     1      -9.738   9.005  67.917  1.00  0.00    -0.155 C  
HETATM    8  C   UNL     1      -7.163   9.268  65.751  1.00  0.00    -0.090 C  
HETATM    9  C   UNL     1      -8.707  10.134  68.148  1.00  0.00    -0.122 C  
ENDROOT
BRANCH   7  10
HETATM   10  O   UNL     1     -10.916   9.346  68.665  1.00  0.00    -0.150 OA 
BRANCH  10  11
HETATM   11  C   UNL     1     -10.711   9.794  70.017  1.00  0.00    -0.283 C  
BRANCH  11  12
HETATM   12  C   UNL     1     -10.844   8.608  70.965  1.00  0.00    -0.302 A  
HETATM   13  C   UNL     1     -10.066   8.489  72.124  1.00  0.00    -0.393 A  
HETATM   14  C   UNL     1     -11.778   7.598  70.673  1.00  0.00    -0.214 A  
HETATM   15  C   UNL     1     -10.248   7.413  72.994  1.00  0.00    -0.335 A  
HETATM   16  C   UNL     1     -11.960   6.524  71.545  1.00  0.00    -0.383 A  
HETATM   17  C   UNL     1     -11.202   6.438  72.710  1.00  0.00    -0.261 A  
ENDBRANCH  11  12
BRANCH  11  18
HETATM   18  C   UNL     1     -11.581  10.971  70.435  1.00  0.00    -0.389 A  
HETATM   19  C   UNL     1     -13.224  11.999  71.901  1.00  0.00    -0.469 A  
HETATM   20  C   UNL     1     -12.499  10.877  71.490  1.00  0.00    -0.419 A  
HETATM   21  C   UNL     1     -12.163  13.327  70.189  1.00  0.00    -0.376 A  
HETATM   22  C   UNL     1     -13.049  13.224  71.258  1.00  0.00    -0.299 A  
HETATM   23  C   UNL     1     -11.435  12.208  69.779  1.00  0.00    -0.261 A  
ENDBRANCH  11  18
ENDBRANCH  10  11
ENDBRANCH   7  10
TORSDOF 4
ENDMDL
MODEL       64
REMARK 921   NORMALIZED FREE ENERGY PREDICTED BY IDOCK:   -5.11 KCAL/MOL
REMARK 922        TOTAL FREE ENERGY PREDICTED BY IDOCK:   -7.71 KCAL/MOL
REMARK 923 INTER-LIGAND FREE ENERGY PREDICTED BY IDOCK:   -6.55 KCAL/MOL
REMARK 924 INTRA-LIGAND FREE ENERGY PREDICTED BY IDOCK:   -1.16 KCAL/MOL
REMARK 927      BINDING AFFINITY PREDICTED BY RF-SCORE:    0.00 PKD
ROOT
HETATM    1  C   UNL     1      -6.249  14.347  67.981  1.00  0.00    -0.155 C  
HETATM    2  C   UNL     1      -6.232  13.590  69.312  1.00  0.00    -0.105 C  
HETATM    3  C   UNL     1      -6.358  14.681  70.375  1.00  0.00    -0.153 C  
HETATM    4  C   UNL     1      -6.438  15.984  69.573  1.00  0.00    -0.187 C  
HETATM    5  N   UNL     1      -5.666  15.630  68.381  1.00  0.00    -0.102 NA 
HETATM    6  C   UNL     1      -7.894  16.344  69.259  1.00  0.00    -0.153 C  
HETATM    7  C   UNL     1      -8.608  15.405  68.260  1.00  0.00    -0.158 C  
HETATM    8  C   UNL     1      -5.606  16.647  67.345  1.00  0.00    -0.152 C  
HETATM    9  C   UNL     1      -7.672  14.501  67.425  1.00  0.00    -0.215 C  
ENDROOT
BRANCH   7  10
HETATM   10  O   UNL     1      -9.589  14.552  68.870  1.00  0.00    -0.210 OA 
BRANCH  10  11
HETATM   11  C   UNL     1     -10.962  14.799  68.519  1.00  0.00    -0.258 C  
BRANCH  11  12
HETATM   12  C   UNL     1     -11.845  14.555  69.737  1.00  0.00    -0.367 A  
HETATM   13  C   UNL     1     -12.007  13.281  70.297  1.00  0.00    -0.372 A  
HETATM   14  C   UNL     1     -12.521  15.639  70.323  1.00  0.00    -0.369 A  
HETATM   15  C   UNL     1     -12.786  13.102  71.441  1.00  0.00    -0.390 A  
HETATM   16  C   UNL     1     -13.298  15.459  71.468  1.00  0.00    -0.586 A  
HETATM   17  C   UNL     1     -13.421  14.192  72.032  1.00  0.00    -0.518 A  
ENDBRANCH  11  12
BRANCH  11  18
HETATM   18  C   UNL     1     -11.449  14.045  67.289  1.00  0.00    -0.372 A  
HETATM   19  C   UNL     1     -12.807  13.885  65.280  1.00  0.00    -0.437 A  
HETATM   20  C   UNL     1     -12.440  14.564  66.445  1.00  0.00    -0.090 A  
HETATM   21  C   UNL     1     -11.233  12.130  65.794  1.00  0.00    -0.384 A  
HETATM   22  C   UNL     1     -12.197  12.674  64.951  1.00  0.00    -0.531 A  
HETATM   23  C   UNL     1     -10.862  12.809  66.956  1.00  0.00    -0.282 A  
ENDBRANCH  11  18
ENDBRANCH  10  11
ENDBRANCH   7  10
TORSDOF 4
ENDMDL
MODEL       65
REMARK 921   NORMALIZED FREE ENERGY PREDICTED BY IDOCK:   -5.05 KCAL/MOL
REMARK 922        TOTAL FREE ENERGY PREDICTED BY IDOCK:   -7.64 KCAL/MOL
REMARK 923 INTER-LIGAND FREE ENERGY PREDICTED BY IDOCK:   -6.31 KCAL/MOL
REMARK 924 INTRA-LIGAND FREE ENERGY PREDICTED BY IDOCK:   -1.33 KCAL/MOL
REMARK 927      BINDING AFFINITY PREDICTED BY RF-SCORE:    0.00 PKD
ROOT
HETATM    1  C   UNL     1      -8.057   7.417  67.234  1.00  0.00    -0.112 C  
HETATM    2  C   UNL     1      -8.621   8.836  67.116  1.00  0.00    -0.119 C  
HETATM    3  C   UNL     1     -10.079   8.636  66.705  1.00  0.00    -0.364 C  
HETATM    4  C   UNL     1     -10.243   7.115  66.616  1.00  0.00    -0.153 C  
HETATM    5  N   UNL     1      -8.884   6.705  66.256  1.00  0.00    -0.144 NA 
HETATM    6  C   UNL     1     -10.707   6.536  67.957  1.00  0.00    -0.351 C  
HETATM    7  C   UNL     1      -9.670   6.598  69.101  1.00  0.00    -0.145 C  
HETATM    8  C   UNL     1      -8.662   5.272  66.166  1.00  0.00    -0.129 C  
HETATM    9  C   UNL     1      -8.212   6.852  68.653  1.00  0.00    -0.121 C  
ENDROOT
BRANCH   7  10
HETATM   10  O   UNL     1      -9.980   7.574  70.108  1.00  0.00    -0.190 OA 
BRANCH  10  11
HETATM   11  C   UNL     1     -11.164   7.335  70.891  1.00  0.00    -0.272 C  
BRANCH  11  12
HETATM   12  C   UNL     1     -11.887   8.656  71.125  1.00  0.00    -0.331 A  
HETATM   13  C   UNL     1     -12.970   8.766  72.007  1.00  0.00    -0.437 A  
HETATM   14  C   UNL     1     -11.458   9.804  70.437  1.00  0.00    -0.347 A  
HETATM   15  C   UNL     1     -13.579  10.001  72.232  1.00  0.00    -0.282 A  
HETATM   16  C   UNL     1     -12.067  11.039  70.665  1.00  0.00    -0.471 A  
HETATM   17  C   UNL     1     -13.120  11.138  71.570  1.00  0.00    -0.489 A  
ENDBRANCH  11  12
BRANCH  11  18
HETATM   18  C   UNL     1     -10.926   6.567  72.183  1.00  0.00    -0.283 A  
HETATM   19  C   UNL     1     -11.096   4.555  73.535  1.00  0.00    -0.398 A  
HETATM   20  C   UNL     1     -11.401   5.261  72.369  1.00  0.00    -0.190 A  
HETATM   21  C   UNL     1      -9.870   6.453  74.379  1.00  0.00    -0.338 A  
HETATM   22  C   UNL     1     -10.324   5.147  74.535  1.00  0.00    -0.301 A  
HETATM   23  C   UNL     1     -10.170   7.160  73.214  1.00  0.00    -0.342 A  
ENDBRANCH  11  18
ENDBRANCH  10  11
ENDBRANCH   7  10
TORSDOF 4
ENDMDL
MODEL       66
REMARK 921   NORMALIZED FREE ENERGY PREDICTED BY IDOCK:   -5.04 KCAL/MOL
REMARK 922        TOTAL FREE ENERGY PREDICTED BY IDOCK:   -7.63 KCAL/MOL
REMARK 923 INTER-LIGAND FREE ENERGY PREDICTED BY IDOCK:   -6.13 KCAL/MOL
REMARK 924 INTRA-LIGAND FREE ENERGY PREDICTED BY IDOCK:   -1.50 KCAL/MOL
REMARK 927      BINDING AFFINITY PREDICTED BY RF-SCORE:    0.00 PKD
ROOT
HETATM    1  C   UNL     1      -7.646   8.405  66.991  1.00  0.00    -0.092 C  
HETATM    2  C   UNL     1      -7.436   9.718  66.230  1.00  0.00    -0.100 C  
HETATM    3  C   UNL     1      -8.677   9.852  65.348  1.00  0.00    -0.175 C  
HETATM    4  C   UNL     1      -9.506   8.604  65.668  1.00  0.00    -0.044 C  
HETATM    5  N   UNL     1      -8.456   7.652  66.030  1.00  0.00    -0.137 NA 
HETATM    6  C   UNL     1     -10.487   8.878  66.814  1.00  0.00    -0.269 C  
HETATM    7  C   UNL     1      -9.840   9.098  68.201  1.00  0.00    -0.164 C  
HETATM    8  C   UNL     1      -8.915   6.348  66.478  1.00  0.00    -0.145 C  
HETATM    9  C   UNL     1      -8.375   8.623  68.325  1.00  0.00    -0.127 C  
ENDROOT
BRANCH   7  10
HETATM   10  O   UNL     1      -9.884  10.463  68.648  1.00  0.00    -0.163 OA 
BRANCH  10  11
HETATM   11  C   UNL     1     -11.101  11.185  68.386  1.00  0.00    -0.247 C  
BRANCH  11  12
HETATM   12  C   UNL     1     -10.844  12.231  67.308  1.00  0.00    -0.283 A  
HETATM   13  C   UNL     1     -11.847  12.655  66.427  1.00  0.00    -0.466 A  
HETATM   14  C   UNL     1      -9.561  12.792  67.190  1.00  0.00    -0.219 A  
HETATM   15  C   UNL     1     -11.588  13.649  65.483  1.00  0.00    -0.337 A  
HETATM   16  C   UNL     1      -9.304  13.788  66.246  1.00  0.00    -0.166 A  
HETATM   17  C   UNL     1     -10.321  14.222  65.400  1.00  0.00    -0.391 A  
ENDBRANCH  11  12
BRANCH  11  18
HETATM   18  C   UNL     1     -11.766  11.776  69.621  1.00  0.00    -0.413 A  
HETATM   19  C   UNL     1     -12.441  13.673  70.983  1.00  0.00    -0.456 A  
HETATM   20  C   UNL     1     -11.752  13.153  69.884  1.00  0.00    -0.327 A  
HETATM   21  C   UNL     1     -13.142  11.451  71.609  1.00  0.00    -0.498 A  
HETATM   22  C   UNL     1     -13.142  12.824  71.839  1.00  0.00    -0.474 A  
HETATM   23  C   UNL     1     -12.457  10.930  70.510  1.00  0.00    -0.438 A  
ENDBRANCH  11  18
ENDBRANCH  10  11
ENDBRANCH   7  10
TORSDOF 4
ENDMDL
MODEL       67
REMARK 921   NORMALIZED FREE ENERGY PREDICTED BY IDOCK:   -5.03 KCAL/MOL
REMARK 922        TOTAL FREE ENERGY PREDICTED BY IDOCK:   -7.61 KCAL/MOL
REMARK 923 INTER-LIGAND FREE ENERGY PREDICTED BY IDOCK:   -6.02 KCAL/MOL
REMARK 924 INTRA-LIGAND FREE ENERGY PREDICTED BY IDOCK:   -1.59 KCAL/MOL
REMARK 927      BINDING AFFINITY PREDICTED BY RF-SCORE:    0.00 PKD
ROOT
HETATM    1  C   UNL     1      -9.937  14.387  67.833  1.00  0.00    -0.228 C  
HETATM    2  C   UNL     1     -10.819  14.018  69.029  1.00  0.00    -0.268 C  
HETATM    3  C   UNL     1     -12.250  14.161  68.510  1.00  0.00    -0.204 C  
HETATM    4  C   UNL     1     -12.081  14.603  67.052  1.00  0.00    -0.186 C  
HETATM    5  N   UNL     1     -10.810  15.325  67.122  1.00  0.00    -0.318 NA 
HETATM    6  C   UNL     1     -12.031  13.391  66.115  1.00  0.00    -0.460 C  
HETATM    7  C   UNL     1     -10.771  12.505  66.244  1.00  0.00    -0.260 C  
HETATM    8  C   UNL     1     -10.300  15.825  65.856  1.00  0.00    -0.354 C  
HETATM    9  C   UNL     1      -9.581  13.160  66.981  1.00  0.00    -0.241 C  
ENDROOT
BRANCH   7  10
HETATM   10  O   UNL     1     -11.018  11.239  66.876  1.00  0.00    -0.277 OA 
BRANCH  10  11
HETATM   11  C   UNL     1      -9.981  10.741  67.741  1.00  0.00    -0.171 C  
BRANCH  11  12
HETATM   12  C   UNL     1      -9.189   9.665  67.008  1.00  0.00    -0.167 A  
HETATM   13  C   UNL     1      -7.832   9.821  66.697  1.00  0.00    -0.109 A  
HETATM   14  C   UNL     1      -9.835   8.476  66.629  1.00  0.00    -0.342 A  
HETATM   15  C   UNL     1      -7.126   8.795  66.066  1.00  0.00    -0.084 A  
HETATM   16  C   UNL     1      -9.127   7.450  66.001  1.00  0.00    -0.129 A  
HETATM   17  C   UNL     1      -7.771   7.607  65.729  1.00  0.00    -0.100 A  
ENDBRANCH  11  12
BRANCH  11  18
HETATM   18  C   UNL     1     -10.463  10.276  69.108  1.00  0.00    -0.246 A  
HETATM   19  C   UNL     1     -10.086   9.201  71.254  1.00  0.00    -0.388 A  
HETATM   20  C   UNL     1      -9.641   9.543  69.975  1.00  0.00    -0.272 A  
HETATM   21  C   UNL     1     -12.201  10.278  70.820  1.00  0.00    -0.447 A  
HETATM   22  C   UNL     1     -11.360   9.576  71.680  1.00  0.00    -0.411 A  
HETATM   23  C   UNL     1     -11.757  10.624  69.543  1.00  0.00    -0.356 A  
ENDBRANCH  11  18
ENDBRANCH  10  11
ENDBRANCH   7  10
TORSDOF 4
ENDMDL
MODEL       68
REMARK 921   NORMALIZED FREE ENERGY PREDICTED BY IDOCK:   -5.02 KCAL/MOL
REMARK 922        TOTAL FREE ENERGY PREDICTED BY IDOCK:   -7.61 KCAL/MOL
REMARK 923 INTER-LIGAND FREE ENERGY PREDICTED BY IDOCK:   -6.06 KCAL/MOL
REMARK 924 INTRA-LIGAND FREE ENERGY PREDICTED BY IDOCK:   -1.55 KCAL/MOL
REMARK 927      BINDING AFFINITY PREDICTED BY RF-SCORE:    0.00 PKD
ROOT
HETATM    1  C   UNL     1      -9.264  11.619  68.281  1.00  0.00    -0.187 C  
HETATM    2  C   UNL     1     -10.594  11.993  68.942  1.00  0.00    -0.192 C  
HETATM    3  C   UNL     1     -11.644  11.190  68.174  1.00  0.00    -0.350 C  
HETATM    4  C   UNL     1     -10.837  10.415  67.127  1.00  0.00    -0.238 C  
HETATM    5  N   UNL     1      -9.706  11.319  66.916  1.00  0.00    -0.189 NA 
HETATM    6  C   UNL     1     -10.414   9.044  67.668  1.00  0.00    -0.324 C  
HETATM    7  C   UNL     1      -9.367   9.074  68.804  1.00  0.00    -0.140 C  
HETATM    8  C   UNL     1      -8.675  10.838  66.011  1.00  0.00    -0.183 C  
HETATM    9  C   UNL     1      -8.605  10.410  68.959  1.00  0.00    -0.158 C  
ENDROOT
BRANCH   7  10
HETATM   10  O   UNL     1      -9.904   8.739  70.093  1.00  0.00    -0.169 OA 
BRANCH  10  11
HETATM   11  C   UNL     1     -10.752   7.578  70.153  1.00  0.00    -0.239 C  
BRANCH  11  12
HETATM   12  C   UNL     1     -12.053   7.941  70.859  1.00  0.00    -0.181 A  
HETATM   13  C   UNL     1     -13.064   7.000  71.090  1.00  0.00    -0.260 A  
HETATM   14  C   UNL     1     -12.250   9.263  71.297  1.00  0.00    -0.410 A  
HETATM   15  C   UNL     1     -14.222   7.357  71.782  1.00  0.00    -0.544 A  
HETATM   16  C   UNL     1     -13.407   9.618  71.990  1.00  0.00    -0.547 A  
HETATM   17  C   UNL     1     -14.388   8.662  72.241  1.00  0.00    -0.486 A  
ENDBRANCH  11  12
BRANCH  11  18
HETATM   18  C   UNL     1     -10.095   6.341  70.748  1.00  0.00    -0.229 A  
HETATM   19  C   UNL     1      -8.840   5.224  72.503  1.00  0.00    -0.127 A  
HETATM   20  C   UNL     1      -9.361   6.391  71.942  1.00  0.00    -0.154 A  
HETATM   21  C   UNL     1      -9.734   3.929  70.675  1.00  0.00    -0.248 A  
HETATM   22  C   UNL     1      -9.033   3.993  71.875  1.00  0.00    -0.156 A  
HETATM   23  C   UNL     1     -10.259   5.094  70.113  1.00  0.00    -0.348 A  
ENDBRANCH  11  18
ENDBRANCH  10  11
ENDBRANCH   7  10
TORSDOF 4
ENDMDL
MODEL       69
REMARK 921   NORMALIZED FREE ENERGY PREDICTED BY IDOCK:   -5.02 KCAL/MOL
REMARK 922        TOTAL FREE ENERGY PREDICTED BY IDOCK:   -7.61 KCAL/MOL
REMARK 923 INTER-LIGAND FREE ENERGY PREDICTED BY IDOCK:   -6.03 KCAL/MOL
REMARK 924 INTRA-LIGAND FREE ENERGY PREDICTED BY IDOCK:   -1.58 KCAL/MOL
REMARK 927      BINDING AFFINITY PREDICTED BY RF-SCORE:    0.00 PKD
ROOT
HETATM    1  C   UNL     1     -11.053  15.764  68.671  1.00  0.00    -0.327 C  
HETATM    2  C   UNL     1      -9.905  15.610  69.674  1.00  0.00    -0.280 C  
HETATM    3  C   UNL     1      -8.807  14.889  68.891  1.00  0.00    -0.184 C  
HETATM    4  C   UNL     1      -9.409  14.682  67.497  1.00  0.00    -0.195 C  
HETATM    5  N   UNL     1     -10.835  14.595  67.815  1.00  0.00    -0.262 NA 
HETATM    6  C   UNL     1      -9.072  15.860  66.576  1.00  0.00    -0.320 C  
HETATM    7  C   UNL     1      -9.755  17.199  66.935  1.00  0.00    -0.268 C  
HETATM    8  C   UNL     1     -11.728  14.473  66.675  1.00  0.00    -0.371 C  
HETATM    9  C   UNL     1     -10.963  17.083  67.892  1.00  0.00    -0.226 C  
ENDROOT
BRANCH   7  10
HETATM   10  O   UNL     1      -8.860  18.171  67.496  1.00  0.00    -0.253 OA 
BRANCH  10  11
HETATM   11  C   UNL     1      -7.454  17.947  67.285  1.00  0.00    -0.197 C  
BRANCH  11  12
HETATM   12  C   UNL     1      -6.698  18.246  68.574  1.00  0.00    -0.242 A  
HETATM   13  C   UNL     1      -6.633  19.535  69.118  1.00  0.00    -0.362 A  
HETATM   14  C   UNL     1      -6.044  17.198  69.244  1.00  0.00    -0.216 A  
HETATM   15  C   UNL     1      -5.971  19.763  70.325  1.00  0.00    -0.337 A  
HETATM   16  C   UNL     1      -5.383  17.427  70.452  1.00  0.00    -0.255 A  
HETATM   17  C   UNL     1      -5.357  18.708  70.996  1.00  0.00    -0.248 A  
ENDBRANCH  11  12
BRANCH  11  18
HETATM   18  C   UNL     1      -6.867  18.677  66.086  1.00  0.00    -0.279 A  
HETATM   19  C   UNL     1      -6.741  20.603  64.609  1.00  0.00    -0.190 A  
HETATM   20  C   UNL     1      -7.355  19.922  65.663  1.00  0.00    -0.316 A  
HETATM   21  C   UNL     1      -5.164  18.798  64.344  1.00  0.00    -0.229 A  
HETATM   22  C   UNL     1      -5.642  20.046  63.957  1.00  0.00    -0.284 A  
HETATM   23  C   UNL     1      -5.773  18.117  65.399  1.00  0.00    -0.184 A  
ENDBRANCH  11  18
ENDBRANCH  10  11
ENDBRANCH   7  10
TORSDOF 4
ENDMDL
MODEL       70
REMARK 921   NORMALIZED FREE ENERGY PREDICTED BY IDOCK:   -5.02 KCAL/MOL
REMARK 922        TOTAL FREE ENERGY PREDICTED BY IDOCK:   -7.60 KCAL/MOL
REMARK 923 INTER-LIGAND FREE ENERGY PREDICTED BY IDOCK:   -6.01 KCAL/MOL
REMARK 924 INTRA-LIGAND FREE ENERGY PREDICTED BY IDOCK:   -1.59 KCAL/MOL
REMARK 927      BINDING AFFINITY PREDICTED BY RF-SCORE:    0.00 PKD
ROOT
HETATM    1  C   UNL     1      -8.199   4.862  72.145  1.00  0.00    -0.115 C  
HETATM    2  C   UNL     1      -8.669   4.288  70.804  1.00  0.00    -0.125 C  
HETATM    3  C   UNL     1      -9.745   3.269  71.179  1.00  0.00    -0.212 C  
HETATM    4  C   UNL     1      -9.812   3.334  72.708  1.00  0.00    -0.140 C  
HETATM    5  N   UNL     1      -8.439   3.723  73.035  1.00  0.00    -0.093 NA 
HETATM    6  C   UNL     1     -10.851   4.363  73.167  1.00  0.00    -0.321 C  
HETATM    7  C   UNL     1     -10.493   5.839  72.880  1.00  0.00    -0.214 C  
HETATM    8  C   UNL     1      -8.169   3.956  74.444  1.00  0.00    -0.090 C  
HETATM    9  C   UNL     1      -9.006   6.102  72.553  1.00  0.00    -0.134 C  
ENDROOT
BRANCH   7  10
HETATM   10  O   UNL     1     -11.271   6.427  71.826  1.00  0.00    -0.252 OA 
BRANCH  10  11
HETATM   11  C   UNL     1     -10.666   7.523  71.116  1.00  0.00    -0.227 C  
BRANCH  11  12
HETATM   12  C   UNL     1     -11.520   8.772  71.299  1.00  0.00    -0.355 A  
HETATM   13  C   UNL     1     -11.227   9.977  70.647  1.00  0.00    -0.425 A  
HETATM   14  C   UNL     1     -12.640   8.720  72.146  1.00  0.00    -0.463 A  
HETATM   15  C   UNL     1     -12.057  11.088  70.801  1.00  0.00    -0.467 A  
HETATM   16  C   UNL     1     -13.471   9.831  72.298  1.00  0.00    -0.443 A  
HETATM   17  C   UNL     1     -13.184  11.011  71.616  1.00  0.00    -0.461 A  
ENDBRANCH  11  12
BRANCH  11  18
HETATM   18  C   UNL     1     -10.359   7.239  69.653  1.00  0.00    -0.227 A  
HETATM   19  C   UNL     1      -8.895   7.352  67.717  1.00  0.00    -0.128 A  
HETATM   20  C   UNL     1      -9.185   7.698  69.039  1.00  0.00    -0.140 A  
HETATM   21  C   UNL     1     -10.960   6.115  67.573  1.00  0.00    -0.404 A  
HETATM   22  C   UNL     1      -9.776   6.555  66.988  1.00  0.00    -0.188 A  
HETATM   23  C   UNL     1     -11.252   6.457  68.895  1.00  0.00    -0.385 A  
ENDBRANCH  11  18
ENDBRANCH  10  11
ENDBRANCH   7  10
TORSDOF 4
ENDMDL
MODEL       71
REMARK 921   NORMALIZED FREE ENERGY PREDICTED BY IDOCK:   -5.01 KCAL/MOL
REMARK 922        TOTAL FREE ENERGY PREDICTED BY IDOCK:   -7.59 KCAL/MOL
REMARK 923 INTER-LIGAND FREE ENERGY PREDICTED BY IDOCK:   -6.34 KCAL/MOL
REMARK 924 INTRA-LIGAND FREE ENERGY PREDICTED BY IDOCK:   -1.26 KCAL/MOL
REMARK 927      BINDING AFFINITY PREDICTED BY RF-SCORE:    0.00 PKD
ROOT
HETATM    1  C   UNL     1     -10.580   8.728  69.222  1.00  0.00    -0.197 C  
HETATM    2  C   UNL     1     -10.121   9.411  70.514  1.00  0.00    -0.335 C  
HETATM    3  C   UNL     1      -8.619   9.619  70.324  1.00  0.00    -0.234 C  
HETATM    4  C   UNL     1      -8.328   9.038  68.937  1.00  0.00    -0.125 C  
HETATM    5  N   UNL     1      -9.363   8.008  68.839  1.00  0.00    -0.150 NA 
HETATM    6  C   UNL     1      -8.453  10.118  67.855  1.00  0.00    -0.118 C  
HETATM    7  C   UNL     1      -9.886  10.638  67.601  1.00  0.00    -0.167 C  
HETATM    8  C   UNL     1      -9.424   7.295  67.574  1.00  0.00    -0.129 C  
HETATM    9  C   UNL     1     -11.018   9.744  68.158  1.00  0.00    -0.228 C  
ENDROOT
BRANCH   7  10
HETATM   10  O   UNL     1     -10.113  11.968  68.095  1.00  0.00    -0.189 OA 
BRANCH  10  11
HETATM   11  C   UNL     1      -9.955  13.040  67.148  1.00  0.00    -0.235 C  
BRANCH  11  12
HETATM   12  C   UNL     1     -10.246  14.367  67.838  1.00  0.00    -0.232 A  
HETATM   13  C   UNL     1     -10.813  14.434  69.117  1.00  0.00    -0.275 A  
HETATM   14  C   UNL     1      -9.935  15.567  67.174  1.00  0.00    -0.242 A  
HETATM   15  C   UNL     1     -11.022  15.667  69.737  1.00  0.00    -0.307 A  
HETATM   16  C   UNL     1     -10.143  16.799  67.797  1.00  0.00    -0.281 A  
HETATM   17  C   UNL     1     -10.677  16.847  69.082  1.00  0.00    -0.298 A  
ENDBRANCH  11  12
BRANCH  11  18
HETATM   18  C   UNL     1     -10.747  12.870  65.859  1.00  0.00    -0.291 A  
HETATM   19  C   UNL     1     -10.900  12.275  63.508  1.00  0.00    -0.508 A  
HETATM   20  C   UNL     1     -10.133  12.500  64.654  1.00  0.00    -0.258 A  
HETATM   21  C   UNL     1     -12.908  12.822  64.728  1.00  0.00    -0.374 A  
HETATM   22  C   UNL     1     -12.286  12.426  63.547  1.00  0.00    -0.661 A  
HETATM   23  C   UNL     1     -12.144  13.045  65.875  1.00  0.00    -0.503 A  
ENDBRANCH  11  18
ENDBRANCH  10  11
ENDBRANCH   7  10
TORSDOF 4
ENDMDL
MODEL       72
REMARK 921   NORMALIZED FREE ENERGY PREDICTED BY IDOCK:   -5.01 KCAL/MOL
REMARK 922        TOTAL FREE ENERGY PREDICTED BY IDOCK:   -7.59 KCAL/MOL
REMARK 923 INTER-LIGAND FREE ENERGY PREDICTED BY IDOCK:   -6.06 KCAL/MOL
REMARK 924 INTRA-LIGAND FREE ENERGY PREDICTED BY IDOCK:   -1.53 KCAL/MOL
REMARK 927      BINDING AFFINITY PREDICTED BY RF-SCORE:    0.00 PKD
ROOT
HETATM    1  C   UNL     1      -9.054  10.634  68.610  1.00  0.00    -0.170 C  
HETATM    2  C   UNL     1     -10.515  11.084  68.710  1.00  0.00    -0.222 C  
HETATM    3  C   UNL     1     -11.104  10.783  67.332  1.00  0.00    -0.363 C  
HETATM    4  C   UNL     1      -9.935  10.183  66.543  1.00  0.00    -0.224 C  
HETATM    5  N   UNL     1      -8.795  10.841  67.183  1.00  0.00    -0.134 NA 
HETATM    6  C   UNL     1      -9.904   8.657  66.688  1.00  0.00    -0.336 C  
HETATM    7  C   UNL     1      -9.537   8.132  68.095  1.00  0.00    -0.149 C  
HETATM    8  C   UNL     1      -7.484  10.427  66.713  1.00  0.00    -0.110 C  
HETATM    9  C   UNL     1      -8.874   9.168  69.030  1.00  0.00    -0.139 C  
ENDROOT
BRANCH   7  10
HETATM   10  O   UNL     1     -10.649   7.567  68.807  1.00  0.00    -0.206 OA 
BRANCH  10  11
HETATM   11  C   UNL     1     -10.579   7.610  70.244  1.00  0.00    -0.230 C  
BRANCH  11  12
HETATM   12  C   UNL     1     -10.114   6.255  70.764  1.00  0.00    -0.229 A  
HETATM   13  C   UNL     1     -10.182   5.093  69.985  1.00  0.00    -0.354 A  
HETATM   14  C   UNL     1      -9.597   6.162  72.068  1.00  0.00    -0.164 A  
HETATM   15  C   UNL     1      -9.703   3.879  70.477  1.00  0.00    -0.247 A  
HETATM   16  C   UNL     1      -9.116   4.947  72.559  1.00  0.00    -0.145 A  
HETATM   17  C   UNL     1      -9.161   3.809  71.759  1.00  0.00    -0.164 A  
ENDBRANCH  11  12
BRANCH  11  18
HETATM   18  C   UNL     1     -11.852   8.087  70.928  1.00  0.00    -0.236 A  
HETATM   19  C   UNL     1     -14.093   7.698  71.785  1.00  0.00    -0.510 A  
HETATM   20  C   UNL     1     -12.970   7.255  71.081  1.00  0.00    -0.313 A  
HETATM   21  C   UNL     1     -13.028   9.829  72.167  1.00  0.00    -0.483 A  
HETATM   22  C   UNL     1     -14.118   8.979  72.335  1.00  0.00    -0.478 A  
HETATM   23  C   UNL     1     -11.904   9.388  71.467  1.00  0.00    -0.456 A  
ENDBRANCH  11  18
ENDBRANCH  10  11
ENDBRANCH   7  10
TORSDOF 4
ENDMDL
MODEL       73
REMARK 921   NORMALIZED FREE ENERGY PREDICTED BY IDOCK:   -5.01 KCAL/MOL
REMARK 922        TOTAL FREE ENERGY PREDICTED BY IDOCK:   -7.59 KCAL/MOL
REMARK 923 INTER-LIGAND FREE ENERGY PREDICTED BY IDOCK:   -6.21 KCAL/MOL
REMARK 924 INTRA-LIGAND FREE ENERGY PREDICTED BY IDOCK:   -1.37 KCAL/MOL
REMARK 927      BINDING AFFINITY PREDICTED BY RF-SCORE:    0.00 PKD
ROOT
HETATM    1  C   UNL     1     -10.533  14.570  68.165  1.00  0.00    -0.239 C  
HETATM    2  C   UNL     1     -12.024  14.221  68.210  1.00  0.00    -0.346 C  
HETATM    3  C   UNL     1     -12.371  13.834  66.772  1.00  0.00    -0.365 C  
HETATM    4  C   UNL     1     -11.052  13.990  66.009  1.00  0.00    -0.303 C  
HETATM    5  N   UNL     1     -10.399  15.045  66.785  1.00  0.00    -0.265 NA 
HETATM    6  C   UNL     1     -10.263  12.675  66.005  1.00  0.00    -0.287 C  
HETATM    7  C   UNL     1      -9.697  12.238  67.376  1.00  0.00    -0.185 C  
HETATM    8  C   UNL     1      -9.052  15.394  66.366  1.00  0.00    -0.314 C  
HETATM    9  C   UNL     1      -9.649  13.348  68.450  1.00  0.00    -0.188 C  
ENDROOT
BRANCH   7  10
HETATM   10  O   UNL     1     -10.384  11.117  67.953  1.00  0.00    -0.176 OA 
BRANCH  10  11
HETATM   11  C   UNL     1      -9.993  10.742  69.286  1.00  0.00    -0.159 C  
BRANCH  11  12
HETATM   12  C   UNL     1      -8.957   9.627  69.211  1.00  0.00    -0.173 A  
HETATM   13  C   UNL     1      -9.028   8.606  68.253  1.00  0.00    -0.142 A  
HETATM   14  C   UNL     1      -7.892   9.616  70.129  1.00  0.00    -0.185 A  
HETATM   15  C   UNL     1      -8.036   7.628  68.184  1.00  0.00    -0.123 A  
HETATM   16  C   UNL     1      -6.900   8.638  70.057  1.00  0.00    -0.042 A  
HETATM   17  C   UNL     1      -6.967   7.651  69.078  1.00  0.00    -0.069 A  
ENDBRANCH  11  12
BRANCH  11  18
HETATM   18  C   UNL     1     -11.149  10.397  70.214  1.00  0.00    -0.379 A  
HETATM   19  C   UNL     1     -12.318   8.863  71.692  1.00  0.00    -0.405 A  
HETATM   20  C   UNL     1     -11.291   9.123  70.781  1.00  0.00    -0.337 A  
HETATM   21  C   UNL     1     -13.113  11.129  71.463  1.00  0.00    -0.489 A  
HETATM   22  C   UNL     1     -13.222   9.867  72.040  1.00  0.00    -0.555 A  
HETATM   23  C   UNL     1     -12.086  11.393  70.555  1.00  0.00    -0.487 A  
ENDBRANCH  11  18
ENDBRANCH  10  11
ENDBRANCH   7  10
TORSDOF 4
ENDMDL
MODEL       74
REMARK 921   NORMALIZED FREE ENERGY PREDICTED BY IDOCK:   -4.98 KCAL/MOL
REMARK 922        TOTAL FREE ENERGY PREDICTED BY IDOCK:   -7.56 KCAL/MOL
REMARK 923 INTER-LIGAND FREE ENERGY PREDICTED BY IDOCK:   -6.33 KCAL/MOL
REMARK 924 INTRA-LIGAND FREE ENERGY PREDICTED BY IDOCK:   -1.23 KCAL/MOL
REMARK 927      BINDING AFFINITY PREDICTED BY RF-SCORE:    0.00 PKD
ROOT
HETATM    1  C   UNL     1      -9.279  17.176  68.937  1.00  0.00    -0.200 C  
HETATM    2  C   UNL     1     -10.618  17.504  68.270  1.00  0.00    -0.354 C  
HETATM    3  C   UNL     1     -10.400  17.179  66.792  1.00  0.00    -0.302 C  
HETATM    4  C   UNL     1      -8.949  16.689  66.722  1.00  0.00    -0.237 C  
HETATM    5  N   UNL     1      -8.348  17.427  67.834  1.00  0.00    -0.225 NA 
HETATM    6  C   UNL     1      -8.877  15.169  66.903  1.00  0.00    -0.284 C  
HETATM    7  C   UNL     1      -9.236  14.652  68.315  1.00  0.00    -0.198 C  
HETATM    8  C   UNL     1      -6.952  17.128  68.106  1.00  0.00    -0.178 C  
HETATM    9  C   UNL     1      -9.222  15.723  69.429  1.00  0.00    -0.263 C  
ENDROOT
BRANCH   7  10
HETATM   10  O   UNL     1     -10.507  13.987  68.380  1.00  0.00    -0.239 OA 
BRANCH  10  11
HETATM   11  C   UNL     1     -10.480  12.548  68.376  1.00  0.00    -0.240 C  
BRANCH  11  12
HETATM   12  C   UNL     1     -10.706  12.045  66.955  1.00  0.00    -0.280 A  
HETATM   13  C   UNL     1     -11.659  12.619  66.104  1.00  0.00    -0.445 A  
HETATM   14  C   UNL     1      -9.936  10.970  66.478  1.00  0.00    -0.253 A  
HETATM   15  C   UNL     1     -11.806  12.163  64.793  1.00  0.00    -0.385 A  
HETATM   16  C   UNL     1     -10.083  10.517  65.166  1.00  0.00    -0.383 A  
HETATM   17  C   UNL     1     -11.011  11.120  64.322  1.00  0.00    -0.276 A  
ENDBRANCH  11  12
BRANCH  11  18
HETATM   18  C   UNL     1     -11.418  11.893  69.379  1.00  0.00    -0.366 A  
HETATM   19  C   UNL     1     -12.146   9.980  70.690  1.00  0.00    -0.381 A  
HETATM   20  C   UNL     1     -11.323  10.532  69.706  1.00  0.00    -0.367 A  
HETATM   21  C   UNL     1     -13.209  12.120  71.020  1.00  0.00     0.160 A  
HETATM   22  C   UNL     1     -13.081  10.775  71.352  1.00  0.00    -0.469 A  
HETATM   23  C   UNL     1     -12.386  12.675  70.039  1.00  0.00    -0.164 A  
ENDBRANCH  11  18
ENDBRANCH  10  11
ENDBRANCH   7  10
TORSDOF 4
ENDMDL
MODEL       75
REMARK 921   NORMALIZED FREE ENERGY PREDICTED BY IDOCK:   -4.98 KCAL/MOL
REMARK 922        TOTAL FREE ENERGY PREDICTED BY IDOCK:   -7.55 KCAL/MOL
REMARK 923 INTER-LIGAND FREE ENERGY PREDICTED BY IDOCK:   -5.82 KCAL/MOL
REMARK 924 INTRA-LIGAND FREE ENERGY PREDICTED BY IDOCK:   -1.73 KCAL/MOL
REMARK 927      BINDING AFFINITY PREDICTED BY RF-SCORE:    0.00 PKD
ROOT
HETATM    1  C   UNL     1      -8.569   6.549  69.466  1.00  0.00    -0.134 C  
HETATM    2  C   UNL     1      -8.591   7.309  68.136  1.00  0.00    -0.122 C  
HETATM    3  C   UNL     1     -10.065   7.327  67.730  1.00  0.00    -0.225 C  
HETATM    4  C   UNL     1     -10.778   6.574  68.857  1.00  0.00    -0.273 C  
HETATM    5  N   UNL     1      -9.723   5.661  69.299  1.00  0.00    -0.147 NA 
HETATM    6  C   UNL     1     -11.234   7.540  69.957  1.00  0.00    -0.173 C  
HETATM    7  C   UNL     1     -10.099   8.187  70.782  1.00  0.00    -0.189 C  
HETATM    8  C   UNL     1     -10.050   4.829  70.445  1.00  0.00    -0.231 C  
HETATM    9  C   UNL     1      -8.725   7.489  70.669  1.00  0.00    -0.141 C  
ENDROOT
BRANCH   7  10
HETATM   10  O   UNL     1      -9.895   9.579  70.491  1.00  0.00    -0.248 OA 
BRANCH  10  11
HETATM   11  C   UNL     1     -10.915  10.227  69.711  1.00  0.00    -0.289 C  
BRANCH  11  12
HETATM   12  C   UNL     1     -10.300  10.762  68.423  1.00  0.00    -0.199 A  
HETATM   13  C   UNL     1      -8.939  11.076  68.321  1.00  0.00    -0.155 A  
HETATM   14  C   UNL     1     -11.121  10.947  67.296  1.00  0.00    -0.350 A  
HETATM   15  C   UNL     1      -8.401  11.518  67.112  1.00  0.00    -0.160 A  
HETATM   16  C   UNL     1     -10.581  11.387  66.087  1.00  0.00    -0.316 A  
HETATM   17  C   UNL     1      -9.219  11.663  65.993  1.00  0.00    -0.218 A  
ENDBRANCH  11  12
BRANCH  11  18
HETATM   18  C   UNL     1     -11.708  11.290  70.459  1.00  0.00    -0.345 A  
HETATM   19  C   UNL     1     -12.365  13.600  70.829  1.00  0.00    -0.446 A  
HETATM   20  C   UNL     1     -11.564  12.656  70.181  1.00  0.00    -0.141 A  
HETATM   21  C   UNL     1     -13.446  11.843  72.079  1.00  0.00    -0.336 A  
HETATM   22  C   UNL     1     -13.310  13.193  71.770  1.00  0.00    -0.477 A  
HETATM   23  C   UNL     1     -12.649  10.897  71.431  1.00  0.00    -0.508 A  
ENDBRANCH  11  18
ENDBRANCH  10  11
ENDBRANCH   7  10
TORSDOF 4
ENDMDL
MODEL       76
REMARK 921   NORMALIZED FREE ENERGY PREDICTED BY IDOCK:   -4.97 KCAL/MOL
REMARK 922        TOTAL FREE ENERGY PREDICTED BY IDOCK:   -7.55 KCAL/MOL
REMARK 923 INTER-LIGAND FREE ENERGY PREDICTED BY IDOCK:   -5.99 KCAL/MOL
REMARK 924 INTRA-LIGAND FREE ENERGY PREDICTED BY IDOCK:   -1.55 KCAL/MOL
REMARK 927      BINDING AFFINITY PREDICTED BY RF-SCORE:    0.00 PKD
ROOT
HETATM    1  C   UNL     1     -10.420  12.390  66.248  1.00  0.00    -0.245 C  
HETATM    2  C   UNL     1      -9.078  12.794  66.866  1.00  0.00    -0.221 C  
HETATM    3  C   UNL     1      -9.416  13.974  67.777  1.00  0.00    -0.209 C  
HETATM    4  C   UNL     1     -10.928  14.159  67.614  1.00  0.00    -0.267 C  
HETATM    5  N   UNL     1     -11.125  13.674  66.247  1.00  0.00    -0.299 NA 
HETATM    6  C   UNL     1     -11.695  13.338  68.657  1.00  0.00    -0.376 C  
HETATM    7  C   UNL     1     -11.621  11.804  68.478  1.00  0.00    -0.321 C  
HETATM    8  C   UNL     1     -12.503  13.636  65.785  1.00  0.00    -0.477 C  
HETATM    9  C   UNL     1     -11.142  11.327  67.088  1.00  0.00    -0.364 C  
ENDROOT
BRANCH   7  10
HETATM   10  O   UNL     1     -10.800  11.149  69.458  1.00  0.00    -0.239 OA 
BRANCH  10  11
HETATM   11  C   UNL     1     -10.363   9.815  69.141  1.00  0.00    -0.211 C  
BRANCH  11  12
HETATM   12  C   UNL     1     -10.983   8.834  70.129  1.00  0.00    -0.236 A  
HETATM   13  C   UNL     1     -11.538   9.253  71.346  1.00  0.00    -0.437 A  
HETATM   14  C   UNL     1     -11.003   7.464  69.816  1.00  0.00    -0.215 A  
HETATM   15  C   UNL     1     -12.140   8.333  72.206  1.00  0.00    -0.439 A  
HETATM   16  C   UNL     1     -11.607   6.546  70.676  1.00  0.00    -0.442 A  
HETATM   17  C   UNL     1     -12.184   6.983  71.865  1.00  0.00    -0.362 A  
ENDBRANCH  11  12
BRANCH  11  18
HETATM   18  C   UNL     1      -8.854   9.650  69.030  1.00  0.00    -0.147 A  
HETATM   19  C   UNL     1      -6.618   9.757  69.975  1.00  0.00    -0.081 A  
HETATM   20  C   UNL     1      -7.990   9.997  70.078  1.00  0.00    -0.166 A  
HETATM   21  C   UNL     1      -6.929   8.856  67.759  1.00  0.00    -0.075 A  
HETATM   22  C   UNL     1      -6.090   9.179  68.820  1.00  0.00    -0.044 A  
HETATM   23  C   UNL     1      -8.302   9.091  67.861  1.00  0.00    -0.117 A  
ENDBRANCH  11  18
ENDBRANCH  10  11
ENDBRANCH   7  10
TORSDOF 4
ENDMDL
MODEL       77
REMARK 921   NORMALIZED FREE ENERGY PREDICTED BY IDOCK:   -4.96 KCAL/MOL
REMARK 922        TOTAL FREE ENERGY PREDICTED BY IDOCK:   -7.53 KCAL/MOL
REMARK 923 INTER-LIGAND FREE ENERGY PREDICTED BY IDOCK:   -5.81 KCAL/MOL
REMARK 924 INTRA-LIGAND FREE ENERGY PREDICTED BY IDOCK:   -1.72 KCAL/MOL
REMARK 927      BINDING AFFINITY PREDICTED BY RF-SCORE:    0.00 PKD
ROOT
HETATM    1  C   UNL     1     -11.074  12.514  66.097  1.00  0.00    -0.298 C  
HETATM    2  C   UNL     1     -10.639  11.221  65.399  1.00  0.00    -0.312 C  
HETATM    3  C   UNL     1      -9.174  11.045  65.798  1.00  0.00    -0.226 C  
HETATM    4  C   UNL     1      -8.878  12.251  66.695  1.00  0.00    -0.167 C  
HETATM    5  N   UNL     1      -9.805  13.243  66.150  1.00  0.00    -0.287 NA 
HETATM    6  C   UNL     1      -9.153  11.919  68.166  1.00  0.00    -0.190 C  
HETATM    7  C   UNL     1     -10.640  11.709  68.531  1.00  0.00    -0.215 C  
HETATM    8  C   UNL     1      -9.840  14.520  66.843  1.00  0.00    -0.262 C  
HETATM    9  C   UNL     1     -11.653  12.246  67.494  1.00  0.00    -0.422 C  
ENDROOT
BRANCH   7  10
HETATM   10  O   UNL     1     -10.983  10.339  68.789  1.00  0.00    -0.225 OA 
BRANCH  10  11
HETATM   11  C   UNL     1      -9.924   9.493  69.275  1.00  0.00    -0.187 C  
BRANCH  11  12
HETATM   12  C   UNL     1      -9.537   8.498  68.187  1.00  0.00    -0.158 A  
HETATM   13  C   UNL     1      -8.200   8.219  67.874  1.00  0.00    -0.128 A  
HETATM   14  C   UNL     1     -10.549   7.835  67.472  1.00  0.00    -0.319 A  
HETATM   15  C   UNL     1      -7.882   7.267  66.904  1.00  0.00    -0.111 A  
HETATM   16  C   UNL     1     -10.230   6.882  66.504  1.00  0.00    -0.127 A  
HETATM   17  C   UNL     1      -8.896   6.592  66.228  1.00  0.00    -0.154 A  
ENDBRANCH  11  12
BRANCH  11  18
HETATM   18  C   UNL     1     -10.214   8.814  70.606  1.00  0.00    -0.247 A  
HETATM   19  C   UNL     1      -9.499   7.931  72.754  1.00  0.00    -0.304 A  
HETATM   20  C   UNL     1      -9.193   8.480  71.506  1.00  0.00    -0.288 A  
HETATM   21  C   UNL     1     -11.850   7.995  72.219  1.00  0.00    -0.424 A  
HETATM   22  C   UNL     1     -10.826   7.697  73.113  1.00  0.00    -0.440 A  
HETATM   23  C   UNL     1     -11.547   8.547  70.973  1.00  0.00    -0.317 A  
ENDBRANCH  11  18
ENDBRANCH  10  11
ENDBRANCH   7  10
TORSDOF 4
ENDMDL
MODEL       78
REMARK 921   NORMALIZED FREE ENERGY PREDICTED BY IDOCK:   -4.94 KCAL/MOL
REMARK 922        TOTAL FREE ENERGY PREDICTED BY IDOCK:   -7.50 KCAL/MOL
REMARK 923 INTER-LIGAND FREE ENERGY PREDICTED BY IDOCK:   -6.22 KCAL/MOL
REMARK 924 INTRA-LIGAND FREE ENERGY PREDICTED BY IDOCK:   -1.28 KCAL/MOL
REMARK 927      BINDING AFFINITY PREDICTED BY RF-SCORE:    0.00 PKD
ROOT
HETATM    1  C   UNL     1      -9.556  17.984  66.641  1.00  0.00    -0.315 C  
HETATM    2  C   UNL     1      -8.239  17.551  65.990  1.00  0.00    -0.138 C  
HETATM    3  C   UNL     1      -7.325  17.208  67.167  1.00  0.00    -0.198 C  
HETATM    4  C   UNL     1      -8.188  17.471  68.406  1.00  0.00    -0.278 C  
HETATM    5  N   UNL     1      -9.074  18.526  67.914  1.00  0.00    -0.285 NA 
HETATM    6  C   UNL     1      -8.941  16.204  68.826  1.00  0.00    -0.236 C  
HETATM    7  C   UNL     1     -10.051  15.740  67.856  1.00  0.00    -0.230 C  
HETATM    8  C   UNL     1     -10.103  18.968  68.841  1.00  0.00    -0.331 C  
HETATM    9  C   UNL     1     -10.517  16.803  66.835  1.00  0.00    -0.269 C  
ENDROOT
BRANCH   7  10
HETATM   10  O   UNL     1      -9.712  14.558  67.114  1.00  0.00    -0.230 OA 
BRANCH  10  11
HETATM   11  C   UNL     1     -10.624  13.450  67.219  1.00  0.00    -0.255 C  
BRANCH  11  12
HETATM   12  C   UNL     1      -9.987  12.353  68.064  1.00  0.00    -0.207 A  
HETATM   13  C   UNL     1     -10.737  11.304  68.612  1.00  0.00    -0.241 A  
HETATM   14  C   UNL     1      -8.602  12.388  68.303  1.00  0.00    -0.172 A  
HETATM   15  C   UNL     1     -10.112  10.291  69.341  1.00  0.00    -0.255 A  
HETATM   16  C   UNL     1      -7.979  11.374  69.031  1.00  0.00    -0.026 A  
HETATM   17  C   UNL     1      -8.734  10.320  69.540  1.00  0.00    -0.155 A  
ENDBRANCH  11  12
BRANCH  11  18
HETATM   18  C   UNL     1     -11.146  12.928  65.888  1.00  0.00    -0.310 A  
HETATM   19  C   UNL     1     -12.951  12.516  64.314  1.00  0.00    -0.253 A  
HETATM   20  C   UNL     1     -12.512  12.927  65.575  1.00  0.00    -0.462 A  
HETATM   21  C   UNL     1     -10.675  12.057  63.659  1.00  0.00    -0.506 A  
HETATM   22  C   UNL     1     -12.033  12.090  63.354  1.00  0.00    -0.571 A  
HETATM   23  C   UNL     1     -10.234  12.470  64.917  1.00  0.00    -0.301 A  
ENDBRANCH  11  18
ENDBRANCH  10  11
ENDBRANCH   7  10
TORSDOF 4
ENDMDL
MODEL       79
REMARK 921   NORMALIZED FREE ENERGY PREDICTED BY IDOCK:   -4.93 KCAL/MOL
REMARK 922        TOTAL FREE ENERGY PREDICTED BY IDOCK:   -7.50 KCAL/MOL
REMARK 923 INTER-LIGAND FREE ENERGY PREDICTED BY IDOCK:   -6.46 KCAL/MOL
REMARK 924 INTRA-LIGAND FREE ENERGY PREDICTED BY IDOCK:   -1.04 KCAL/MOL
REMARK 927      BINDING AFFINITY PREDICTED BY RF-SCORE:    0.00 PKD
ROOT
HETATM    1  C   UNL     1     -10.386   6.848  71.140  1.00  0.00    -0.204 C  
HETATM    2  C   UNL     1     -11.674   6.493  70.390  1.00  0.00    -0.439 C  
HETATM    3  C   UNL     1     -12.773   7.250  71.137  1.00  0.00    -0.349 C  
HETATM    4  C   UNL     1     -12.033   7.983  72.260  1.00  0.00    -0.358 C  
HETATM    5  N   UNL     1     -10.904   7.080  72.491  1.00  0.00    -0.238 NA 
HETATM    6  C   UNL     1     -11.598   9.381  71.807  1.00  0.00    -0.433 C  
HETATM    7  C   UNL     1     -10.490   9.414  70.729  1.00  0.00    -0.304 C  
HETATM    8  C   UNL     1      -9.930   7.528  73.471  1.00  0.00    -0.315 C  
HETATM    9  C   UNL     1      -9.705   8.094  70.554  1.00  0.00    -0.181 C  
ENDROOT
BRANCH   7  10
HETATM   10  O   UNL     1     -10.961   9.804  69.430  1.00  0.00    -0.231 OA 
BRANCH  10  11
HETATM   11  C   UNL     1     -10.047  10.560  68.616  1.00  0.00    -0.180 C  
BRANCH  11  12
HETATM   12  C   UNL     1     -10.795  11.711  67.955  1.00  0.00    -0.259 A  
HETATM   13  C   UNL     1     -11.124  11.703  66.593  1.00  0.00    -0.364 A  
HETATM   14  C   UNL     1     -11.172  12.820  68.732  1.00  0.00    -0.327 A  
HETATM   15  C   UNL     1     -11.852  12.753  66.032  1.00  0.00    -0.495 A  
HETATM   16  C   UNL     1     -11.901  13.869  68.170  1.00  0.00    -0.407 A  
HETATM   17  C   UNL     1     -12.249  13.829  66.823  1.00  0.00    -0.440 A  
ENDBRANCH  11  12
BRANCH  11  18
HETATM   18  C   UNL     1      -9.254   9.732  67.614  1.00  0.00    -0.143 A  
HETATM   19  C   UNL     1      -9.090   7.947  65.974  1.00  0.00    -0.181 A  
HETATM   20  C   UNL     1      -9.818   8.635  66.947  1.00  0.00    -0.305 A  
HETATM   21  C   UNL     1      -7.203   9.405  66.335  1.00  0.00    -0.089 A  
HETATM   22  C   UNL     1      -7.787   8.337  65.662  1.00  0.00    -0.104 A  
HETATM   23  C   UNL     1      -7.929  10.097  67.306  1.00  0.00    -0.110 A  
ENDBRANCH  11  18
ENDBRANCH  10  11
ENDBRANCH   7  10
TORSDOF 4
ENDMDL
MODEL       80
REMARK 921   NORMALIZED FREE ENERGY PREDICTED BY IDOCK:   -4.93 KCAL/MOL
REMARK 922        TOTAL FREE ENERGY PREDICTED BY IDOCK:   -7.50 KCAL/MOL
REMARK 923 INTER-LIGAND FREE ENERGY PREDICTED BY IDOCK:   -6.03 KCAL/MOL
REMARK 924 INTRA-LIGAND FREE ENERGY PREDICTED BY IDOCK:   -1.46 KCAL/MOL
REMARK 927      BINDING AFFINITY PREDICTED BY RF-SCORE:    0.00 PKD
ROOT
HETATM    1  C   UNL     1      -9.334  11.763  68.035  1.00  0.00    -0.184 C  
HETATM    2  C   UNL     1     -10.698  12.144  68.617  1.00  0.00    -0.261 C  
HETATM    3  C   UNL     1     -11.648  11.059  68.111  1.00  0.00    -0.345 C  
HETATM    4  C   UNL     1     -10.757  10.135  67.274  1.00  0.00    -0.254 C  
HETATM    5  N   UNL     1      -9.737  11.075  66.806  1.00  0.00    -0.190 NA 
HETATM    6  C   UNL     1     -10.179   9.006  68.135  1.00  0.00    -0.247 C  
HETATM    7  C   UNL     1      -9.142   9.444  69.195  1.00  0.00    -0.148 C  
HETATM    8  C   UNL     1      -8.658  10.495  66.024  1.00  0.00    -0.160 C  
HETATM    9  C   UNL     1      -8.540  10.851  68.981  1.00  0.00    -0.110 C  
ENDROOT
BRANCH   7  10
HETATM   10  O   UNL     1      -9.638   9.395  70.542  1.00  0.00    -0.239 OA 
BRANCH  10  11
HETATM   11  C   UNL     1     -10.135   8.123  70.996  1.00  0.00    -0.187 C  
BRANCH  11  12
HETATM   12  C   UNL     1     -11.599   8.269  71.396  1.00  0.00    -0.322 A  
HETATM   13  C   UNL     1     -12.166   9.512  71.706  1.00  0.00    -0.465 A  
HETATM   14  C   UNL     1     -12.411   7.124  71.457  1.00  0.00    -0.406 A  
HETATM   15  C   UNL     1     -13.522   9.615  72.022  1.00  0.00    -0.514 A  
HETATM   16  C   UNL     1     -13.766   7.228  71.771  1.00  0.00    -0.399 A  
HETATM   17  C   UNL     1     -14.323   8.475  72.044  1.00  0.00    -0.537 A  
ENDBRANCH  11  12
BRANCH  11  18
HETATM   18  C   UNL     1      -9.299   7.467  72.086  1.00  0.00    -0.164 A  
HETATM   19  C   UNL     1      -7.767   5.746  72.858  1.00  0.00    -0.097 A  
HETATM   20  C   UNL     1      -8.589   6.279  71.862  1.00  0.00    -0.128 A  
HETATM   21  C   UNL     1      -8.375   7.549  74.342  1.00  0.00    -0.255 A  
HETATM   22  C   UNL     1      -7.653   6.385  74.093  1.00  0.00    -0.091 A  
HETATM   23  C   UNL     1      -9.194   8.085  73.347  1.00  0.00    -0.332 A  
ENDBRANCH  11  18
ENDBRANCH  10  11
ENDBRANCH   7  10
TORSDOF 4
ENDMDL
MODEL       81
REMARK 921   NORMALIZED FREE ENERGY PREDICTED BY IDOCK:   -4.90 KCAL/MOL
REMARK 922        TOTAL FREE ENERGY PREDICTED BY IDOCK:   -7.46 KCAL/MOL
REMARK 923 INTER-LIGAND FREE ENERGY PREDICTED BY IDOCK:   -5.88 KCAL/MOL
REMARK 924 INTRA-LIGAND FREE ENERGY PREDICTED BY IDOCK:   -1.57 KCAL/MOL
REMARK 927      BINDING AFFINITY PREDICTED BY RF-SCORE:    0.00 PKD
ROOT
HETATM    1  C   UNL     1     -10.073  17.136  66.849  1.00  0.00    -0.298 C  
HETATM    2  C   UNL     1      -9.337  16.004  66.125  1.00  0.00    -0.377 C  
HETATM    3  C   UNL     1      -8.295  15.519  67.132  1.00  0.00    -0.243 C  
HETATM    4  C   UNL     1      -8.510  16.410  68.359  1.00  0.00    -0.204 C  
HETATM    5  N   UNL     1      -9.018  17.632  67.736  1.00  0.00    -0.244 NA 
HETATM    6  C   UNL     1      -9.512  15.772  69.329  1.00  0.00    -0.270 C  
HETATM    7  C   UNL     1     -10.971  15.703  68.824  1.00  0.00    -0.281 C  
HETATM    8  C   UNL     1      -9.410  18.691  68.652  1.00  0.00    -0.341 C  
HETATM    9  C   UNL     1     -11.295  16.623  67.625  1.00  0.00     0.114 C  
ENDROOT
BRANCH   7  10
HETATM   10  O   UNL     1     -11.398  14.378  68.471  1.00  0.00    -0.255 OA 
BRANCH  10  11
HETATM   11  C   UNL     1     -10.661  13.290  69.056  1.00  0.00    -0.065 C  
BRANCH  11  12
HETATM   12  C   UNL     1      -9.928  12.530  67.956  1.00  0.00    -0.219 A  
HETATM   13  C   UNL     1      -8.713  11.872  68.188  1.00  0.00    -0.173 A  
HETATM   14  C   UNL     1     -10.484  12.484  66.666  1.00  0.00    -0.252 A  
HETATM   15  C   UNL     1      -8.093  11.147  67.169  1.00  0.00    -0.138 A  
HETATM   16  C   UNL     1      -9.864  11.757  65.649  1.00  0.00    -0.265 A  
HETATM   17  C   UNL     1      -8.674  11.081  65.905  1.00  0.00    -0.182 A  
ENDBRANCH  11  12
BRANCH  11  18
HETATM   18  C   UNL     1     -11.486  12.370  69.945  1.00  0.00    -0.172 A  
HETATM   19  C   UNL     1     -13.240  11.990  71.583  1.00  0.00    -0.361 A  
HETATM   20  C   UNL     1     -12.443  12.865  70.841  1.00  0.00    -0.383 A  
HETATM   21  C   UNL     1     -12.117  10.102  70.586  1.00  0.00    -0.411 A  
HETATM   22  C   UNL     1     -13.083  10.611  71.449  1.00  0.00    -0.499 A  
HETATM   23  C   UNL     1     -11.322  10.974  69.841  1.00  0.00    -0.364 A  
ENDBRANCH  11  18
ENDBRANCH  10  11
ENDBRANCH   7  10
TORSDOF 4
ENDMDL
MODEL       82
REMARK 921   NORMALIZED FREE ENERGY PREDICTED BY IDOCK:   -4.89 KCAL/MOL
REMARK 922        TOTAL FREE ENERGY PREDICTED BY IDOCK:   -7.44 KCAL/MOL
REMARK 923 INTER-LIGAND FREE ENERGY PREDICTED BY IDOCK:   -6.00 KCAL/MOL
REMARK 924 INTRA-LIGAND FREE ENERGY PREDICTED BY IDOCK:   -1.45 KCAL/MOL
REMARK 927      BINDING AFFINITY PREDICTED BY RF-SCORE:    0.00 PKD
ROOT
HETATM    1  C   UNL     1      -8.724   8.918  68.431  1.00  0.00    -0.134 C  
HETATM    2  C   UNL     1     -10.161   9.281  68.044  1.00  0.00    -0.255 C  
HETATM    3  C   UNL     1     -10.517   8.299  66.928  1.00  0.00    -0.365 C  
HETATM    4  C   UNL     1      -9.256   7.446  66.757  1.00  0.00    -0.156 C  
HETATM    5  N   UNL     1      -8.217   8.394  67.160  1.00  0.00    -0.107 NA 
HETATM    6  C   UNL     1      -9.311   6.203  67.652  1.00  0.00    -0.112 C  
HETATM    7  C   UNL     1      -9.213   6.474  69.171  1.00  0.00    -0.135 C  
HETATM    8  C   UNL     1      -6.862   7.869  67.191  1.00  0.00    -0.073 C  
HETATM    9  C   UNL     1      -8.678   7.873  69.554  1.00  0.00    -0.134 C  
ENDROOT
BRANCH   7  10
HETATM   10  O   UNL     1     -10.452   6.286  69.872  1.00  0.00    -0.193 OA 
BRANCH  10  11
HETATM   11  C   UNL     1     -10.552   6.894  71.172  1.00  0.00    -0.222 C  
BRANCH  11  12
HETATM   12  C   UNL     1     -10.414   5.818  72.242  1.00  0.00    -0.253 A  
HETATM   13  C   UNL     1     -10.489   6.113  73.610  1.00  0.00    -0.289 A  
HETATM   14  C   UNL     1     -10.206   4.484  71.851  1.00  0.00    -0.241 A  
HETATM   15  C   UNL     1     -10.406   5.095  74.561  1.00  0.00    -0.301 A  
HETATM   16  C   UNL     1     -10.125   3.467  72.803  1.00  0.00    -0.229 A  
HETATM   17  C   UNL     1     -10.235   3.773  74.157  1.00  0.00    -0.229 A  
ENDBRANCH  11  12
BRANCH  11  18
HETATM   18  C   UNL     1     -11.788   7.759  71.375  1.00  0.00    -0.324 A  
HETATM   19  C   UNL     1     -14.169   8.020  71.786  1.00  0.00    -0.550 A  
HETATM   20  C   UNL     1     -13.067   7.204  71.520  1.00  0.00    -0.427 A  
HETATM   21  C   UNL     1     -12.753   9.972  71.730  1.00  0.00    -0.526 A  
HETATM   22  C   UNL     1     -14.011   9.401  71.900  1.00  0.00    -0.302 A  
HETATM   23  C   UNL     1     -11.649   9.158  71.467  1.00  0.00    -0.439 A  
ENDBRANCH  11  18
ENDBRANCH  10  11
ENDBRANCH   7  10
TORSDOF 4
ENDMDL
MODEL       83
REMARK 921   NORMALIZED FREE ENERGY PREDICTED BY IDOCK:   -4.89 KCAL/MOL
REMARK 922        TOTAL FREE ENERGY PREDICTED BY IDOCK:   -7.44 KCAL/MOL
REMARK 923 INTER-LIGAND FREE ENERGY PREDICTED BY IDOCK:   -6.82 KCAL/MOL
REMARK 924 INTRA-LIGAND FREE ENERGY PREDICTED BY IDOCK:   -0.63 KCAL/MOL
REMARK 927      BINDING AFFINITY PREDICTED BY RF-SCORE:    0.00 PKD
ROOT
HETATM    1  C   UNL     1      -9.095  14.977  65.803  1.00  0.00     0.162 C  
HETATM    2  C   UNL     1      -8.269  15.390  67.025  1.00  0.00    -0.270 C  
HETATM    3  C   UNL     1      -9.228  16.228  67.870  1.00  0.00    -0.201 C  
HETATM    4  C   UNL     1     -10.534  16.234  67.068  1.00  0.00    -0.306 C  
HETATM    5  N   UNL     1     -10.026  16.103  65.701  1.00  0.00    -0.466 NA 
HETATM    6  C   UNL     1     -11.437  15.068  67.485  1.00  0.00    -0.339 C  
HETATM    7  C   UNL     1     -10.925  13.662  67.099  1.00  0.00    -0.288 C  
HETATM    8  C   UNL     1     -11.037  15.994  64.662  1.00  0.00    -0.332 C  
HETATM    9  C   UNL     1      -9.817  13.640  66.022  1.00  0.00    -0.290 C  
ENDROOT
BRANCH   7  10
HETATM   10  O   UNL     1     -10.448  12.894  68.215  1.00  0.00    -0.229 OA 
BRANCH  10  11
HETATM   11  C   UNL     1     -11.313  11.847  68.691  1.00  0.00    -0.276 C  
BRANCH  11  12
HETATM   12  C   UNL     1     -12.000  12.305  69.971  1.00  0.00    -0.379 A  
HETATM   13  C   UNL     1     -12.038  13.651  70.357  1.00  0.00    -0.421 A  
HETATM   14  C   UNL     1     -12.620  11.350  70.796  1.00  0.00    -0.409 A  
HETATM   15  C   UNL     1     -12.717  14.040  71.512  1.00  0.00    -0.443 A  
HETATM   16  C   UNL     1     -13.300  11.741  71.951  1.00  0.00    -0.401 A  
HETATM   17  C   UNL     1     -13.356  13.087  72.302  1.00  0.00    -0.606 A  
ENDBRANCH  11  12
BRANCH  11  18
HETATM   18  C   UNL     1     -10.641  10.490  68.846  1.00  0.00    -0.243 A  
HETATM   19  C   UNL     1      -9.276   8.912  70.093  1.00  0.00    -0.195 A  
HETATM   20  C   UNL     1      -9.812  10.193  69.938  1.00  0.00    -0.223 A  
HETATM   21  C   UNL     1     -10.348   8.203  68.051  1.00  0.00    -0.267 A  
HETATM   22  C   UNL     1      -9.551   7.916  69.156  1.00  0.00    -0.153 A  
HETATM   23  C   UNL     1     -10.887   9.481  67.896  1.00  0.00    -0.240 A  
ENDBRANCH  11  18
ENDBRANCH  10  11
ENDBRANCH   7  10
TORSDOF 4
ENDMDL
MODEL       84
REMARK 921   NORMALIZED FREE ENERGY PREDICTED BY IDOCK:   -4.89 KCAL/MOL
REMARK 922        TOTAL FREE ENERGY PREDICTED BY IDOCK:   -7.44 KCAL/MOL
REMARK 923 INTER-LIGAND FREE ENERGY PREDICTED BY IDOCK:   -5.91 KCAL/MOL
REMARK 924 INTRA-LIGAND FREE ENERGY PREDICTED BY IDOCK:   -1.53 KCAL/MOL
REMARK 927      BINDING AFFINITY PREDICTED BY RF-SCORE:    0.00 PKD
ROOT
HETATM    1  C   UNL     1     -10.655  12.654  64.523  1.00  0.00    -0.346 C  
HETATM    2  C   UNL     1      -9.962  13.987  64.822  1.00  0.00    -0.074 C  
HETATM    3  C   UNL     1     -11.051  15.039  64.619  1.00  0.00    -0.335 C  
HETATM    4  C   UNL     1     -12.289  14.231  64.218  1.00  0.00    -0.377 C  
HETATM    5  N   UNL     1     -11.673  13.079  63.559  1.00  0.00    -0.495 NA 
HETATM    6  C   UNL     1     -13.114  13.845  65.452  1.00  0.00    -0.236 C  
HETATM    7  C   UNL     1     -12.451  12.816  66.396  1.00  0.00     0.241 C  
HETATM    8  C   UNL     1     -12.591  12.043  63.114  1.00  0.00    -0.220 C  
HETATM    9  C   UNL     1     -11.269  12.030  65.785  1.00  0.00    -0.383 C  
ENDROOT
BRANCH   7  10
HETATM   10  O   UNL     1     -11.991  13.381  67.634  1.00  0.00    -0.348 OA 
BRANCH  10  11
HETATM   11  C   UNL     1     -10.944  12.667  68.315  1.00  0.00    -0.248 C  
BRANCH  11  12
HETATM   12  C   UNL     1     -11.532  11.941  69.519  1.00  0.00    -0.357 A  
HETATM   13  C   UNL     1     -11.167  10.630  69.850  1.00  0.00    -0.378 A  
HETATM   14  C   UNL     1     -12.470  12.604  70.329  1.00  0.00    -0.163 A  
HETATM   15  C   UNL     1     -11.690  10.013  70.987  1.00  0.00    -0.479 A  
HETATM   16  C   UNL     1     -12.991  11.987  71.467  1.00  0.00    -0.407 A  
HETATM   17  C   UNL     1     -12.592  10.695  71.801  1.00  0.00    -0.411 A  
ENDBRANCH  11  12
BRANCH  11  18
HETATM   18  C   UNL     1      -9.733  13.513  68.683  1.00  0.00    -0.104 A  
HETATM   19  C   UNL     1      -7.335  13.906  68.728  1.00  0.00    -0.118 A  
HETATM   20  C   UNL     1      -8.422  13.072  68.454  1.00  0.00    -0.118 A  
HETATM   21  C   UNL     1      -8.836  15.628  69.504  1.00  0.00    -0.213 A  
HETATM   22  C   UNL     1      -7.542  15.185  69.244  1.00  0.00    -0.201 A  
HETATM   23  C   UNL     1      -9.924  14.798  69.228  1.00  0.00    -0.146 A  
ENDBRANCH  11  18
ENDBRANCH  10  11
ENDBRANCH   7  10
TORSDOF 4
ENDMDL
MODEL       85
REMARK 921   NORMALIZED FREE ENERGY PREDICTED BY IDOCK:   -4.89 KCAL/MOL
REMARK 922        TOTAL FREE ENERGY PREDICTED BY IDOCK:   -7.44 KCAL/MOL
REMARK 923 INTER-LIGAND FREE ENERGY PREDICTED BY IDOCK:   -6.20 KCAL/MOL
REMARK 924 INTRA-LIGAND FREE ENERGY PREDICTED BY IDOCK:   -1.24 KCAL/MOL
REMARK 927      BINDING AFFINITY PREDICTED BY RF-SCORE:    0.00 PKD
ROOT
HETATM    1  C   UNL     1      -6.675  10.381  68.332  1.00  0.00    -0.060 C  
HETATM    2  C   UNL     1      -6.700  10.891  69.776  1.00  0.00    -0.144 C  
HETATM    3  C   UNL     1      -6.457  12.396  69.655  1.00  0.00    -0.063 C  
HETATM    4  C   UNL     1      -6.309  12.636  68.149  1.00  0.00    -0.080 C  
HETATM    5  N   UNL     1      -5.768  11.349  67.710  1.00  0.00    -0.044 NA 
HETATM    6  C   UNL     1      -7.664  12.965  67.513  1.00  0.00    -0.174 C  
HETATM    7  C   UNL     1      -8.677  11.798  67.471  1.00  0.00    -0.159 C  
HETATM    8  C   UNL     1      -5.577  11.203  66.276  1.00  0.00    -0.149 C  
HETATM    9  C   UNL     1      -8.071  10.394  67.693  1.00  0.00    -0.107 C  
ENDROOT
BRANCH   7  10
HETATM   10  O   UNL     1      -9.764  11.944  68.398  1.00  0.00    -0.203 OA 
BRANCH  10  11
HETATM   11  C   UNL     1     -10.416  13.227  68.427  1.00  0.00    -0.253 C  
BRANCH  11  12
HETATM   12  C   UNL     1     -11.442  13.244  69.553  1.00  0.00    -0.299 A  
HETATM   13  C   UNL     1     -11.915  12.068  70.150  1.00  0.00    -0.401 A  
HETATM   14  C   UNL     1     -11.934  14.478  70.013  1.00  0.00    -0.388 A  
HETATM   15  C   UNL     1     -12.819  12.125  71.211  1.00  0.00    -0.349 A  
HETATM   16  C   UNL     1     -12.838  14.533  71.075  1.00  0.00    -0.418 A  
HETATM   17  C   UNL     1     -13.271  13.356  71.680  1.00  0.00    -0.449 A  
ENDBRANCH  11  12
BRANCH  11  18
HETATM   18  C   UNL     1     -11.008  13.668  67.096  1.00  0.00    -0.299 A  
HETATM   19  C   UNL     1     -11.129  15.202  65.215  1.00  0.00    -0.389 A  
HETATM   20  C   UNL     1     -10.627  14.866  66.475  1.00  0.00    -0.306 A  
HETATM   21  C   UNL     1     -12.436  13.175  65.181  1.00  0.00    -0.539 A  
HETATM   22  C   UNL     1     -12.025  14.353  64.565  1.00  0.00    -0.487 A  
HETATM   23  C   UNL     1     -11.933  12.835  66.438  1.00  0.00    -0.443 A  
ENDBRANCH  11  18
ENDBRANCH  10  11
ENDBRANCH   7  10
TORSDOF 4
ENDMDL
MODEL       86
REMARK 921   NORMALIZED FREE ENERGY PREDICTED BY IDOCK:   -4.88 KCAL/MOL
REMARK 922        TOTAL FREE ENERGY PREDICTED BY IDOCK:   -7.43 KCAL/MOL
REMARK 923 INTER-LIGAND FREE ENERGY PREDICTED BY IDOCK:   -6.10 KCAL/MOL
REMARK 924 INTRA-LIGAND FREE ENERGY PREDICTED BY IDOCK:   -1.33 KCAL/MOL
REMARK 927      BINDING AFFINITY PREDICTED BY RF-SCORE:    0.00 PKD
ROOT
HETATM    1  C   UNL     1      -9.791   5.756  67.695  1.00  0.00    -0.126 C  
HETATM    2  C   UNL     1     -10.561   5.740  69.019  1.00  0.00    -0.351 C  
HETATM    3  C   UNL     1      -9.610   6.392  70.023  1.00  0.00    -0.171 C  
HETATM    4  C   UNL     1      -8.364   6.733  69.199  1.00  0.00    -0.125 C  
HETATM    5  N   UNL     1      -8.409   5.688  68.175  1.00  0.00    -0.100 NA 
HETATM    6  C   UNL     1      -8.465   8.147  68.616  1.00  0.00    -0.127 C  
HETATM    7  C   UNL     1      -9.537   8.337  67.519  1.00  0.00    -0.154 C  
HETATM    8  C   UNL     1      -7.381   5.767  67.150  1.00  0.00    -0.077 C  
HETATM    9  C   UNL     1     -10.067   7.031  66.885  1.00  0.00    -0.296 C  
ENDROOT
BRANCH   7  10
HETATM   10  O   UNL     1     -10.679   9.093  67.953  1.00  0.00    -0.230 OA 
BRANCH  10  11
HETATM   11  C   UNL     1     -10.410  10.261  68.749  1.00  0.00    -0.195 C  
BRANCH  11  12
HETATM   12  C   UNL     1     -11.355  10.282  69.945  1.00  0.00    -0.354 A  
HETATM   13  C   UNL     1     -12.107  11.416  70.281  1.00  0.00    -0.459 A  
HETATM   14  C   UNL     1     -11.482   9.130  70.740  1.00  0.00    -0.337 A  
HETATM   15  C   UNL     1     -12.998  11.384  71.354  1.00  0.00    -0.468 A  
HETATM   16  C   UNL     1     -12.375   9.099  71.812  1.00  0.00    -0.444 A  
HETATM   17  C   UNL     1     -13.139  10.224  72.112  1.00  0.00    -0.444 A  
ENDBRANCH  11  12
BRANCH  11  18
HETATM   18  C   UNL     1     -10.422  11.572  67.977  1.00  0.00    -0.214 A  
HETATM   19  C   UNL     1      -9.537  13.788  67.515  1.00  0.00    -0.219 A  
HETATM   20  C   UNL     1      -9.556  12.628  68.294  1.00  0.00    -0.208 A  
HETATM   21  C   UNL     1     -11.275  12.886  66.107  1.00  0.00    -0.326 A  
HETATM   22  C   UNL     1     -10.388  13.912  66.418  1.00  0.00    -0.289 A  
HETATM   23  C   UNL     1     -11.294  11.725  66.882  1.00  0.00    -0.386 A  
ENDBRANCH  11  18
ENDBRANCH  10  11
ENDBRANCH   7  10
TORSDOF 4
ENDMDL
MODEL       87
REMARK 921   NORMALIZED FREE ENERGY PREDICTED BY IDOCK:   -4.87 KCAL/MOL
REMARK 922        TOTAL FREE ENERGY PREDICTED BY IDOCK:   -7.42 KCAL/MOL
REMARK 923 INTER-LIGAND FREE ENERGY PREDICTED BY IDOCK:   -5.68 KCAL/MOL
REMARK 924 INTRA-LIGAND FREE ENERGY PREDICTED BY IDOCK:   -1.74 KCAL/MOL
REMARK 927      BINDING AFFINITY PREDICTED BY RF-SCORE:    0.00 PKD
ROOT
HETATM    1  C   UNL     1     -10.857  13.212  63.879  1.00  0.00    -0.235 C  
HETATM    2  C   UNL     1     -10.539  14.425  64.758  1.00  0.00    -0.417 C  
HETATM    3  C   UNL     1     -11.630  14.418  65.829  1.00  0.00    -0.353 C  
HETATM    4  C   UNL     1     -12.493  13.201  65.484  1.00  0.00    -0.458 C  
HETATM    5  N   UNL     1     -12.312  13.128  64.033  1.00  0.00    -0.615 NA 
HETATM    6  C   UNL     1     -11.991  11.949  66.213  1.00  0.00     0.045 C  
HETATM    7  C   UNL     1     -10.620  11.413  65.741  1.00  0.00    -0.260 C  
HETATM    8  C   UNL     1     -12.953  12.003  63.374  1.00  0.00    -0.140 C  
HETATM    9  C   UNL     1     -10.144  11.944  64.369  1.00  0.00    -0.310 C  
ENDROOT
BRANCH   7  10
HETATM   10  O   UNL     1      -9.557  11.643  66.678  1.00  0.00    -0.195 OA 
BRANCH  10  11
HETATM   11  C   UNL     1      -9.943  12.094  67.989  1.00  0.00    -0.203 C  
BRANCH  11  12
HETATM   12  C   UNL     1      -9.192  13.379  68.320  1.00  0.00    -0.198 A  
HETATM   13  C   UNL     1      -9.748  14.382  69.124  1.00  0.00    -0.011 A  
HETATM   14  C   UNL     1      -7.897  13.568  67.805  1.00  0.00    -0.167 A  
HETATM   15  C   UNL     1      -9.013  15.524  69.445  1.00  0.00    -0.275 A  
HETATM   16  C   UNL     1      -7.163  14.710  68.129  1.00  0.00    -0.127 A  
HETATM   17  C   UNL     1      -7.718  15.682  68.957  1.00  0.00    -0.199 A  
ENDBRANCH  11  12
BRANCH  11  18
HETATM   18  C   UNL     1      -9.812  11.047  69.086  1.00  0.00    -0.117 A  
HETATM   19  C   UNL     1     -10.760   9.670  70.849  1.00  0.00    -0.402 A  
HETATM   20  C   UNL     1     -10.891  10.693  69.906  1.00  0.00    -0.301 A  
HETATM   21  C   UNL     1      -8.456   9.357  70.207  1.00  0.00    -0.237 A  
HETATM   22  C   UNL     1      -9.546   8.998  70.993  1.00  0.00    -0.348 A  
HETATM   23  C   UNL     1      -8.586  10.376  69.261  1.00  0.00    -0.159 A  
ENDBRANCH  11  18
ENDBRANCH  10  11
ENDBRANCH   7  10
TORSDOF 4
ENDMDL
MODEL       88
REMARK 921   NORMALIZED FREE ENERGY PREDICTED BY IDOCK:   -4.86 KCAL/MOL
REMARK 922        TOTAL FREE ENERGY PREDICTED BY IDOCK:   -7.41 KCAL/MOL
REMARK 923 INTER-LIGAND FREE ENERGY PREDICTED BY IDOCK:   -5.97 KCAL/MOL
REMARK 924 INTRA-LIGAND FREE ENERGY PREDICTED BY IDOCK:   -1.44 KCAL/MOL
REMARK 927      BINDING AFFINITY PREDICTED BY RF-SCORE:    0.00 PKD
ROOT
HETATM    1  C   UNL     1     -10.860  10.738  66.109  1.00  0.00    -0.054 C  
HETATM    2  C   UNL     1     -11.138  10.190  67.512  1.00  0.00    -0.251 C  
HETATM    3  C   UNL     1      -9.788   9.654  67.988  1.00  0.00    -0.175 C  
HETATM    4  C   UNL     1      -8.836   9.934  66.821  1.00  0.00    -0.135 C  
HETATM    5  N   UNL     1      -9.756   9.873  65.685  1.00  0.00    -0.261 NA 
HETATM    6  C   UNL     1      -8.167  11.305  66.978  1.00  0.00    -0.151 C  
HETATM    7  C   UNL     1      -9.107  12.522  66.817  1.00  0.00    -0.214 C  
HETATM    8  C   UNL     1      -9.176  10.180  64.388  1.00  0.00    -0.258 C  
HETATM    9  C   UNL     1     -10.462  12.220  66.139  1.00  0.00    -0.270 C  
ENDROOT
BRANCH   7  10
HETATM   10  O   UNL     1      -9.391  13.198  68.052  1.00  0.00    -0.205 OA 
BRANCH  10  11
HETATM   11  C   UNL     1     -10.424  14.199  68.013  1.00  0.00    -0.240 C  
BRANCH  11  12
HETATM   12  C   UNL     1      -9.796  15.559  67.732  1.00  0.00    -0.213 A  
HETATM   13  C   UNL     1      -8.886  16.157  68.613  1.00  0.00    -0.218 A  
HETATM   14  C   UNL     1     -10.136  16.240  66.550  1.00  0.00    -0.301 A  
HETATM   15  C   UNL     1      -8.294  17.381  68.300  1.00  0.00    -0.248 A  
HETATM   16  C   UNL     1      -9.542  17.464  66.237  1.00  0.00    -0.260 A  
HETATM   17  C   UNL     1      -8.614  18.028  67.108  1.00  0.00    -0.244 A  
ENDBRANCH  11  12
BRANCH  11  18
HETATM   18  C   UNL     1     -11.333  14.222  69.234  1.00  0.00    -0.322 A  
HETATM   19  C   UNL     1     -12.885  15.356  70.721  1.00  0.00    -0.524 A  
HETATM   20  C   UNL     1     -11.994  15.388  69.645  1.00  0.00    -0.366 A  
HETATM   21  C   UNL     1     -12.446  13.004  71.031  1.00  0.00    -0.385 A  
HETATM   22  C   UNL     1     -13.117  14.164  71.407  1.00  0.00    -0.428 A  
HETATM   23  C   UNL     1     -11.558  13.032  69.954  1.00  0.00    -0.249 A  
ENDBRANCH  11  18
ENDBRANCH  10  11
ENDBRANCH   7  10
TORSDOF 4
ENDMDL
MODEL       89
REMARK 921   NORMALIZED FREE ENERGY PREDICTED BY IDOCK:   -4.86 KCAL/MOL
REMARK 922        TOTAL FREE ENERGY PREDICTED BY IDOCK:   -7.40 KCAL/MOL
REMARK 923 INTER-LIGAND FREE ENERGY PREDICTED BY IDOCK:   -5.57 KCAL/MOL
REMARK 924 INTRA-LIGAND FREE ENERGY PREDICTED BY IDOCK:   -1.84 KCAL/MOL
REMARK 927      BINDING AFFINITY PREDICTED BY RF-SCORE:    0.00 PKD
ROOT
HETATM    1  C   UNL     1     -10.258  12.867  66.345  1.00  0.00    -0.267 C  
HETATM    2  C   UNL     1      -8.866  12.648  66.944  1.00  0.00    -0.201 C  
HETATM    3  C   UNL     1      -9.019  13.030  68.417  1.00  0.00    -0.126 C  
HETATM    4  C   UNL     1     -10.489  13.441  68.551  1.00  0.00    -0.252 C  
HETATM    5  N   UNL     1     -10.767  13.939  67.204  1.00  0.00    -0.281 NA 
HETATM    6  C   UNL     1     -11.359  12.239  68.937  1.00  0.00    -0.337 C  
HETATM    7  C   UNL     1     -11.512  11.154  67.846  1.00  0.00    -0.284 C  
HETATM    8  C   UNL     1     -12.140  14.348  66.955  1.00  0.00    -0.342 C  
HETATM    9  C   UNL     1     -11.121  11.600  66.418  1.00  0.00    -0.347 C  
ENDROOT
BRANCH   7  10
HETATM   10  O   UNL     1     -10.787   9.946  68.128  1.00  0.00    -0.241 OA 
BRANCH  10  11
HETATM   11  C   UNL     1     -10.288   9.796  69.469  1.00  0.00    -0.230 C  
BRANCH  11  12
HETATM   12  C   UNL     1      -8.778   9.589  69.423  1.00  0.00    -0.166 A  
HETATM   13  C   UNL     1      -7.992   9.575  70.582  1.00  0.00    -0.152 A  
HETATM   14  C   UNL     1      -8.149   9.403  68.179  1.00  0.00    -0.110 A  
HETATM   15  C   UNL     1      -6.619   9.336  70.506  1.00  0.00    -0.072 A  
HETATM   16  C   UNL     1      -6.777   9.162  68.105  1.00  0.00    -0.061 A  
HETATM   17  C   UNL     1      -6.015   9.118  69.270  1.00  0.00    -0.038 A  
ENDBRANCH  11  12
BRANCH  11  18
HETATM   18  C   UNL     1     -10.994   8.730  70.294  1.00  0.00    -0.255 A  
HETATM   19  C   UNL     1     -11.618   6.419  70.716  1.00  0.00    -0.402 A  
HETATM   20  C   UNL     1     -11.031   7.386  69.896  1.00  0.00    -0.239 A  
HETATM   21  C   UNL     1     -12.184   8.116  72.333  1.00  0.00    -0.374 A  
HETATM   22  C   UNL     1     -12.185   6.782  71.937  1.00  0.00    -0.377 A  
HETATM   23  C   UNL     1     -11.595   9.084  71.518  1.00  0.00    -0.413 A  
ENDBRANCH  11  18
ENDBRANCH  10  11
ENDBRANCH   7  10
TORSDOF 4
ENDMDL
MODEL       90
REMARK 921   NORMALIZED FREE ENERGY PREDICTED BY IDOCK:   -4.85 KCAL/MOL
REMARK 922        TOTAL FREE ENERGY PREDICTED BY IDOCK:   -7.39 KCAL/MOL
REMARK 923 INTER-LIGAND FREE ENERGY PREDICTED BY IDOCK:   -5.68 KCAL/MOL
REMARK 924 INTRA-LIGAND FREE ENERGY PREDICTED BY IDOCK:   -1.71 KCAL/MOL
REMARK 927      BINDING AFFINITY PREDICTED BY RF-SCORE:    0.00 PKD
ROOT
HETATM    1  C   UNL     1      -8.759   5.364  67.584  1.00  0.00    -0.106 C  
HETATM    2  C   UNL     1      -8.024   5.388  68.928  1.00  0.00    -0.094 C  
HETATM    3  C   UNL     1      -7.483   6.813  69.043  1.00  0.00    -0.096 C  
HETATM    4  C   UNL     1      -7.947   7.500  67.755  1.00  0.00    -0.118 C  
HETATM    5  N   UNL     1      -7.999   6.366  66.832  1.00  0.00    -0.108 NA 
HETATM    6  C   UNL     1      -9.311   8.172  67.955  1.00  0.00    -0.145 C  
HETATM    7  C   UNL     1     -10.502   7.207  68.154  1.00  0.00    -0.200 C  
HETATM    8  C   UNL     1      -8.492   6.662  65.498  1.00  0.00    -0.131 C  
HETATM    9  C   UNL     1     -10.239   5.744  67.731  1.00  0.00    -0.234 C  
ENDROOT
BRANCH   7  10
HETATM   10  O   UNL     1     -11.002   7.177  69.500  1.00  0.00    -0.238 OA 
BRANCH  10  11
HETATM   11  C   UNL     1     -10.445   8.140  70.412  1.00  0.00    -0.215 C  
BRANCH  11  12
HETATM   12  C   UNL     1      -9.975   7.425  71.673  1.00  0.00    -0.193 A  
HETATM   13  C   UNL     1     -10.316   6.095  71.947  1.00  0.00    -0.244 A  
HETATM   14  C   UNL     1      -9.171   8.119  72.595  1.00  0.00    -0.332 A  
HETATM   15  C   UNL     1      -9.828   5.457  73.089  1.00  0.00    -0.179 A  
HETATM   16  C   UNL     1      -8.683   7.479  73.736  1.00  0.00    -0.270 A  
HETATM   17  C   UNL     1      -9.003   6.146  73.976  1.00  0.00    -0.132 A  
ENDBRANCH  11  12
BRANCH  11  18
HETATM   18  C   UNL     1     -11.354   9.322  70.721  1.00  0.00    -0.349 A  
HETATM   19  C   UNL     1     -13.118  10.380  72.015  1.00  0.00    -0.521 A  
HETATM   20  C   UNL     1     -12.355   9.253  71.700  1.00  0.00    -0.450 A  
HETATM   21  C   UNL     1     -11.931  11.664  70.354  1.00  0.00    -0.448 A  
HETATM   22  C   UNL     1     -12.900  11.586  71.349  1.00  0.00    -0.489 A  
HETATM   23  C   UNL     1     -11.164  10.540  70.039  1.00  0.00    -0.386 A  
ENDBRANCH  11  18
ENDBRANCH  10  11
ENDBRANCH   7  10
TORSDOF 4
ENDMDL
MODEL       91
REMARK 921   NORMALIZED FREE ENERGY PREDICTED BY IDOCK:   -4.84 KCAL/MOL
REMARK 922        TOTAL FREE ENERGY PREDICTED BY IDOCK:   -7.38 KCAL/MOL
REMARK 923 INTER-LIGAND FREE ENERGY PREDICTED BY IDOCK:   -6.06 KCAL/MOL
REMARK 924 INTRA-LIGAND FREE ENERGY PREDICTED BY IDOCK:   -1.32 KCAL/MOL
REMARK 927      BINDING AFFINITY PREDICTED BY RF-SCORE:    0.00 PKD
ROOT
HETATM    1  C   UNL     1      -8.487  19.248  66.663  1.00  0.00    -0.316 C  
HETATM    2  C   UNL     1      -7.948  19.350  68.093  1.00  0.00    -0.352 C  
HETATM    3  C   UNL     1      -9.198  19.380  68.972  1.00  0.00    -0.323 C  
HETATM    4  C   UNL     1     -10.362  19.293  67.980  1.00  0.00    -0.405 C  
HETATM    5  N   UNL     1      -9.776  19.931  66.801  1.00  0.00    -0.386 NA 
HETATM    6  C   UNL     1     -10.763  17.834  67.734  1.00  0.00    -0.332 C  
HETATM    7  C   UNL     1      -9.728  16.983  66.964  1.00  0.00    -0.263 C  
HETATM    8  C   UNL     1     -10.612  19.946  65.612  1.00  0.00    -0.327 C  
HETATM    9  C   UNL     1      -8.645  17.789  66.211  1.00  0.00    -0.217 C  
ENDROOT
BRANCH   7  10
HETATM   10  O   UNL     1      -9.047  16.020  67.785  1.00  0.00    -0.195 OA 
BRANCH  10  11
HETATM   11  C   UNL     1      -8.561  14.841  67.120  1.00  0.00    -0.226 C  
BRANCH  11  12
HETATM   12  C   UNL     1      -9.744  13.987  66.680  1.00  0.00    -0.296 A  
HETATM   13  C   UNL     1     -10.055  13.783  65.329  1.00  0.00    -0.312 A  
HETATM   14  C   UNL     1     -10.554  13.381  67.656  1.00  0.00    -0.249 A  
HETATM   15  C   UNL     1     -11.118  12.958  64.962  1.00  0.00    -0.320 A  
HETATM   16  C   UNL     1     -11.616  12.554  67.287  1.00  0.00    -0.434 A  
HETATM   17  C   UNL     1     -11.890  12.335  65.940  1.00  0.00    -0.420 A  
ENDBRANCH  11  12
BRANCH  11  18
HETATM   18  C   UNL     1      -7.534  14.043  67.912  1.00  0.00    -0.153 A  
HETATM   19  C   UNL     1      -5.948  12.214  68.121  1.00  0.00    -0.055 A  
HETATM   20  C   UNL     1      -6.946  12.877  67.403  1.00  0.00    -0.129 A  
HETATM   21  C   UNL     1      -6.128  13.839  69.895  1.00  0.00    -0.140 A  
HETATM   22  C   UNL     1      -5.533  12.699  69.361  1.00  0.00    -0.079 A  
HETATM   23  C   UNL     1      -7.123  14.505  69.178  1.00  0.00    -0.130 A  
ENDBRANCH  11  18
ENDBRANCH  10  11
ENDBRANCH   7  10
TORSDOF 4
ENDMDL
MODEL       92
REMARK 921   NORMALIZED FREE ENERGY PREDICTED BY IDOCK:   -4.82 KCAL/MOL
REMARK 922        TOTAL FREE ENERGY PREDICTED BY IDOCK:   -7.36 KCAL/MOL
REMARK 923 INTER-LIGAND FREE ENERGY PREDICTED BY IDOCK:   -6.01 KCAL/MOL
REMARK 924 INTRA-LIGAND FREE ENERGY PREDICTED BY IDOCK:   -1.35 KCAL/MOL
REMARK 927      BINDING AFFINITY PREDICTED BY RF-SCORE:    0.00 PKD
ROOT
HETATM    1  C   UNL     1     -10.340   9.135  71.040  1.00  0.00    -0.293 C  
HETATM    2  C   UNL     1      -8.820   9.075  70.866  1.00  0.00    -0.294 C  
HETATM    3  C   UNL     1      -8.583   7.845  69.991  1.00  0.00    -0.135 C  
HETATM    4  C   UNL     1      -9.986   7.290  69.728  1.00  0.00    -0.183 C  
HETATM    5  N   UNL     1     -10.690   7.716  70.938  1.00  0.00    -0.232 NA 
HETATM    6  C   UNL     1     -10.580   7.890  68.448  1.00  0.00    -0.154 C  
HETATM    7  C   UNL     1     -10.927   9.395  68.520  1.00  0.00    -0.030 C  
HETATM    8  C   UNL     1     -12.110   7.412  70.981  1.00  0.00    -0.298 C  
HETATM    9  C   UNL     1     -11.010   9.981  69.947  1.00  0.00    -0.339 C  
ENDROOT
BRANCH   7  10
HETATM   10  O   UNL     1     -10.031  10.230  67.769  1.00  0.00    -0.165 OA 
BRANCH  10  11
HETATM   11  C   UNL     1     -10.411  11.610  67.623  1.00  0.00    -0.189 C  
BRANCH  11  12
HETATM   12  C   UNL     1     -10.976  11.830  66.225  1.00  0.00    -0.346 A  
HETATM   13  C   UNL     1     -12.121  12.604  65.997  1.00  0.00    -0.429 A  
HETATM   14  C   UNL     1     -10.331  11.241  65.123  1.00  0.00    -0.353 A  
HETATM   15  C   UNL     1     -12.583  12.824  64.699  1.00  0.00    -0.491 A  
HETATM   16  C   UNL     1     -10.794  11.462  63.826  1.00  0.00    -0.468 A  
HETATM   17  C   UNL     1     -11.914  12.262  63.614  1.00  0.00    -0.633 A  
ENDBRANCH  11  12
BRANCH  11  18
HETATM   18  C   UNL     1      -9.317  12.610  67.970  1.00  0.00    -0.209 A  
HETATM   19  C   UNL     1      -8.586  14.772  68.802  1.00  0.00    -0.170 A  
HETATM   20  C   UNL     1      -9.611  13.906  68.415  1.00  0.00    -0.215 A  
HETATM   21  C   UNL     1      -6.944  13.086  68.273  1.00  0.00    -0.101 A  
HETATM   22  C   UNL     1      -7.255  14.360  68.740  1.00  0.00    -0.128 A  
HETATM   23  C   UNL     1      -7.967  12.218  67.888  1.00  0.00    -0.152 A  
ENDBRANCH  11  18
ENDBRANCH  10  11
ENDBRANCH   7  10
TORSDOF 4
ENDMDL
MODEL       93
REMARK 921   NORMALIZED FREE ENERGY PREDICTED BY IDOCK:   -4.81 KCAL/MOL
REMARK 922        TOTAL FREE ENERGY PREDICTED BY IDOCK:   -7.34 KCAL/MOL
REMARK 923 INTER-LIGAND FREE ENERGY PREDICTED BY IDOCK:   -5.58 KCAL/MOL
REMARK 924 INTRA-LIGAND FREE ENERGY PREDICTED BY IDOCK:   -1.76 KCAL/MOL
REMARK 927      BINDING AFFINITY PREDICTED BY RF-SCORE:    0.00 PKD
ROOT
HETATM    1  C   UNL     1      -7.763   4.555  72.277  1.00  0.00    -0.091 C  
HETATM    2  C   UNL     1      -7.884   4.460  70.753  1.00  0.00    -0.060 C  
HETATM    3  C   UNL     1      -9.351   4.112  70.505  1.00  0.00    -0.211 C  
HETATM    4  C   UNL     1      -9.964   4.033  71.908  1.00  0.00    -0.176 C  
HETATM    5  N   UNL     1      -8.805   3.616  72.699  1.00  0.00    -0.093 NA 
HETATM    6  C   UNL     1     -10.523   5.394  72.337  1.00  0.00    -0.267 C  
HETATM    7  C   UNL     1      -9.467   6.492  72.598  1.00  0.00    -0.147 C  
HETATM    8  C   UNL     1      -9.024   3.519  74.132  1.00  0.00    -0.087 C  
HETATM    9  C   UNL     1      -8.020   5.981  72.785  1.00  0.00    -0.107 C  
ENDROOT
BRANCH   7  10
HETATM   10  O   UNL     1      -9.430   7.510  71.586  1.00  0.00    -0.149 OA 
BRANCH  10  11
HETATM   11  C   UNL     1     -10.597   7.627  70.751  1.00  0.00    -0.221 C  
BRANCH  11  12
HETATM   12  C   UNL     1     -10.229   7.262  69.318  1.00  0.00    -0.193 A  
HETATM   13  C   UNL     1     -11.157   6.704  68.429  1.00  0.00    -0.281 A  
HETATM   14  C   UNL     1      -8.917   7.491  68.867  1.00  0.00    -0.134 A  
HETATM   15  C   UNL     1     -10.797   6.425  67.110  1.00  0.00    -0.467 A  
HETATM   16  C   UNL     1      -8.560   7.213  67.547  1.00  0.00    -0.122 A  
HETATM   17  C   UNL     1      -9.503   6.690  66.667  1.00  0.00    -0.201 A  
ENDBRANCH  11  12
BRANCH  11  18
HETATM   18  C   UNL     1     -11.311   8.969  70.842  1.00  0.00    -0.351 A  
HETATM   19  C   UNL     1     -11.835  11.174  69.966  1.00  0.00    -0.441 A  
HETATM   20  C   UNL     1     -11.104   9.985  69.899  1.00  0.00    -0.336 A  
HETATM   21  C   UNL     1     -12.969  10.380  71.942  1.00  0.00    -0.555 A  
HETATM   22  C   UNL     1     -12.773  11.367  70.980  1.00  0.00    -0.447 A  
HETATM   23  C   UNL     1     -12.242   9.190  71.876  1.00  0.00    -0.449 A  
ENDBRANCH  11  18
ENDBRANCH  10  11
ENDBRANCH   7  10
TORSDOF 4
ENDMDL
MODEL       94
REMARK 921   NORMALIZED FREE ENERGY PREDICTED BY IDOCK:   -4.80 KCAL/MOL
REMARK 922        TOTAL FREE ENERGY PREDICTED BY IDOCK:   -7.33 KCAL/MOL
REMARK 923 INTER-LIGAND FREE ENERGY PREDICTED BY IDOCK:   -5.59 KCAL/MOL
REMARK 924 INTRA-LIGAND FREE ENERGY PREDICTED BY IDOCK:   -1.74 KCAL/MOL
REMARK 927      BINDING AFFINITY PREDICTED BY RF-SCORE:    0.00 PKD
ROOT
HETATM    1  C   UNL     1     -10.421  13.961  65.453  1.00  0.00    -0.345 C  
HETATM    2  C   UNL     1      -9.434  14.088  66.617  1.00  0.00    -0.300 C  
HETATM    3  C   UNL     1     -10.208  13.583  67.834  1.00  0.00    -0.247 C  
HETATM    4  C   UNL     1     -11.584  13.203  67.277  1.00  0.00    -0.355 C  
HETATM    5  N   UNL     1     -11.698  14.131  66.151  1.00  0.00    -0.378 NA 
HETATM    6  C   UNL     1     -11.612  11.732  66.846  1.00  0.00    -0.310 C  
HETATM    7  C   UNL     1     -10.750  11.387  65.610  1.00  0.00    -0.242 C  
HETATM    8  C   UNL     1     -12.889  13.982  65.331  1.00  0.00    -0.410 C  
HETATM    9  C   UNL     1     -10.314  12.598  64.755  1.00  0.00    -0.335 C  
ENDROOT
BRANCH   7  10
HETATM   10  O   UNL     1      -9.565  10.639  65.925  1.00  0.00    -0.187 OA 
BRANCH  10  11
HETATM   11  C   UNL     1      -9.638   9.771  67.070  1.00  0.00    -0.172 C  
BRANCH  11  12
HETATM   12  C   UNL     1      -8.514  10.120  68.039  1.00  0.00    -0.118 A  
HETATM   13  C   UNL     1      -7.527  11.064  67.726  1.00  0.00    -0.094 A  
HETATM   14  C   UNL     1      -8.462   9.478  69.288  1.00  0.00    -0.139 A  
HETATM   15  C   UNL     1      -6.540  11.393  68.656  1.00  0.00    -0.062 A  
HETATM   16  C   UNL     1      -7.475   9.810  70.218  1.00  0.00    -0.173 A  
HETATM   17  C   UNL     1      -6.521  10.774  69.905  1.00  0.00    -0.135 A  
ENDBRANCH  11  12
BRANCH  11  18
HETATM   18  C   UNL     1      -9.678   8.286  66.740  1.00  0.00    -0.307 A  
HETATM   19  C   UNL     1      -8.701   6.287  65.762  1.00  0.00    -0.145 A  
HETATM   20  C   UNL     1      -8.676   7.667  65.979  1.00  0.00    -0.178 A  
HETATM   21  C   UNL     1     -10.749   6.113  67.024  1.00  0.00    -0.423 A  
HETATM   22  C   UNL     1      -9.730   5.510  66.291  1.00  0.00    -0.172 A  
HETATM   23  C   UNL     1     -10.725   7.491  67.245  1.00  0.00    -0.365 A  
ENDBRANCH  11  18
ENDBRANCH  10  11
ENDBRANCH   7  10
TORSDOF 4
ENDMDL
MODEL       95
REMARK 921   NORMALIZED FREE ENERGY PREDICTED BY IDOCK:   -4.79 KCAL/MOL
REMARK 922        TOTAL FREE ENERGY PREDICTED BY IDOCK:   -7.32 KCAL/MOL
REMARK 923 INTER-LIGAND FREE ENERGY PREDICTED BY IDOCK:   -5.61 KCAL/MOL
REMARK 924 INTRA-LIGAND FREE ENERGY PREDICTED BY IDOCK:   -1.72 KCAL/MOL
REMARK 927      BINDING AFFINITY PREDICTED BY RF-SCORE:    0.00 PKD
ROOT
HETATM    1  C   UNL     1     -11.833  13.636  67.949  1.00  0.00    -0.366 C  
HETATM    2  C   UNL     1     -10.632  12.917  68.570  1.00  0.00    -0.270 C  
HETATM    3  C   UNL     1      -9.694  12.650  67.393  1.00  0.00    -0.199 C  
HETATM    4  C   UNL     1     -10.429  13.235  66.182  1.00  0.00    -0.293 C  
HETATM    5  N   UNL     1     -11.824  13.075  66.595  1.00  0.00    -0.386 NA 
HETATM    6  C   UNL     1     -10.034  14.699  65.958  1.00  0.00    -0.337 C  
HETATM    7  C   UNL     1     -10.525  15.690  67.038  1.00  0.00    -0.303 C  
HETATM    8  C   UNL     1     -12.817  13.617  65.682  1.00  0.00    -0.371 C  
HETATM    9  C   UNL     1     -11.655  15.161  67.951  1.00  0.00    -0.326 C  
ENDROOT
BRANCH   7  10
HETATM   10  O   UNL     1      -9.479  16.174  67.895  1.00  0.00    -0.212 OA 
BRANCH  10  11
HETATM   11  C   UNL     1      -8.148  16.169  67.348  1.00  0.00    -0.159 C  
BRANCH  11  12
HETATM   12  C   UNL     1      -7.241  15.328  68.239  1.00  0.00    -0.118 A  
HETATM   13  C   UNL     1      -7.239  15.457  69.634  1.00  0.00    -0.174 A  
HETATM   14  C   UNL     1      -6.379  14.389  67.647  1.00  0.00    -0.126 A  
HETATM   15  C   UNL     1      -6.429  14.636  70.421  1.00  0.00    -0.110 A  
HETATM   16  C   UNL     1      -5.572  13.568  68.436  1.00  0.00    -0.094 A  
HETATM   17  C   UNL     1      -5.605  13.685  69.823  1.00  0.00    -0.100 A  
ENDBRANCH  11  12
BRANCH  11  18
HETATM   18  C   UNL     1      -7.569  17.550  67.072  1.00  0.00    -0.235 A  
HETATM   19  C   UNL     1      -6.303  19.099  65.693  1.00  0.00    -0.273 A  
HETATM   20  C   UNL     1      -6.751  17.803  65.962  1.00  0.00    -0.316 A  
HETATM   21  C   UNL     1      -7.443  19.915  67.656  1.00  0.00    -0.320 A  
HETATM   22  C   UNL     1      -6.655  20.154  66.533  1.00  0.00    -0.241 A  
HETATM   23  C   UNL     1      -7.895  18.622  67.925  1.00  0.00    -0.275 A  
ENDBRANCH  11  18
ENDBRANCH  10  11
ENDBRANCH   7  10
TORSDOF 4
ENDMDL
MODEL       96
REMARK 921   NORMALIZED FREE ENERGY PREDICTED BY IDOCK:   -4.76 KCAL/MOL
REMARK 922        TOTAL FREE ENERGY PREDICTED BY IDOCK:   -7.28 KCAL/MOL
REMARK 923 INTER-LIGAND FREE ENERGY PREDICTED BY IDOCK:   -5.53 KCAL/MOL
REMARK 924 INTRA-LIGAND FREE ENERGY PREDICTED BY IDOCK:   -1.75 KCAL/MOL
REMARK 927      BINDING AFFINITY PREDICTED BY RF-SCORE:    0.00 PKD
ROOT
HETATM    1  C   UNL     1      -8.975   4.921  67.945  1.00  0.00    -0.109 C  
HETATM    2  C   UNL     1      -7.772   5.821  68.240  1.00  0.00    -0.093 C  
HETATM    3  C   UNL     1      -8.035   7.091  67.430  1.00  0.00    -0.112 C  
HETATM    4  C   UNL     1      -9.371   6.823  66.729  1.00  0.00    -0.160 C  
HETATM    5  N   UNL     1      -9.332   5.366  66.595  1.00  0.00    -0.134 NA 
HETATM    6  C   UNL     1     -10.545   7.315  67.583  1.00  0.00    -0.316 C  
HETATM    7  C   UNL     1     -10.795   6.521  68.886  1.00  0.00    -0.301 C  
HETATM    8  C   UNL     1     -10.521   4.755  66.024  1.00  0.00    -0.292 C  
HETATM    9  C   UNL     1     -10.114   5.135  68.951  1.00  0.00    -0.237 C  
ENDROOT
BRANCH   7  10
HETATM   10  O   UNL     1     -10.422   7.234  70.076  1.00  0.00    -0.212 OA 
BRANCH  10  11
HETATM   11  C   UNL     1     -10.171   8.643  69.928  1.00  0.00    -0.203 C  
BRANCH  11  12
HETATM   12  C   UNL     1      -8.759   8.956  70.411  1.00  0.00    -0.200 A  
HETATM   13  C   UNL     1      -8.202   8.333  71.535  1.00  0.00    -0.164 A  
HETATM   14  C   UNL     1      -7.987   9.898  69.710  1.00  0.00    -0.181 A  
HETATM   15  C   UNL     1      -6.889   8.608  71.922  1.00  0.00    -0.088 A  
HETATM   16  C   UNL     1      -6.674  10.171  70.097  1.00  0.00    -0.138 A  
HETATM   17  C   UNL     1      -6.123   9.518  71.196  1.00  0.00    -0.074 A  
ENDBRANCH  11  12
BRANCH  11  18
HETATM   18  C   UNL     1     -11.216   9.546  70.568  1.00  0.00    -0.345 A  
HETATM   19  C   UNL     1     -12.442  11.640  70.692  1.00  0.00    -0.386 A  
HETATM   20  C   UNL     1     -11.420  10.865  70.139  1.00  0.00    -0.405 A  
HETATM   21  C   UNL     1     -13.056   9.816  72.146  1.00  0.00    -0.513 A  
HETATM   22  C   UNL     1     -13.265  11.113  71.688  1.00  0.00    -0.449 A  
HETATM   23  C   UNL     1     -12.038   9.038  71.592  1.00  0.00    -0.422 A  
ENDBRANCH  11  18
ENDBRANCH  10  11
ENDBRANCH   7  10
TORSDOF 4
ENDMDL
MODEL       97
REMARK 921   NORMALIZED FREE ENERGY PREDICTED BY IDOCK:   -4.73 KCAL/MOL
REMARK 922        TOTAL FREE ENERGY PREDICTED BY IDOCK:   -7.24 KCAL/MOL
REMARK 923 INTER-LIGAND FREE ENERGY PREDICTED BY IDOCK:   -5.65 KCAL/MOL
REMARK 924 INTRA-LIGAND FREE ENERGY PREDICTED BY IDOCK:   -1.59 KCAL/MOL
REMARK 927      BINDING AFFINITY PREDICTED BY RF-SCORE:    0.00 PKD
ROOT
HETATM    1  C   UNL     1      -8.463  18.230  66.236  1.00  0.00    -0.191 C  
HETATM    2  C   UNL     1      -7.330  18.204  67.266  1.00  0.00    -0.219 C  
HETATM    3  C   UNL     1      -7.770  19.194  68.345  1.00  0.00    -0.359 C  
HETATM    4  C   UNL     1      -9.124  19.716  67.851  1.00  0.00    -0.327 C  
HETATM    5  N   UNL     1      -8.960  19.599  66.402  1.00  0.00    -0.366 NA 
HETATM    6  C   UNL     1     -10.271  18.857  68.396  1.00  0.00    -0.433 C  
HETATM    7  C   UNL     1     -10.348  17.420  67.832  1.00  0.00    -0.369 C  
HETATM    8  C   UNL     1     -10.126  19.947  65.607  1.00  0.00    -0.226 C  
HETATM    9  C   UNL     1      -9.539  17.178  66.538  1.00  0.00    -0.294 C  
ENDROOT
BRANCH   7  10
HETATM   10  O   UNL     1      -9.956  16.409  68.774  1.00  0.00    -0.224 OA 
BRANCH  10  11
HETATM   11  C   UNL     1      -9.475  15.170  68.223  1.00  0.00    -0.201 C  
BRANCH  11  12
HETATM   12  C   UNL     1     -10.407  14.038  68.641  1.00  0.00    -0.238 A  
HETATM   13  C   UNL     1     -11.245  14.138  69.759  1.00  0.00    -0.205 A  
HETATM   14  C   UNL     1     -10.431  12.854  67.884  1.00  0.00    -0.231 A  
HETATM   15  C   UNL     1     -12.119  13.100  70.085  1.00  0.00    -0.392 A  
HETATM   16  C   UNL     1     -11.308  11.819  68.210  1.00  0.00    -0.343 A  
HETATM   17  C   UNL     1     -12.158  11.947  69.305  1.00  0.00    -0.270 A  
ENDBRANCH  11  12
BRANCH  11  18
HETATM   18  C   UNL     1      -8.016  14.862  68.528  1.00  0.00    -0.140 A  
HETATM   19  C   UNL     1      -6.152  14.668  70.075  1.00  0.00    -0.151 A  
HETATM   20  C   UNL     1      -7.473  15.037  69.809  1.00  0.00    -0.102 A  
HETATM   21  C   UNL     1      -5.868  13.980  67.780  1.00  0.00    -0.091 A  
HETATM   22  C   UNL     1      -5.354  14.132  69.064  1.00  0.00    -0.081 A  
HETATM   23  C   UNL     1      -7.189  14.344  67.512  1.00  0.00    -0.202 A  
ENDBRANCH  11  18
ENDBRANCH  10  11
ENDBRANCH   7  10
TORSDOF 4
ENDMDL
MODEL       98
REMARK 921   NORMALIZED FREE ENERGY PREDICTED BY IDOCK:   -4.72 KCAL/MOL
REMARK 922        TOTAL FREE ENERGY PREDICTED BY IDOCK:   -7.23 KCAL/MOL
REMARK 923 INTER-LIGAND FREE ENERGY PREDICTED BY IDOCK:   -5.75 KCAL/MOL
REMARK 924 INTRA-LIGAND FREE ENERGY PREDICTED BY IDOCK:   -1.48 KCAL/MOL
REMARK 927      BINDING AFFINITY PREDICTED BY RF-SCORE:    0.00 PKD
ROOT
HETATM    1  C   UNL     1      -9.187   8.286  66.106  1.00  0.00    -0.192 C  
HETATM    2  C   UNL     1      -9.226   7.168  67.152  1.00  0.00    -0.153 C  
HETATM    3  C   UNL     1      -8.245   7.620  68.234  1.00  0.00    -0.125 C  
HETATM    4  C   UNL     1      -7.714   8.964  67.726  1.00  0.00    -0.101 C  
HETATM    5  N   UNL     1      -7.818   8.780  66.278  1.00  0.00    -0.101 NA 
HETATM    6  C   UNL     1      -8.573  10.123  68.246  1.00  0.00    -0.116 C  
HETATM    7  C   UNL     1     -10.005  10.197  67.667  1.00  0.00    -0.181 C  
HETATM    8  C   UNL     1      -7.458   9.933  65.469  1.00  0.00    -0.126 C  
HETATM    9  C   UNL     1     -10.238   9.370  66.383  1.00  0.00    -0.300 C  
ENDROOT
BRANCH   7  10
HETATM   10  O   UNL     1     -11.026   9.821  68.606  1.00  0.00    -0.213 OA 
BRANCH  10  11
HETATM   11  C   UNL     1     -10.756  10.096  69.992  1.00  0.00    -0.305 C  
BRANCH  11  12
HETATM   12  C   UNL     1     -10.752   8.786  70.772  1.00  0.00    -0.277 A  
HETATM   13  C   UNL     1     -10.176   8.678  72.044  1.00  0.00    -0.407 A  
HETATM   14  C   UNL     1     -11.345   7.647  70.202  1.00  0.00    -0.147 A  
HETATM   15  C   UNL     1     -10.233   7.475  72.749  1.00  0.00    -0.307 A  
HETATM   16  C   UNL     1     -11.403   6.445  70.909  1.00  0.00    -0.398 A  
HETATM   17  C   UNL     1     -10.855   6.363  72.186  1.00  0.00    -0.272 A  
ENDBRANCH  11  12
BRANCH  11  18
HETATM   18  C   UNL     1     -11.664  11.143  70.621  1.00  0.00    -0.310 A  
HETATM   19  C   UNL     1     -12.566  13.396  70.738  1.00  0.00    -0.369 A  
HETATM   20  C   UNL     1     -11.663  12.478  70.195  1.00  0.00    -0.255 A  
HETATM   21  C   UNL     1     -13.465  11.680  72.176  1.00  0.00    -0.238 A  
HETATM   22  C   UNL     1     -13.472  12.996  71.720  1.00  0.00    -0.401 A  
HETATM   23  C   UNL     1     -12.566  10.761  71.633  1.00  0.00    -0.456 A  
ENDBRANCH  11  18
ENDBRANCH  10  11
ENDBRANCH   7  10
TORSDOF 4
ENDMDL
MODEL       99
REMARK 921   NORMALIZED FREE ENERGY PREDICTED BY IDOCK:   -4.70 KCAL/MOL
REMARK 922        TOTAL FREE ENERGY PREDICTED BY IDOCK:   -7.21 KCAL/MOL
REMARK 923 INTER-LIGAND FREE ENERGY PREDICTED BY IDOCK:   -5.90 KCAL/MOL
REMARK 924 INTRA-LIGAND FREE ENERGY PREDICTED BY IDOCK:   -1.31 KCAL/MOL
REMARK 927      BINDING AFFINITY PREDICTED BY RF-SCORE:    0.00 PKD
ROOT
HETATM    1  C   UNL     1     -10.377  13.919  66.206  1.00  0.00    -0.293 C  
HETATM    2  C   UNL     1      -9.524  14.222  67.442  1.00  0.00    -0.211 C  
HETATM    3  C   UNL     1     -10.514  14.197  68.606  1.00  0.00    -0.250 C  
HETATM    4  C   UNL     1     -11.862  13.882  67.951  1.00  0.00    -0.378 C  
HETATM    5  N   UNL     1     -11.672  14.463  66.621  1.00  0.00    -0.385 NA 
HETATM    6  C   UNL     1     -12.112  12.370  67.914  1.00  0.00    -0.084 C  
HETATM    7  C   UNL     1     -11.192  11.570  66.965  1.00  0.00    -0.300 C  
HETATM    8  C   UNL     1     -12.767  14.266  65.686  1.00  0.00    -0.373 C  
HETATM    9  C   UNL     1     -10.443  12.414  65.909  1.00  0.00    -0.284 C  
ENDROOT
BRANCH   7  10
HETATM   10  O   UNL     1     -10.209  10.775  67.648  1.00  0.00    -0.177 OA 
BRANCH  10  11
HETATM   11  C   UNL     1     -10.589   9.427  67.976  1.00  0.00    -0.226 C  
BRANCH  11  12
HETATM   12  C   UNL     1     -10.316   9.172  69.454  1.00  0.00    -0.220 A  
HETATM   13  C   UNL     1     -11.345   8.907  70.367  1.00  0.00    -0.229 A  
HETATM   14  C   UNL     1      -8.991   9.203  69.921  1.00  0.00    -0.183 A  
HETATM   15  C   UNL     1     -11.053   8.632  71.704  1.00  0.00    -0.375 A  
HETATM   16  C   UNL     1      -8.701   8.927  71.258  1.00  0.00    -0.279 A  
HETATM   17  C   UNL     1      -9.732   8.631  72.146  1.00  0.00    -0.383 A  
ENDBRANCH  11  12
BRANCH  11  18
HETATM   18  C   UNL     1      -9.977   8.359  67.081  1.00  0.00    -0.304 A  
HETATM   19  C   UNL     1      -8.370   7.639  65.406  1.00  0.00    -0.134 A  
HETATM   20  C   UNL     1      -8.967   8.656  66.155  1.00  0.00    -0.221 A  
HETATM   21  C   UNL     1      -9.801   6.007  66.458  1.00  0.00    -0.186 A  
HETATM   22  C   UNL     1      -8.780   6.315  65.564  1.00  0.00    -0.090 A  
HETATM   23  C   UNL     1     -10.398   7.021  67.209  1.00  0.00    -0.331 A  
ENDBRANCH  11  18
ENDBRANCH  10  11
ENDBRANCH   7  10
TORSDOF 4
ENDMDL
MODEL      100
REMARK 921   NORMALIZED FREE ENERGY PREDICTED BY IDOCK:   -4.70 KCAL/MOL
REMARK 922        TOTAL FREE ENERGY PREDICTED BY IDOCK:   -7.20 KCAL/MOL
REMARK 923 INTER-LIGAND FREE ENERGY PREDICTED BY IDOCK:   -5.98 KCAL/MOL
REMARK 924 INTRA-LIGAND FREE ENERGY PREDICTED BY IDOCK:   -1.23 KCAL/MOL
REMARK 927      BINDING AFFINITY PREDICTED BY RF-SCORE:    0.00 PKD
ROOT
HETATM    1  C   UNL     1     -12.119   6.860  70.854  1.00  0.00    -0.373 C  
HETATM    2  C   UNL     1     -13.208   7.825  71.333  1.00  0.00    -0.310 C  
HETATM    3  C   UNL     1     -12.613   8.489  72.575  1.00  0.00    -0.346 C  
HETATM    4  C   UNL     1     -11.226   7.853  72.716  1.00  0.00    -0.405 C  
HETATM    5  N   UNL     1     -11.456   6.537  72.120  1.00  0.00    -0.279 NA 
HETATM    6  C   UNL     1     -10.169   8.674  71.966  1.00  0.00    -0.407 C  
HETATM    7  C   UNL     1     -10.287   8.653  70.425  1.00  0.00    -0.200 C  
HETATM    8  C   UNL     1     -10.288   5.678  72.019  1.00  0.00    -0.212 C  
HETATM    9  C   UNL     1     -11.167   7.521  69.848  1.00  0.00    -0.124 C  
ENDROOT
BRANCH   7  10
HETATM   10  O   UNL     1     -10.762   9.888  69.866  1.00  0.00    -0.239 OA 
BRANCH  10  11
HETATM   11  C   UNL     1     -10.463  10.122  68.478  1.00  0.00    -0.195 C  
BRANCH  11  12
HETATM   12  C   UNL     1      -8.957  10.037  68.267  1.00  0.00    -0.119 A  
HETATM   13  C   UNL     1      -8.059  10.856  68.964  1.00  0.00    -0.126 A  
HETATM   14  C   UNL     1      -8.445   9.108  67.344  1.00  0.00    -0.115 A  
HETATM   15  C   UNL     1      -6.682  10.718  68.779  1.00  0.00    -0.060 A  
HETATM   16  C   UNL     1      -7.068   8.970  67.162  1.00  0.00    -0.079 A  
HETATM   17  C   UNL     1      -6.188   9.769  67.888  1.00  0.00    -0.052 A  
ENDBRANCH  11  12
BRANCH  11  18
HETATM   18  C   UNL     1     -11.058  11.401  67.907  1.00  0.00    -0.320 A  
HETATM   19  C   UNL     1     -11.891  13.669  68.162  1.00  0.00    -0.407 A  
HETATM   20  C   UNL     1     -11.424  12.479  68.725  1.00  0.00    -0.353 A  
HETATM   21  C   UNL     1     -11.679  12.723  65.953  1.00  0.00    -0.464 A  
HETATM   22  C   UNL     1     -12.010  13.794  66.778  1.00  0.00    -0.465 A  
HETATM   23  C   UNL     1     -11.209  11.534  66.513  1.00  0.00    -0.324 A  
ENDBRANCH  11  18
ENDBRANCH  10  11
ENDBRANCH   7  10
TORSDOF 4
ENDMDL
MODEL      101
REMARK 921   NORMALIZED FREE ENERGY PREDICTED BY IDOCK:   -4.67 KCAL/MOL
REMARK 922        TOTAL FREE ENERGY PREDICTED BY IDOCK:   -7.17 KCAL/MOL
REMARK 923 INTER-LIGAND FREE ENERGY PREDICTED BY IDOCK:   -5.89 KCAL/MOL
REMARK 924 INTRA-LIGAND FREE ENERGY PREDICTED BY IDOCK:   -1.28 KCAL/MOL
REMARK 927      BINDING AFFINITY PREDICTED BY RF-SCORE:    0.00 PKD
ROOT
HETATM    1  C   UNL     1     -10.538   8.691  72.119  1.00  0.00    -0.341 C  
HETATM    2  C   UNL     1      -9.017   8.805  71.979  1.00  0.00    -0.227 C  
HETATM    3  C   UNL     1      -8.644   7.721  70.968  1.00  0.00    -0.128 C  
HETATM    4  C   UNL     1      -9.980   7.064  70.605  1.00  0.00    -0.186 C  
HETATM    5  N   UNL     1     -10.739   7.267  71.839  1.00  0.00    -0.214 NA 
HETATM    6  C   UNL     1     -10.615   7.753  69.391  1.00  0.00    -0.211 C  
HETATM    7  C   UNL     1     -11.115   9.196  69.635  1.00  0.00    -0.087 C  
HETATM    8  C   UNL     1     -12.121   6.819  71.809  1.00  0.00    -0.350 C  
HETATM    9  C   UNL     1     -11.277   9.592  71.119  1.00  0.00    -0.454 C  
ENDROOT
BRANCH   7  10
HETATM   10  O   UNL     1     -10.300  10.201  69.012  1.00  0.00    -0.188 OA 
BRANCH  10  11
HETATM   11  C   UNL     1     -10.592  10.503  67.636  1.00  0.00    -0.250 C  
BRANCH  11  12
HETATM   12  C   UNL     1      -9.394  10.126  66.773  1.00  0.00    -0.190 A  
HETATM   13  C   UNL     1      -8.107  10.616  67.029  1.00  0.00    -0.120 A  
HETATM   14  C   UNL     1      -9.580   9.256  65.684  1.00  0.00    -0.324 A  
HETATM   15  C   UNL     1      -7.024  10.211  66.246  1.00  0.00    -0.109 A  
HETATM   16  C   UNL     1      -8.496   8.851  64.903  1.00  0.00    -0.195 A  
HETATM   17  C   UNL     1      -7.218   9.321  65.192  1.00  0.00    -0.094 A  
ENDBRANCH  11  12
BRANCH  11  18
HETATM   18  C   UNL     1     -11.061  11.929  67.384  1.00  0.00    -0.336 A  
HETATM   19  C   UNL     1     -12.242  13.587  66.056  1.00  0.00    -0.493 A  
HETATM   20  C   UNL     1     -11.755  12.288  66.220  1.00  0.00    -0.431 A  
HETATM   21  C   UNL     1     -11.322  14.215  68.196  1.00  0.00    -0.316 A  
HETATM   22  C   UNL     1     -12.034  14.546  67.047  1.00  0.00    -0.371 A  
HETATM   23  C   UNL     1     -10.836  12.917  68.363  1.00  0.00    -0.276 A  
ENDBRANCH  11  18
ENDBRANCH  10  11
ENDBRANCH   7  10
TORSDOF 4
ENDMDL
MODEL      102
REMARK 921   NORMALIZED FREE ENERGY PREDICTED BY IDOCK:   -4.65 KCAL/MOL
REMARK 922        TOTAL FREE ENERGY PREDICTED BY IDOCK:   -7.14 KCAL/MOL
REMARK 923 INTER-LIGAND FREE ENERGY PREDICTED BY IDOCK:   -5.34 KCAL/MOL
REMARK 924 INTRA-LIGAND FREE ENERGY PREDICTED BY IDOCK:   -1.80 KCAL/MOL
REMARK 927      BINDING AFFINITY PREDICTED BY RF-SCORE:    0.00 PKD
ROOT
HETATM    1  C   UNL     1      -6.805  10.783  69.500  1.00  0.00    -0.116 C  
HETATM    2  C   UNL     1      -6.525  12.279  69.325  1.00  0.00    -0.109 C  
HETATM    3  C   UNL     1      -6.142  12.427  67.853  1.00  0.00    -0.093 C  
HETATM    4  C   UNL     1      -6.230  11.004  67.293  1.00  0.00    -0.068 C  
HETATM    5  N   UNL     1      -5.918  10.212  68.484  1.00  0.00    -0.041 NA 
HETATM    6  C   UNL     1      -7.630  10.721  66.736  1.00  0.00    -0.129 C  
HETATM    7  C   UNL     1      -8.757  10.634  67.790  1.00  0.00    -0.129 C  
HETATM    8  C   UNL     1      -5.994   8.770  68.319  1.00  0.00    -0.042 C  
HETATM    9  C   UNL     1      -8.280  10.441  69.247  1.00  0.00    -0.163 C  
ENDROOT
BRANCH   7  10
HETATM   10  O   UNL     1      -9.646  11.763  67.779  1.00  0.00    -0.175 OA 
BRANCH  10  11
HETATM   11  C   UNL     1      -9.517  12.670  66.670  1.00  0.00    -0.244 C  
BRANCH  11  12
HETATM   12  C   UNL     1      -9.424  14.097  67.197  1.00  0.00    -0.237 A  
HETATM   13  C   UNL     1      -9.205  15.191  66.350  1.00  0.00    -0.334 A  
HETATM   14  C   UNL     1      -9.563  14.330  68.576  1.00  0.00    -0.220 A  
HETATM   15  C   UNL     1      -9.173  16.490  66.861  1.00  0.00    -0.244 A  
HETATM   16  C   UNL     1      -9.533  15.629  69.085  1.00  0.00    -0.256 A  
HETATM   17  C   UNL     1      -9.348  16.709  68.225  1.00  0.00    -0.224 A  
ENDBRANCH  11  12
BRANCH  11  18
HETATM   18  C   UNL     1     -10.584  12.516  65.596  1.00  0.00    -0.298 A  
HETATM   19  C   UNL     1     -12.864  12.780  64.797  1.00  0.00    -0.374 A  
HETATM   20  C   UNL     1     -11.925  12.857  65.828  1.00  0.00    -0.496 A  
HETATM   21  C   UNL     1     -11.160  11.983  63.287  1.00  0.00    -0.400 A  
HETATM   22  C   UNL     1     -12.480  12.353  63.526  1.00  0.00    -0.605 A  
HETATM   23  C   UNL     1     -10.219  12.062  64.314  1.00  0.00    -0.347 A  
ENDBRANCH  11  18
ENDBRANCH  10  11
ENDBRANCH   7  10
TORSDOF 4
ENDMDL
MODEL      103
REMARK 921   NORMALIZED FREE ENERGY PREDICTED BY IDOCK:   -4.64 KCAL/MOL
REMARK 922        TOTAL FREE ENERGY PREDICTED BY IDOCK:   -7.14 KCAL/MOL
REMARK 923 INTER-LIGAND FREE ENERGY PREDICTED BY IDOCK:   -5.88 KCAL/MOL
REMARK 924 INTRA-LIGAND FREE ENERGY PREDICTED BY IDOCK:   -1.26 KCAL/MOL
REMARK 927      BINDING AFFINITY PREDICTED BY RF-SCORE:    0.00 PKD
ROOT
HETATM    1  C   UNL     1     -10.405  13.773  65.585  1.00  0.00    -0.311 C  
HETATM    2  C   UNL     1      -9.371  14.195  66.634  1.00  0.00    -0.299 C  
HETATM    3  C   UNL     1     -10.129  14.145  67.961  1.00  0.00    -0.233 C  
HETATM    4  C   UNL     1     -11.542  13.699  67.573  1.00  0.00    -0.350 C  
HETATM    5  N   UNL     1     -11.645  14.233  66.215  1.00  0.00    -0.360 NA 
HETATM    6  C   UNL     1     -11.667  12.171  67.627  1.00  0.00    -0.386 C  
HETATM    7  C   UNL     1     -10.869  11.403  66.549  1.00  0.00    -0.283 C  
HETATM    8  C   UNL     1     -12.871  13.911  65.503  1.00  0.00    -0.431 C  
HETATM    9  C   UNL     1     -10.398  12.256  65.349  1.00  0.00    -0.298 C  
ENDROOT
BRANCH   7  10
HETATM   10  O   UNL     1      -9.716  10.718  67.063  1.00  0.00    -0.171 OA 
BRANCH  10  11
HETATM   11  C   UNL     1      -9.746  10.371  68.459  1.00  0.00    -0.168 C  
BRANCH  11  12
HETATM   12  C   UNL     1      -8.381  10.655  69.076  1.00  0.00    -0.153 A  
HETATM   13  C   UNL     1      -7.607  11.759  68.698  1.00  0.00    -0.125 A  
HETATM   14  C   UNL     1      -7.879   9.784  70.059  1.00  0.00    -0.188 A  
HETATM   15  C   UNL     1      -6.383  12.014  69.318  1.00  0.00    -0.102 A  
HETATM   16  C   UNL     1      -6.656  10.041  70.680  1.00  0.00    -0.088 A  
HETATM   17  C   UNL     1      -5.914  11.162  70.316  1.00  0.00    -0.144 A  
ENDBRANCH  11  12
BRANCH  11  18
HETATM   18  C   UNL     1     -10.233   8.959  68.753  1.00  0.00    -0.224 A  
HETATM   19  C   UNL     1     -11.263   7.316  70.217  1.00  0.00    -0.287 A  
HETATM   20  C   UNL     1     -10.750   8.598  70.005  1.00  0.00    -0.233 A  
HETATM   21  C   UNL     1     -10.720   6.709  67.946  1.00  0.00    -0.341 A  
HETATM   22  C   UNL     1     -11.256   6.376  69.187  1.00  0.00    -0.421 A  
HETATM   23  C   UNL     1     -10.209   7.991  67.731  1.00  0.00    -0.282 A  
ENDBRANCH  11  18
ENDBRANCH  10  11
ENDBRANCH   7  10
TORSDOF 4
ENDMDL
MODEL      104
REMARK 921   NORMALIZED FREE ENERGY PREDICTED BY IDOCK:   -4.64 KCAL/MOL
REMARK 922        TOTAL FREE ENERGY PREDICTED BY IDOCK:   -7.14 KCAL/MOL
REMARK 923 INTER-LIGAND FREE ENERGY PREDICTED BY IDOCK:   -5.87 KCAL/MOL
REMARK 924 INTRA-LIGAND FREE ENERGY PREDICTED BY IDOCK:   -1.27 KCAL/MOL
REMARK 927      BINDING AFFINITY PREDICTED BY RF-SCORE:    0.00 PKD
ROOT
HETATM    1  C   UNL     1     -11.899   7.271  71.437  1.00  0.00    -0.305 C  
HETATM    2  C   UNL     1     -11.449   8.734  71.475  1.00  0.00    -0.375 C  
HETATM    3  C   UNL     1     -10.114   8.705  72.219  1.00  0.00    -0.363 C  
HETATM    4  C   UNL     1      -9.898   7.226  72.554  1.00  0.00    -0.159 C  
HETATM    5  N   UNL     1     -11.280   6.756  72.662  1.00  0.00    -0.265 NA 
HETATM    6  C   UNL     1      -9.112   6.522  71.441  1.00  0.00    -0.148 C  
HETATM    7  C   UNL     1      -9.864   6.358  70.101  1.00  0.00    -0.167 C  
HETATM    8  C   UNL     1     -11.445   5.332  72.901  1.00  0.00    -0.270 C  
HETATM    9  C   UNL     1     -11.396   6.547  70.180  1.00  0.00    -0.463 C  
ENDROOT
BRANCH   7  10
HETATM   10  O   UNL     1      -9.383   7.222  69.060  1.00  0.00    -0.148 OA 
BRANCH  10  11
HETATM   11  C   UNL     1     -10.186   7.301  67.868  1.00  0.00    -0.191 C  
BRANCH  11  12
HETATM   12  C   UNL     1      -9.746   6.215  66.893  1.00  0.00    -0.178 A  
HETATM   13  C   UNL     1     -10.654   5.313  66.324  1.00  0.00    -0.308 A  
HETATM   14  C   UNL     1      -8.388   6.112  66.548  1.00  0.00    -0.113 A  
HETATM   15  C   UNL     1     -10.223   4.362  65.398  1.00  0.00    -0.247 A  
HETATM   16  C   UNL     1      -7.958   5.162  65.621  1.00  0.00    -0.108 A  
HETATM   17  C   UNL     1      -8.879   4.294  65.039  1.00  0.00    -0.136 A  
ENDBRANCH  11  12
BRANCH  11  18
HETATM   18  C   UNL     1     -10.230   8.678  67.222  1.00  0.00    -0.337 A  
HETATM   19  C   UNL     1      -9.915  10.156  65.319  1.00  0.00    -0.381 A  
HETATM   20  C   UNL     1      -9.785   8.897  65.910  1.00  0.00    -0.259 A  
HETATM   21  C   UNL     1     -10.897  11.021  67.345  1.00  0.00    -0.327 A  
HETATM   22  C   UNL     1     -10.478  11.214  66.032  1.00  0.00    -0.312 A  
HETATM   23  C   UNL     1     -10.772   9.763  67.937  1.00  0.00    -0.312 A  
ENDBRANCH  11  18
ENDBRANCH  10  11
ENDBRANCH   7  10
TORSDOF 4
ENDMDL
MODEL      105
REMARK 921   NORMALIZED FREE ENERGY PREDICTED BY IDOCK:   -4.64 KCAL/MOL
REMARK 922        TOTAL FREE ENERGY PREDICTED BY IDOCK:   -7.13 KCAL/MOL
REMARK 923 INTER-LIGAND FREE ENERGY PREDICTED BY IDOCK:   -5.83 KCAL/MOL
REMARK 924 INTRA-LIGAND FREE ENERGY PREDICTED BY IDOCK:   -1.30 KCAL/MOL
REMARK 927      BINDING AFFINITY PREDICTED BY RF-SCORE:    0.00 PKD
ROOT
HETATM    1  C   UNL     1      -9.095  11.021  65.785  1.00  0.00    -0.202 C  
HETATM    2  C   UNL     1      -8.238  11.935  66.666  1.00  0.00    -0.088 C  
HETATM    3  C   UNL     1      -9.159  13.102  67.017  1.00  0.00    -0.231 C  
HETATM    4  C   UNL     1     -10.478  12.771  66.311  1.00  0.00    -0.257 C  
HETATM    5  N   UNL     1      -9.997  11.995  65.166  1.00  0.00    -0.253 NA 
HETATM    6  C   UNL     1     -11.405  11.969  67.231  1.00  0.00    -0.394 C  
HETATM    7  C   UNL     1     -10.938  10.531  67.553  1.00  0.00    -0.303 C  
HETATM    8  C   UNL     1     -11.028  11.441  64.304  1.00  0.00    -0.321 C  
HETATM    9  C   UNL     1      -9.849   9.969  66.611  1.00  0.00    -0.259 C  
ENDROOT
BRANCH   7  10
HETATM   10  O   UNL     1     -10.462  10.367  68.898  1.00  0.00    -0.187 OA 
BRANCH  10  11
HETATM   11  C   UNL     1     -10.579   9.049  69.463  1.00  0.00    -0.225 C  
BRANCH  11  12
HETATM   12  C   UNL     1     -11.681   9.049  70.517  1.00  0.00    -0.160 A  
HETATM   13  C   UNL     1     -12.243  10.234  71.007  1.00  0.00    -0.487 A  
HETATM   14  C   UNL     1     -12.153   7.822  71.015  1.00  0.00    -0.264 A  
HETATM   15  C   UNL     1     -13.283  10.195  71.937  1.00  0.00    -0.557 A  
HETATM   16  C   UNL     1     -13.194   7.785  71.943  1.00  0.00    -0.300 A  
HETATM   17  C   UNL     1     -13.765   8.971  72.396  1.00  0.00    -0.539 A  
ENDBRANCH  11  12
BRANCH  11  18
HETATM   18  C   UNL     1      -9.275   8.465  69.988  1.00  0.00    -0.158 A  
HETATM   19  C   UNL     1      -7.422   6.901  69.839  1.00  0.00    -0.094 A  
HETATM   20  C   UNL     1      -8.659   7.361  69.382  1.00  0.00    -0.134 A  
HETATM   21  C   UNL     1      -7.402   8.606  71.545  1.00  0.00    -0.118 A  
HETATM   22  C   UNL     1      -6.790   7.528  70.913  1.00  0.00    -0.047 A  
HETATM   23  C   UNL     1      -8.637   9.070  71.088  1.00  0.00    -0.250 A  
ENDBRANCH  11  18
ENDBRANCH  10  11
ENDBRANCH   7  10
TORSDOF 4
ENDMDL
MODEL      106
REMARK 921   NORMALIZED FREE ENERGY PREDICTED BY IDOCK:   -4.58 KCAL/MOL
REMARK 922        TOTAL FREE ENERGY PREDICTED BY IDOCK:   -7.07 KCAL/MOL
REMARK 923 INTER-LIGAND FREE ENERGY PREDICTED BY IDOCK:   -5.80 KCAL/MOL
REMARK 924 INTRA-LIGAND FREE ENERGY PREDICTED BY IDOCK:   -1.26 KCAL/MOL
REMARK 927      BINDING AFFINITY PREDICTED BY RF-SCORE:    0.00 PKD
ROOT
HETATM    1  C   UNL     1      -7.153   9.593  69.147  1.00  0.00    -0.062 C  
HETATM    2  C   UNL     1      -6.579  10.880  69.748  1.00  0.00    -0.140 C  
HETATM    3  C   UNL     1      -5.819  11.535  68.594  1.00  0.00    -0.042 C  
HETATM    4  C   UNL     1      -6.014  10.573  67.417  1.00  0.00    -0.052 C  
HETATM    5  N   UNL     1      -6.155   9.295  68.117  1.00  0.00    -0.052 NA 
HETATM    6  C   UNL     1      -7.257  10.950  66.603  1.00  0.00    -0.139 C  
HETATM    7  C   UNL     1      -8.609  10.730  67.318  1.00  0.00    -0.130 C  
HETATM    8  C   UNL     1      -6.440   8.145  67.276  1.00  0.00    -0.057 C  
HETATM    9  C   UNL     1      -8.554   9.809  68.558  1.00  0.00    -0.120 C  
ENDROOT
BRANCH   7  10
HETATM   10  O   UNL     1      -9.253  11.949  67.723  1.00  0.00    -0.172 OA 
BRANCH  10  11
HETATM   11  C   UNL     1     -10.684  11.997  67.582  1.00  0.00    -0.217 C  
BRANCH  11  12
HETATM   12  C   UNL     1     -11.055  13.088  66.585  1.00  0.00    -0.318 A  
HETATM   13  C   UNL     1     -10.144  14.074  66.186  1.00  0.00    -0.319 A  
HETATM   14  C   UNL     1     -12.352  13.109  66.043  1.00  0.00    -0.426 A  
HETATM   15  C   UNL     1     -10.504  15.030  65.235  1.00  0.00    -0.428 A  
HETATM   16  C   UNL     1     -12.710  14.064  65.090  1.00  0.00    -0.419 A  
HETATM   17  C   UNL     1     -11.782  15.018  64.680  1.00  0.00    -0.383 A  
ENDBRANCH  11  12
BRANCH  11  18
HETATM   18  C   UNL     1     -11.447  12.125  68.892  1.00  0.00    -0.350 A  
HETATM   19  C   UNL     1     -12.642  11.155  70.773  1.00  0.00    -0.445 A  
HETATM   20  C   UNL     1     -12.018  11.015  69.531  1.00  0.00    -0.413 A  
HETATM   21  C   UNL     1     -12.179  13.522  70.753  1.00  0.00    -0.417 A  
HETATM   22  C   UNL     1     -12.715  12.405  71.387  1.00  0.00    -0.346 A  
HETATM   23  C   UNL     1     -11.552  13.385  69.514  1.00  0.00    -0.352 A  
ENDBRANCH  11  18
ENDBRANCH  10  11
ENDBRANCH   7  10
TORSDOF 4
ENDMDL
MODEL      107
REMARK 921   NORMALIZED FREE ENERGY PREDICTED BY IDOCK:   -4.57 KCAL/MOL
REMARK 922        TOTAL FREE ENERGY PREDICTED BY IDOCK:   -7.04 KCAL/MOL
REMARK 923 INTER-LIGAND FREE ENERGY PREDICTED BY IDOCK:   -5.55 KCAL/MOL
REMARK 924 INTRA-LIGAND FREE ENERGY PREDICTED BY IDOCK:   -1.49 KCAL/MOL
REMARK 927      BINDING AFFINITY PREDICTED BY RF-SCORE:    0.00 PKD
ROOT
HETATM    1  C   UNL     1      -7.791   9.999  68.850  1.00  0.00    -0.095 C  
HETATM    2  C   UNL     1      -9.204  10.589  68.816  1.00  0.00    -0.177 C  
HETATM    3  C   UNL     1     -10.033   9.556  68.053  1.00  0.00    -0.198 C  
HETATM    4  C   UNL     1      -9.031   8.449  67.704  1.00  0.00    -0.135 C  
HETATM    5  N   UNL     1      -7.787   9.214  67.613  1.00  0.00    -0.096 NA 
HETATM    6  C   UNL     1      -8.997   7.378  68.800  1.00  0.00    -0.129 C  
HETATM    7  C   UNL     1      -8.395   7.830  70.150  1.00  0.00    -0.128 C  
HETATM    8  C   UNL     1      -6.586   8.433  67.366  1.00  0.00    -0.059 C  
HETATM    9  C   UNL     1      -7.560   9.130  70.094  1.00  0.00    -0.093 C  
ENDROOT
BRANCH   7  10
HETATM   10  O   UNL     1      -9.371   7.996  71.191  1.00  0.00    -0.145 OA 
BRANCH  10  11
HETATM   11  C   UNL     1     -10.478   7.077  71.184  1.00  0.00    -0.211 C  
BRANCH  11  12
HETATM   12  C   UNL     1     -11.768   7.842  71.456  1.00  0.00    -0.317 A  
HETATM   13  C   UNL     1     -11.772   9.206  71.774  1.00  0.00    -0.456 A  
HETATM   14  C   UNL     1     -12.996   7.162  71.385  1.00  0.00    -0.419 A  
HETATM   15  C   UNL     1     -12.976   9.885  71.970  1.00  0.00    -0.518 A  
HETATM   16  C   UNL     1     -14.199   7.843  71.580  1.00  0.00    -0.564 A  
HETATM   17  C   UNL     1     -14.188   9.207  71.862  1.00  0.00    -0.288 A  
ENDBRANCH  11  12
BRANCH  11  18
HETATM   18  C   UNL     1     -10.312   5.875  72.104  1.00  0.00    -0.241 A  
HETATM   19  C   UNL     1     -10.560   4.786  74.262  1.00  0.00    -0.330 A  
HETATM   20  C   UNL     1     -10.648   5.929  73.464  1.00  0.00    -0.289 A  
HETATM   21  C   UNL     1      -9.760   3.515  72.375  1.00  0.00    -0.217 A  
HETATM   22  C   UNL     1     -10.126   3.579  73.716  1.00  0.00    -0.189 A  
HETATM   23  C   UNL     1      -9.850   4.655  71.574  1.00  0.00    -0.259 A  
ENDBRANCH  11  18
ENDBRANCH  10  11
ENDBRANCH   7  10
TORSDOF 4
ENDMDL
MODEL      108
REMARK 921   NORMALIZED FREE ENERGY PREDICTED BY IDOCK:   -4.57 KCAL/MOL
REMARK 922        TOTAL FREE ENERGY PREDICTED BY IDOCK:   -7.04 KCAL/MOL
REMARK 923 INTER-LIGAND FREE ENERGY PREDICTED BY IDOCK:   -5.41 KCAL/MOL
REMARK 924 INTRA-LIGAND FREE ENERGY PREDICTED BY IDOCK:   -1.63 KCAL/MOL
REMARK 927      BINDING AFFINITY PREDICTED BY RF-SCORE:    0.00 PKD
ROOT
HETATM    1  C   UNL     1      -9.864   4.675  67.250  1.00  0.00    -0.180 C  
HETATM    2  C   UNL     1      -9.833   4.776  68.778  1.00  0.00    -0.218 C  
HETATM    3  C   UNL     1      -8.611   5.645  69.079  1.00  0.00    -0.105 C  
HETATM    4  C   UNL     1      -8.033   5.976  67.700  1.00  0.00    -0.102 C  
HETATM    5  N   UNL     1      -8.440   4.799  66.932  1.00  0.00    -0.106 NA 
HETATM    6  C   UNL     1      -8.628   7.280  67.157  1.00  0.00    -0.121 C  
HETATM    7  C   UNL     1     -10.126   7.218  66.779  1.00  0.00    -0.221 C  
HETATM    8  C   UNL     1      -8.109   4.824  65.517  1.00  0.00    -0.111 C  
HETATM    9  C   UNL     1     -10.704   5.794  66.617  1.00  0.00    -0.333 C  
ENDROOT
BRANCH   7  10
HETATM   10  O   UNL     1     -10.981   7.922  67.694  1.00  0.00    -0.104 OA 
BRANCH  10  11
HETATM   11  C   UNL     1     -10.377   8.993  68.442  1.00  0.00    -0.205 C  
BRANCH  11  12
HETATM   12  C   UNL     1     -10.449   8.670  69.930  1.00  0.00    -0.221 A  
HETATM   13  C   UNL     1      -9.368   8.889  70.793  1.00  0.00    -0.280 A  
HETATM   14  C   UNL     1     -11.636   8.135  70.459  1.00  0.00    -0.130 A  
HETATM   15  C   UNL     1      -9.485   8.625  72.159  1.00  0.00    -0.373 A  
HETATM   16  C   UNL     1     -11.753   7.874  71.825  1.00  0.00    -0.329 A  
HETATM   17  C   UNL     1     -10.680   8.129  72.675  1.00  0.00    -0.421 A  
ENDBRANCH  11  12
BRANCH  11  18
HETATM   18  C   UNL     1     -10.923  10.377  68.123  1.00  0.00    -0.334 A  
HETATM   19  C   UNL     1     -11.571  12.624  68.785  1.00  0.00    -0.355 A  
HETATM   20  C   UNL     1     -11.146  11.336  69.121  1.00  0.00    -0.312 A  
HETATM   21  C   UNL     1     -11.601  12.019  66.450  1.00  0.00    -0.381 A  
HETATM   22  C   UNL     1     -11.789  12.967  67.452  1.00  0.00    -0.411 A  
HETATM   23  C   UNL     1     -11.173  10.732  66.783  1.00  0.00    -0.053 A  
ENDBRANCH  11  18
ENDBRANCH  10  11
ENDBRANCH   7  10
TORSDOF 4
ENDMDL
MODEL      109
REMARK 921   NORMALIZED FREE ENERGY PREDICTED BY IDOCK:   -4.55 KCAL/MOL
REMARK 922        TOTAL FREE ENERGY PREDICTED BY IDOCK:   -7.02 KCAL/MOL
REMARK 923 INTER-LIGAND FREE ENERGY PREDICTED BY IDOCK:   -5.70 KCAL/MOL
REMARK 924 INTRA-LIGAND FREE ENERGY PREDICTED BY IDOCK:   -1.32 KCAL/MOL
REMARK 927      BINDING AFFINITY PREDICTED BY RF-SCORE:    0.00 PKD
ROOT
HETATM    1  C   UNL     1      -8.574   8.218  70.928  1.00  0.00    -0.137 C  
HETATM    2  C   UNL     1      -8.139   7.222  69.849  1.00  0.00    -0.127 C  
HETATM    3  C   UNL     1      -9.427   6.499  69.454  1.00  0.00    -0.147 C  
HETATM    4  C   UNL     1     -10.505   7.134  70.338  1.00  0.00    -0.218 C  
HETATM    5  N   UNL     1      -9.719   7.515  71.512  1.00  0.00    -0.166 NA 
HETATM    6  C   UNL     1     -11.151   8.334  69.635  1.00  0.00    -0.009 C  
HETATM    7  C   UNL     1     -10.235   9.566  69.450  1.00  0.00    -0.206 C  
HETATM    8  C   UNL     1     -10.442   8.237  72.546  1.00  0.00    -0.336 C  
HETATM    9  C   UNL     1      -8.965   9.577  70.331  1.00  0.00    -0.291 C  
ENDROOT
BRANCH   7  10
HETATM   10  O   UNL     1      -9.813   9.773  68.093  1.00  0.00    -0.144 OA 
BRANCH  10  11
HETATM   11  C   UNL     1     -10.606  10.679  67.306  1.00  0.00    -0.263 C  
BRANCH  11  12
HETATM   12  C   UNL     1     -10.191  10.570  65.843  1.00  0.00    -0.311 A  
HETATM   13  C   UNL     1      -9.178   9.700  65.419  1.00  0.00    -0.295 A  
HETATM   14  C   UNL     1     -10.842  11.365  64.884  1.00  0.00    -0.323 A  
HETATM   15  C   UNL     1      -8.857   9.591  64.065  1.00  0.00    -0.243 A  
HETATM   16  C   UNL     1     -10.521  11.254  63.531  1.00  0.00    -0.457 A  
HETATM   17  C   UNL     1      -9.536  10.360  63.121  1.00  0.00    -0.362 A  
ENDBRANCH  11  12
BRANCH  11  18
HETATM   18  C   UNL     1     -10.606  12.118  67.802  1.00  0.00    -0.229 A  
HETATM   19  C   UNL     1     -11.716  14.028  68.814  1.00  0.00    -0.388 A  
HETATM   20  C   UNL     1     -11.767  12.734  68.291  1.00  0.00    -0.388 A  
HETATM   21  C   UNL     1      -9.354  14.142  68.336  1.00  0.00    -0.208 A  
HETATM   22  C   UNL     1     -10.510  14.728  68.845  1.00  0.00    -0.249 A  
HETATM   23  C   UNL     1      -9.401  12.848  67.816  1.00  0.00    -0.203 A  
ENDBRANCH  11  18
ENDBRANCH  10  11
ENDBRANCH   7  10
TORSDOF 4
ENDMDL
MODEL      110
REMARK 921   NORMALIZED FREE ENERGY PREDICTED BY IDOCK:   -4.52 KCAL/MOL
REMARK 922        TOTAL FREE ENERGY PREDICTED BY IDOCK:   -6.99 KCAL/MOL
REMARK 923 INTER-LIGAND FREE ENERGY PREDICTED BY IDOCK:   -6.03 KCAL/MOL
REMARK 924 INTRA-LIGAND FREE ENERGY PREDICTED BY IDOCK:   -0.96 KCAL/MOL
REMARK 927      BINDING AFFINITY PREDICTED BY RF-SCORE:    0.00 PKD
ROOT
HETATM    1  C   UNL     1     -10.407   8.886  69.754  1.00  0.00    -0.207 C  
HETATM    2  C   UNL     1      -9.151   9.422  70.447  1.00  0.00    -0.302 C  
HETATM    3  C   UNL     1      -7.992   8.901  69.598  1.00  0.00    -0.092 C  
HETATM    4  C   UNL     1      -8.671   8.103  68.479  1.00  0.00    -0.134 C  
HETATM    5  N   UNL     1      -9.891   7.654  69.153  1.00  0.00    -0.168 NA 
HETATM    6  C   UNL     1      -8.952   8.995  67.264  1.00  0.00    -0.139 C  
HETATM    7  C   UNL     1     -10.032  10.080  67.475  1.00  0.00    -0.190 C  
HETATM    8  C   UNL     1     -10.830   6.913  68.327  1.00  0.00    -0.184 C  
HETATM    9  C   UNL     1     -10.946   9.867  68.703  1.00  0.00    -0.222 C  
ENDROOT
BRANCH   7  10
HETATM   10  O   UNL     1      -9.502  11.412  67.565  1.00  0.00    -0.165 OA 
BRANCH  10  11
HETATM   11  C   UNL     1     -10.431  12.489  67.341  1.00  0.00    -0.219 C  
BRANCH  11  12
HETATM   12  C   UNL     1     -10.936  12.426  65.905  1.00  0.00    -0.323 A  
HETATM   13  C   UNL     1     -10.111  12.044  64.840  1.00  0.00    -0.289 A  
HETATM   14  C   UNL     1     -12.275  12.760  65.634  1.00  0.00    -0.503 A  
HETATM   15  C   UNL     1     -10.620  11.953  63.544  1.00  0.00    -0.507 A  
HETATM   16  C   UNL     1     -12.783  12.667  64.338  1.00  0.00    -0.417 A  
HETATM   17  C   UNL     1     -11.958  12.253  63.296  1.00  0.00    -0.499 A  
ENDBRANCH  11  12
BRANCH  11  18
HETATM   18  C   UNL     1      -9.905  13.868  67.711  1.00  0.00    -0.237 A  
HETATM   19  C   UNL     1      -9.631  15.699  69.285  1.00  0.00    -0.268 A  
HETATM   20  C   UNL     1     -10.195  14.468  68.945  1.00  0.00    -0.229 A  
HETATM   21  C   UNL     1      -8.503  15.786  67.155  1.00  0.00    -0.235 A  
HETATM   22  C   UNL     1      -8.779  16.353  68.396  1.00  0.00    -0.213 A  
HETATM   23  C   UNL     1      -9.063  14.554  66.813  1.00  0.00    -0.283 A  
ENDBRANCH  11  18
ENDBRANCH  10  11
ENDBRANCH   7  10
TORSDOF 4
ENDMDL
MODEL      111
REMARK 921   NORMALIZED FREE ENERGY PREDICTED BY IDOCK:   -4.50 KCAL/MOL
REMARK 922        TOTAL FREE ENERGY PREDICTED BY IDOCK:   -6.96 KCAL/MOL
REMARK 923 INTER-LIGAND FREE ENERGY PREDICTED BY IDOCK:   -6.08 KCAL/MOL
REMARK 924 INTRA-LIGAND FREE ENERGY PREDICTED BY IDOCK:   -0.88 KCAL/MOL
REMARK 927      BINDING AFFINITY PREDICTED BY RF-SCORE:    0.00 PKD
ROOT
HETATM    1  C   UNL     1      -9.625  15.398  69.170  1.00  0.00    -0.253 C  
HETATM    2  C   UNL     1     -10.630  15.240  70.314  1.00  0.00    -0.257 C  
HETATM    3  C   UNL     1     -11.983  15.573  69.685  1.00  0.00    -0.380 C  
HETATM    4  C   UNL     1     -11.652  15.899  68.225  1.00  0.00    -0.272 C  
HETATM    5  N   UNL     1     -10.289  16.417  68.353  1.00  0.00    -0.268 NA 
HETATM    6  C   UNL     1     -11.734  14.641  67.352  1.00  0.00    -0.413 C  
HETATM    7  C   UNL     1     -10.642  13.580  67.614  1.00  0.00    -0.241 C  
HETATM    8  C   UNL     1      -9.625  16.758  67.106  1.00  0.00    -0.236 C  
HETATM    9  C   UNL     1      -9.413  14.084  68.405  1.00  0.00    -0.213 C  
ENDROOT
BRANCH   7  10
HETATM   10  O   UNL     1     -11.127  12.406  68.285  1.00  0.00    -0.214 OA 
BRANCH  10  11
HETATM   11  C   UNL     1     -11.284  11.225  67.479  1.00  0.00    -0.291 C  
BRANCH  11  12
HETATM   12  C   UNL     1     -10.512  10.075  68.116  1.00  0.00    -0.250 A  
HETATM   13  C   UNL     1     -10.591   8.764  67.629  1.00  0.00    -0.281 A  
HETATM   14  C   UNL     1      -9.692  10.333  69.228  1.00  0.00    -0.240 A  
HETATM   15  C   UNL     1      -9.833   7.745  68.207  1.00  0.00    -0.185 A  
HETATM   16  C   UNL     1      -8.933   9.313  69.804  1.00  0.00    -0.180 A  
HETATM   17  C   UNL     1      -8.997   8.022  69.287  1.00  0.00    -0.148 A  
ENDBRANCH  11  12
BRANCH  11  18
HETATM   18  C   UNL     1     -10.941  11.409  66.008  1.00  0.00    -0.286 A  
HETATM   19  C   UNL     1     -11.505  12.127  63.756  1.00  0.00    -0.548 A  
HETATM   20  C   UNL     1     -11.876  11.893  65.082  1.00  0.00    -0.187 A  
HETATM   21  C   UNL     1      -9.267  11.363  64.233  1.00  0.00     0.005 A  
HETATM   22  C   UNL     1     -10.200  11.871  63.334  1.00  0.00    -0.478 A  
HETATM   23  C   UNL     1      -9.634  11.132  65.560  1.00  0.00    -0.263 A  
ENDBRANCH  11  18
ENDBRANCH  10  11
ENDBRANCH   7  10
TORSDOF 4
ENDMDL
MODEL      112
REMARK 921   NORMALIZED FREE ENERGY PREDICTED BY IDOCK:   -4.48 KCAL/MOL
REMARK 922        TOTAL FREE ENERGY PREDICTED BY IDOCK:   -6.93 KCAL/MOL
REMARK 923 INTER-LIGAND FREE ENERGY PREDICTED BY IDOCK:   -5.67 KCAL/MOL
REMARK 924 INTRA-LIGAND FREE ENERGY PREDICTED BY IDOCK:   -1.27 KCAL/MOL
REMARK 927      BINDING AFFINITY PREDICTED BY RF-SCORE:    0.00 PKD
ROOT
HETATM    1  C   UNL     1      -9.304  11.204  65.568  1.00  0.00    -0.223 C  
HETATM    2  C   UNL     1      -8.197  11.472  66.593  1.00  0.00    -0.156 C  
HETATM    3  C   UNL     1      -8.928  12.057  67.801  1.00  0.00    -0.176 C  
HETATM    4  C   UNL     1     -10.401  12.081  67.379  1.00  0.00    -0.207 C  
HETATM    5  N   UNL     1     -10.276  12.239  65.929  1.00  0.00    -0.244 NA 
HETATM    6  C   UNL     1     -11.106  10.781  67.782  1.00  0.00    -0.381 C  
HETATM    7  C   UNL     1     -10.657   9.518  67.012  1.00  0.00    -0.201 C  
HETATM    8  C   UNL     1     -11.524  12.219  65.184  1.00  0.00    -0.341 C  
HETATM    9  C   UNL     1      -9.881   9.787  65.703  1.00  0.00    -0.371 C  
ENDROOT
BRANCH   7  10
HETATM   10  O   UNL     1      -9.863   8.615  67.799  1.00  0.00    -0.159 OA 
BRANCH  10  11
HETATM   11  C   UNL     1     -10.529   7.439  68.293  1.00  0.00    -0.189 C  
BRANCH  11  12
HETATM   12  C   UNL     1     -10.854   7.629  69.770  1.00  0.00    -0.222 A  
HETATM   13  C   UNL     1     -10.240   8.621  70.547  1.00  0.00    -0.229 A  
HETATM   14  C   UNL     1     -11.799   6.785  70.379  1.00  0.00    -0.395 A  
HETATM   15  C   UNL     1     -10.597   8.796  71.885  1.00  0.00    -0.425 A  
HETATM   16  C   UNL     1     -12.156   6.963  71.716  1.00  0.00    -0.385 A  
HETATM   17  C   UNL     1     -11.561   7.975  72.465  1.00  0.00    -0.464 A  
ENDBRANCH  11  12
BRANCH  11  18
HETATM   18  C   UNL     1      -9.795   6.133  68.024  1.00  0.00    -0.134 A  
HETATM   19  C   UNL     1      -8.015   4.547  68.492  1.00  0.00    -0.079 A  
HETATM   20  C   UNL     1      -8.619   5.789  68.704  1.00  0.00    -0.109 A  
HETATM   21  C   UNL     1      -9.722   3.977  66.886  1.00  0.00    -0.215 A  
HETATM   22  C   UNL     1      -8.570   3.639  67.592  1.00  0.00    -0.113 A  
HETATM   23  C   UNL     1     -10.329   5.215  67.098  1.00  0.00    -0.246 A  
ENDBRANCH  11  18
ENDBRANCH  10  11
ENDBRANCH   7  10
TORSDOF 4
ENDMDL
MODEL      113
REMARK 921   NORMALIZED FREE ENERGY PREDICTED BY IDOCK:   -4.45 KCAL/MOL
REMARK 922        TOTAL FREE ENERGY PREDICTED BY IDOCK:   -6.91 KCAL/MOL
REMARK 923 INTER-LIGAND FREE ENERGY PREDICTED BY IDOCK:   -5.29 KCAL/MOL
REMARK 924 INTRA-LIGAND FREE ENERGY PREDICTED BY IDOCK:   -1.62 KCAL/MOL
REMARK 927      BINDING AFFINITY PREDICTED BY RF-SCORE:    0.00 PKD
ROOT
HETATM    1  C   UNL     1      -7.900   7.462  67.081  1.00  0.00    -0.117 C  
HETATM    2  C   UNL     1      -7.295   6.344  67.934  1.00  0.00    -0.089 C  
HETATM    3  C   UNL     1      -6.854   7.039  69.222  1.00  0.00    -0.054 C  
HETATM    4  C   UNL     1      -7.239   8.507  69.011  1.00  0.00    -0.073 C  
HETATM    5  N   UNL     1      -7.137   8.620  67.555  1.00  0.00    -0.079 NA 
HETATM    6  C   UNL     1      -8.654   8.782  69.534  1.00  0.00    -0.130 C  
HETATM    7  C   UNL     1      -9.797   8.116  68.734  1.00  0.00    -0.176 C  
HETATM    8  C   UNL     1      -7.524   9.903  66.994  1.00  0.00    -0.091 C  
HETATM    9  C   UNL     1      -9.408   7.618  67.324  1.00  0.00    -0.174 C  
ENDROOT
BRANCH   7  10
HETATM   10  O   UNL     1     -10.415   7.015  69.419  1.00  0.00    -0.200 OA 
BRANCH  10  11
HETATM   11  C   UNL     1     -10.497   7.114  70.852  1.00  0.00    -0.210 C  
BRANCH  11  12
HETATM   12  C   UNL     1     -10.115   5.775  71.471  1.00  0.00    -0.246 A  
HETATM   13  C   UNL     1      -9.872   4.636  70.693  1.00  0.00    -0.296 A  
HETATM   14  C   UNL     1     -10.001   5.673  72.868  1.00  0.00    -0.196 A  
HETATM   15  C   UNL     1      -9.478   3.438  71.291  1.00  0.00    -0.224 A  
HETATM   16  C   UNL     1      -9.606   4.475  73.465  1.00  0.00    -0.133 A  
HETATM   17  C   UNL     1      -9.335   3.362  72.675  1.00  0.00    -0.150 A  
ENDBRANCH  11  12
BRANCH  11  18
HETATM   18  C   UNL     1     -11.826   7.639  71.378  1.00  0.00    -0.320 A  
HETATM   19  C   UNL     1     -13.187   9.382  72.383  1.00  0.00    -0.483 A  
HETATM   20  C   UNL     1     -11.939   8.898  71.984  1.00  0.00    -0.439 A  
HETATM   21  C   UNL     1     -14.236   7.349  71.618  1.00  0.00    -0.583 A  
HETATM   22  C   UNL     1     -14.335   8.613  72.192  1.00  0.00    -0.518 A  
HETATM   23  C   UNL     1     -12.990   6.863  71.216  1.00  0.00    -0.309 A  
ENDBRANCH  11  18
ENDBRANCH  10  11
ENDBRANCH   7  10
TORSDOF 4
ENDMDL
MODEL      114
REMARK 921   NORMALIZED FREE ENERGY PREDICTED BY IDOCK:   -4.43 KCAL/MOL
REMARK 922        TOTAL FREE ENERGY PREDICTED BY IDOCK:   -6.87 KCAL/MOL
REMARK 923 INTER-LIGAND FREE ENERGY PREDICTED BY IDOCK:   -5.84 KCAL/MOL
REMARK 924 INTRA-LIGAND FREE ENERGY PREDICTED BY IDOCK:   -1.03 KCAL/MOL
REMARK 927      BINDING AFFINITY PREDICTED BY RF-SCORE:    0.00 PKD
ROOT
HETATM    1  C   UNL     1     -11.576  16.117  68.465  1.00  0.00    -0.265 C  
HETATM    2  C   UNL     1     -10.772  16.864  67.396  1.00  0.00    -0.241 C  
HETATM    3  C   UNL     1      -9.348  16.911  67.952  1.00  0.00    -0.238 C  
HETATM    4  C   UNL     1      -9.443  16.188  69.299  1.00  0.00    -0.224 C  
HETATM    5  N   UNL     1     -10.829  16.470  69.674  1.00  0.00    -0.339 NA 
HETATM    6  C   UNL     1      -9.160  14.690  69.136  1.00  0.00    -0.030 C  
HETATM    7  C   UNL     1     -10.234  13.893  68.360  1.00  0.00    -0.243 C  
HETATM    8  C   UNL     1     -11.288  15.845  70.904  1.00  0.00    -0.391 C  
HETATM    9  C   UNL     1     -11.599  14.603  68.213  1.00  0.00    -0.353 C  
ENDROOT
BRANCH   7  10
HETATM   10  O   UNL     1      -9.818  13.494  67.045  1.00  0.00    -0.239 OA 
BRANCH  10  11
HETATM   11  C   UNL     1      -9.206  12.196  66.931  1.00  0.00    -0.203 C  
BRANCH  11  12
HETATM   12  C   UNL     1      -9.438  11.653  65.526  1.00  0.00    -0.215 A  
HETATM   13  C   UNL     1      -8.839  10.469  65.077  1.00  0.00    -0.207 A  
HETATM   14  C   UNL     1     -10.280  12.358  64.648  1.00  0.00    -0.312 A  
HETATM   15  C   UNL     1      -9.111   9.976  63.800  1.00  0.00    -0.302 A  
HETATM   16  C   UNL     1     -10.552  11.862  63.372  1.00  0.00    -0.485 A  
HETATM   17  C   UNL     1      -9.976  10.666  62.953  1.00  0.00    -0.185 A  
ENDBRANCH  11  12
BRANCH  11  18
HETATM   18  C   UNL     1      -9.615  11.205  68.011  1.00  0.00    -0.181 A  
HETATM   19  C   UNL     1      -9.094   9.769  69.901  1.00  0.00    -0.257 A  
HETATM   20  C   UNL     1      -8.677  10.612  68.868  1.00  0.00    -0.163 A  
HETATM   21  C   UNL     1     -11.391  10.054  69.224  1.00  0.00    -0.169 A  
HETATM   22  C   UNL     1     -10.449   9.497  70.084  1.00  0.00    -0.299 A  
HETATM   23  C   UNL     1     -10.978  10.900  68.193  1.00  0.00    -0.302 A  
ENDBRANCH  11  18
ENDBRANCH  10  11
ENDBRANCH   7  10
TORSDOF 4
ENDMDL
MODEL      115
REMARK 921   NORMALIZED FREE ENERGY PREDICTED BY IDOCK:   -4.42 KCAL/MOL
REMARK 922        TOTAL FREE ENERGY PREDICTED BY IDOCK:   -6.87 KCAL/MOL
REMARK 923 INTER-LIGAND FREE ENERGY PREDICTED BY IDOCK:   -5.66 KCAL/MOL
REMARK 924 INTRA-LIGAND FREE ENERGY PREDICTED BY IDOCK:   -1.21 KCAL/MOL
REMARK 927      BINDING AFFINITY PREDICTED BY RF-SCORE:    0.00 PKD
ROOT
HETATM    1  C   UNL     1     -10.011  13.820  67.272  1.00  0.00    -0.239 C  
HETATM    2  C   UNL     1      -9.605  14.017  65.809  1.00  0.00    -0.138 C  
HETATM    3  C   UNL     1     -10.450  15.198  65.333  1.00  0.00    -0.416 C  
HETATM    4  C   UNL     1     -11.279  15.590  66.560  1.00  0.00    -0.104 C  
HETATM    5  N   UNL     1     -11.394  14.303  67.246  1.00  0.00    -0.318 NA 
HETATM    6  C   UNL     1     -10.552  16.651  67.394  1.00  0.00    -0.295 C  
HETATM    7  C   UNL     1      -9.273  16.166  68.114  1.00  0.00    -0.193 C  
HETATM    8  C   UNL     1     -12.076  14.332  68.529  1.00  0.00    -0.260 C  
HETATM    9  C   UNL     1      -9.126  14.632  68.229  1.00  0.00    -0.189 C  
ENDROOT
BRANCH   7  10
HETATM   10  O   UNL     1      -8.059  16.667  67.534  1.00  0.00    -0.162 OA 
BRANCH  10  11
HETATM   11  C   UNL     1      -7.769  18.059  67.755  1.00  0.00    -0.222 C  
BRANCH  11  12
HETATM   12  C   UNL     1      -7.141  18.648  66.497  1.00  0.00    -0.244 A  
HETATM   13  C   UNL     1      -7.421  19.950  66.063  1.00  0.00    -0.338 A  
HETATM   14  C   UNL     1      -6.250  17.864  65.744  1.00  0.00    -0.252 A  
HETATM   15  C   UNL     1      -6.791  20.473  64.933  1.00  0.00    -0.193 A  
HETATM   16  C   UNL     1      -5.620  18.388  64.614  1.00  0.00    -0.093 A  
HETATM   17  C   UNL     1      -5.883  19.696  64.216  1.00  0.00    -0.318 A  
ENDBRANCH  11  12
BRANCH  11  18
HETATM   18  C   UNL     1      -6.945  18.346  69.002  1.00  0.00    -0.272 A  
HETATM   19  C   UNL     1      -5.341  17.682  70.703  1.00  0.00    -0.261 A  
HETATM   20  C   UNL     1      -6.147  17.365  69.607  1.00  0.00    -0.249 A  
HETATM   21  C   UNL     1      -6.139  19.958  70.646  1.00  0.00    -0.305 A  
HETATM   22  C   UNL     1      -5.331  18.979  71.216  1.00  0.00    -0.285 A  
HETATM   23  C   UNL     1      -6.943  19.644  69.549  1.00  0.00    -0.314 A  
ENDBRANCH  11  18
ENDBRANCH  10  11
ENDBRANCH   7  10
TORSDOF 4
ENDMDL
MODEL      116
REMARK 921   NORMALIZED FREE ENERGY PREDICTED BY IDOCK:   -4.40 KCAL/MOL
REMARK 922        TOTAL FREE ENERGY PREDICTED BY IDOCK:   -6.83 KCAL/MOL
REMARK 923 INTER-LIGAND FREE ENERGY PREDICTED BY IDOCK:   -5.46 KCAL/MOL
REMARK 924 INTRA-LIGAND FREE ENERGY PREDICTED BY IDOCK:   -1.37 KCAL/MOL
REMARK 927      BINDING AFFINITY PREDICTED BY RF-SCORE:    0.00 PKD
ROOT
HETATM    1  C   UNL     1      -7.476  12.031  68.130  1.00  0.00    -0.112 C  
HETATM    2  C   UNL     1      -8.956  12.425  68.162  1.00  0.00    -0.196 C  
HETATM    3  C   UNL     1      -9.650  11.380  67.288  1.00  0.00    -0.187 C  
HETATM    4  C   UNL     1      -8.515  10.465  66.818  1.00  0.00    -0.125 C  
HETATM    5  N   UNL     1      -7.385  11.395  66.813  1.00  0.00    -0.146 NA 
HETATM    6  C   UNL     1      -8.321   9.293  67.787  1.00  0.00    -0.116 C  
HETATM    7  C   UNL     1      -7.764   9.669  69.179  1.00  0.00    -0.087 C  
HETATM    8  C   UNL     1      -6.094  10.816  66.480  1.00  0.00    -0.103 C  
HETATM    9  C   UNL     1      -7.113  11.068  69.269  1.00  0.00    -0.123 C  
ENDROOT
BRANCH   7  10
HETATM   10  O   UNL     1      -8.738   9.586  70.232  1.00  0.00    -0.207 OA 
BRANCH  10  11
HETATM   11  C   UNL     1      -9.958   8.887  69.924  1.00  0.00    -0.188 C  
BRANCH  11  12
HETATM   12  C   UNL     1     -11.120   9.563  70.641  1.00  0.00    -0.364 A  
HETATM   13  C   UNL     1     -11.563  10.847  70.297  1.00  0.00    -0.426 A  
HETATM   14  C   UNL     1     -11.773   8.881  71.682  1.00  0.00    -0.411 A  
HETATM   15  C   UNL     1     -12.661  11.416  70.944  1.00  0.00    -0.453 A  
HETATM   16  C   UNL     1     -12.872   9.451  72.327  1.00  0.00    -0.452 A  
HETATM   17  C   UNL     1     -13.321  10.714  71.950  1.00  0.00    -0.454 A  
ENDBRANCH  11  12
BRANCH  11  18
HETATM   18  C   UNL     1      -9.912   7.387  70.179  1.00  0.00    -0.184 A  
HETATM   19  C   UNL     1     -10.514   5.103  69.607  1.00  0.00    -0.262 A  
HETATM   20  C   UNL     1     -10.640   6.478  69.398  1.00  0.00    -0.291 A  
HETATM   21  C   UNL     1      -8.962   5.507  71.409  1.00  0.00    -0.150 A  
HETATM   22  C   UNL     1      -9.669   4.618  70.605  1.00  0.00    -0.277 A  
HETATM   23  C   UNL     1      -9.084   6.882  71.200  1.00  0.00    -0.150 A  
ENDBRANCH  11  18
ENDBRANCH  10  11
ENDBRANCH   7  10
TORSDOF 4
ENDMDL
MODEL      117
REMARK 921   NORMALIZED FREE ENERGY PREDICTED BY IDOCK:   -4.38 KCAL/MOL
REMARK 922        TOTAL FREE ENERGY PREDICTED BY IDOCK:   -6.82 KCAL/MOL
REMARK 923 INTER-LIGAND FREE ENERGY PREDICTED BY IDOCK:   -5.75 KCAL/MOL
REMARK 924 INTRA-LIGAND FREE ENERGY PREDICTED BY IDOCK:   -1.07 KCAL/MOL
REMARK 927      BINDING AFFINITY PREDICTED BY RF-SCORE:    0.00 PKD
ROOT
HETATM    1  C   UNL     1     -12.357  13.237  66.156  1.00  0.00    -0.358 C  
HETATM    2  C   UNL     1     -12.580  12.559  64.801  1.00  0.00    -0.493 C  
HETATM    3  C   UNL     1     -11.268  12.772  64.045  1.00  0.00    -0.463 C  
HETATM    4  C   UNL     1     -10.390  13.559  65.024  1.00  0.00    -0.362 C  
HETATM    5  N   UNL     1     -11.403  14.287  65.789  1.00  0.00    -0.320 NA 
HETATM    6  C   UNL     1      -9.553  12.611  65.890  1.00  0.00    -0.158 C  
HETATM    7  C   UNL     1     -10.351  11.766  66.909  1.00  0.00    -0.217 C  
HETATM    8  C   UNL     1     -10.902  15.095  66.888  1.00  0.00    -0.317 C  
HETATM    9  C   UNL     1     -11.785  12.266  67.198  1.00  0.00    -0.396 C  
ENDROOT
BRANCH   7  10
HETATM   10  O   UNL     1     -10.448  10.377  66.557  1.00  0.00    -0.236 OA 
BRANCH  10  11
HETATM   11  C   UNL     1      -9.237   9.605  66.651  1.00  0.00    -0.151 C  
BRANCH  11  12
HETATM   12  C   UNL     1      -9.575   8.123  66.535  1.00  0.00    -0.303 A  
HETATM   13  C   UNL     1      -8.744   7.220  65.861  1.00  0.00    -0.150 A  
HETATM   14  C   UNL     1     -10.758   7.642  67.121  1.00  0.00    -0.361 A  
HETATM   15  C   UNL     1      -9.061   5.862  65.814  1.00  0.00    -0.101 A  
HETATM   16  C   UNL     1     -11.074   6.283  67.076  1.00  0.00    -0.379 A  
HETATM   17  C   UNL     1     -10.219   5.393  66.431  1.00  0.00    -0.268 A  
ENDBRANCH  11  12
BRANCH  11  18
HETATM   18  C   UNL     1      -8.383   9.910  67.874  1.00  0.00    -0.114 A  
HETATM   19  C   UNL     1      -7.962   9.811  70.265  1.00  0.00    -0.185 A  
HETATM   20  C   UNL     1      -8.804   9.591  69.172  1.00  0.00    -0.147 A  
HETATM   21  C   UNL     1      -6.272  10.710  68.798  1.00  0.00    -0.043 A  
HETATM   22  C   UNL     1      -6.694  10.361  70.077  1.00  0.00    -0.145 A  
HETATM   23  C   UNL     1      -7.110  10.489  67.703  1.00  0.00    -0.084 A  
ENDBRANCH  11  18
ENDBRANCH  10  11
ENDBRANCH   7  10
TORSDOF 4
ENDMDL
MODEL      118
REMARK 921   NORMALIZED FREE ENERGY PREDICTED BY IDOCK:   -4.38 KCAL/MOL
REMARK 922        TOTAL FREE ENERGY PREDICTED BY IDOCK:   -6.81 KCAL/MOL
REMARK 923 INTER-LIGAND FREE ENERGY PREDICTED BY IDOCK:   -5.51 KCAL/MOL
REMARK 924 INTRA-LIGAND FREE ENERGY PREDICTED BY IDOCK:   -1.30 KCAL/MOL
REMARK 927      BINDING AFFINITY PREDICTED BY RF-SCORE:    0.00 PKD
ROOT
HETATM    1  C   UNL     1     -10.419  13.331  64.246  1.00  0.00    -0.352 C  
HETATM    2  C   UNL     1     -10.274  14.646  65.016  1.00  0.00    -0.395 C  
HETATM    3  C   UNL     1     -11.613  14.820  65.734  1.00  0.00    -0.290 C  
HETATM    4  C   UNL     1     -12.427  13.590  65.320  1.00  0.00    -0.482 C  
HETATM    5  N   UNL     1     -11.863  13.309  63.999  1.00  0.00    -0.433 NA 
HETATM    6  C   UNL     1     -12.224  12.441  66.314  1.00  0.00    -0.062 C  
HETATM    7  C   UNL     1     -10.815  11.806  66.314  1.00  0.00    -0.281 C  
HETATM    8  C   UNL     1     -12.372  12.120  63.337  1.00  0.00    -0.538 C  
HETATM    9  C   UNL     1      -9.951  12.125  65.073  1.00  0.00    -0.242 C  
ENDROOT
BRANCH   7  10
HETATM   10  O   UNL     1     -10.034  12.137  67.473  1.00  0.00    -0.194 OA 
BRANCH  10  11
HETATM   11  C   UNL     1      -9.114  11.132  67.935  1.00  0.00    -0.150 C  
BRANCH  11  12
HETATM   12  C   UNL     1      -9.875  10.084  68.739  1.00  0.00    -0.173 A  
HETATM   13  C   UNL     1      -9.970   8.750  68.324  1.00  0.00    -0.202 A  
HETATM   14  C   UNL     1     -10.504  10.464  69.938  1.00  0.00    -0.266 A  
HETATM   15  C   UNL     1     -10.636   7.808  69.110  1.00  0.00    -0.193 A  
HETATM   16  C   UNL     1     -11.168   9.520  70.723  1.00  0.00    -0.383 A  
HETATM   17  C   UNL     1     -11.224   8.191  70.313  1.00  0.00    -0.182 A  
ENDBRANCH  11  12
BRANCH  11  18
HETATM   18  C   UNL     1      -7.906  11.673  68.686  1.00  0.00    -0.132 A  
HETATM   19  C   UNL     1      -5.881  11.352  69.991  1.00  0.00    -0.126 A  
HETATM   20  C   UNL     1      -7.025  10.832  69.380  1.00  0.00    -0.116 A  
HETATM   21  C   UNL     1      -6.488  13.571  69.266  1.00  0.00    -0.111 A  
HETATM   22  C   UNL     1      -5.608  12.718  69.926  1.00  0.00    -0.114 A  
HETATM   23  C   UNL     1      -7.630  13.054  68.652  1.00  0.00    -0.089 A  
ENDBRANCH  11  18
ENDBRANCH  10  11
ENDBRANCH   7  10
TORSDOF 4
ENDMDL
MODEL      119
REMARK 921   NORMALIZED FREE ENERGY PREDICTED BY IDOCK:   -4.37 KCAL/MOL
REMARK 922        TOTAL FREE ENERGY PREDICTED BY IDOCK:   -6.81 KCAL/MOL
REMARK 923 INTER-LIGAND FREE ENERGY PREDICTED BY IDOCK:   -5.21 KCAL/MOL
REMARK 924 INTRA-LIGAND FREE ENERGY PREDICTED BY IDOCK:   -1.59 KCAL/MOL
REMARK 927      BINDING AFFINITY PREDICTED BY RF-SCORE:    0.00 PKD
ROOT
HETATM    1  C   UNL     1     -10.610   9.343  71.305  1.00  0.00    -0.330 C  
HETATM    2  C   UNL     1      -9.578   8.656  72.204  1.00  0.00    -0.378 C  
HETATM    3  C   UNL     1     -10.342   7.499  72.848  1.00  0.00    -0.349 C  
HETATM    4  C   UNL     1     -11.757   7.610  72.271  1.00  0.00    -0.324 C  
HETATM    5  N   UNL     1     -11.850   9.050  72.028  1.00  0.00    -0.366 NA 
HETATM    6  C   UNL     1     -11.891   6.777  70.991  1.00  0.00    -0.427 C  
HETATM    7  C   UNL     1     -11.094   7.299  69.774  1.00  0.00    -0.182 C  
HETATM    8  C   UNL     1     -13.075   9.502  71.389  1.00  0.00    -0.370 C  
HETATM    9  C   UNL     1     -10.612   8.763  69.884  1.00  0.00    -0.230 C  
ENDROOT
BRANCH   7  10
HETATM   10  O   UNL     1      -9.948   6.497  69.448  1.00  0.00    -0.154 OA 
BRANCH  10  11
HETATM   11  C   UNL     1     -10.049   5.089  69.729  1.00  0.00    -0.267 C  
BRANCH  11  12
HETATM   12  C   UNL     1      -9.233   4.765  70.975  1.00  0.00    -0.194 A  
HETATM   13  C   UNL     1      -7.942   5.271  71.174  1.00  0.00    -0.108 A  
HETATM   14  C   UNL     1      -9.789   3.932  71.962  1.00  0.00    -0.245 A  
HETATM   15  C   UNL     1      -7.243   4.992  72.348  1.00  0.00    -0.087 A  
HETATM   16  C   UNL     1      -9.089   3.655  73.137  1.00  0.00    -0.111 A  
HETATM   17  C   UNL     1      -7.821   4.194  73.333  1.00  0.00    -0.085 A  
ENDBRANCH  11  12
BRANCH  11  18
HETATM   18  C   UNL     1      -9.703   4.181  68.558  1.00  0.00    -0.148 A  
HETATM   19  C   UNL     1      -9.147   3.830  66.218  1.00  0.00    -0.152 A  
HETATM   20  C   UNL     1      -9.544   4.677  67.256  1.00  0.00    -0.201 A  
HETATM   21  C   UNL     1      -9.096   1.963  67.744  1.00  0.00    -0.197 A  
HETATM   22  C   UNL     1      -8.915   2.477  66.464  1.00  0.00    -0.133 A  
HETATM   23  C   UNL     1      -9.490   2.807  68.784  1.00  0.00    -0.180 A  
ENDBRANCH  11  18
ENDBRANCH  10  11
ENDBRANCH   7  10
TORSDOF 4
ENDMDL
MODEL      120
REMARK 921   NORMALIZED FREE ENERGY PREDICTED BY IDOCK:   -4.36 KCAL/MOL
REMARK 922        TOTAL FREE ENERGY PREDICTED BY IDOCK:   -6.79 KCAL/MOL
REMARK 923 INTER-LIGAND FREE ENERGY PREDICTED BY IDOCK:   -5.79 KCAL/MOL
REMARK 924 INTRA-LIGAND FREE ENERGY PREDICTED BY IDOCK:   -1.00 KCAL/MOL
REMARK 927      BINDING AFFINITY PREDICTED BY RF-SCORE:    0.00 PKD
ROOT
HETATM    1  C   UNL     1     -10.912  11.133  66.580  1.00  0.00    -0.228 C  
HETATM    2  C   UNL     1     -10.114  10.001  65.926  1.00  0.00    -0.319 C  
HETATM    3  C   UNL     1      -8.655  10.326  66.245  1.00  0.00    -0.144 C  
HETATM    4  C   UNL     1      -8.725  11.622  67.059  1.00  0.00    -0.173 C  
HETATM    5  N   UNL     1      -9.942  12.230  66.520  1.00  0.00    -0.215 NA 
HETATM    6  C   UNL     1      -8.820  11.321  68.559  1.00  0.00    -0.159 C  
HETATM    7  C   UNL     1     -10.146  10.676  69.023  1.00  0.00    -0.213 C  
HETATM    8  C   UNL     1     -10.357  13.473  67.147  1.00  0.00    -0.250 C  
HETATM    9  C   UNL     1     -11.318  10.792  68.021  1.00  0.00    -0.378 C  
ENDROOT
BRANCH   7  10
HETATM   10  O   UNL     1     -10.021   9.288  69.372  1.00  0.00    -0.170 OA 
BRANCH  10  11
HETATM   11  C   UNL     1     -10.204   8.957  70.760  1.00  0.00    -0.226 C  
BRANCH  11  12
HETATM   12  C   UNL     1      -9.347   7.744  71.105  1.00  0.00    -0.164 A  
HETATM   13  C   UNL     1      -9.240   6.640  70.250  1.00  0.00    -0.156 A  
HETATM   14  C   UNL     1      -8.638   7.729  72.318  1.00  0.00    -0.173 A  
HETATM   15  C   UNL     1      -8.409   5.567  70.576  1.00  0.00    -0.116 A  
HETATM   16  C   UNL     1      -7.806   6.656  72.643  1.00  0.00    -0.101 A  
HETATM   17  C   UNL     1      -7.684   5.581  71.766  1.00  0.00    -0.107 A  
ENDBRANCH  11  12
BRANCH  11  18
HETATM   18  C   UNL     1     -11.655   8.781  71.185  1.00  0.00    -0.344 A  
HETATM   19  C   UNL     1     -13.588   7.388  71.663  1.00  0.00    -0.449 A  
HETATM   20  C   UNL     1     -12.280   7.526  71.190  1.00  0.00    -0.330 A  
HETATM   21  C   UNL     1     -13.695   9.757  72.100  1.00  0.00    -0.350 A  
HETATM   22  C   UNL     1     -14.290   8.500  72.126  1.00  0.00    -0.529 A  
HETATM   23  C   UNL     1     -12.388   9.899  71.631  1.00  0.00    -0.496 A  
ENDBRANCH  11  18
ENDBRANCH  10  11
ENDBRANCH   7  10
TORSDOF 4
ENDMDL
MODEL      121
REMARK 921   NORMALIZED FREE ENERGY PREDICTED BY IDOCK:   -4.34 KCAL/MOL
REMARK 922        TOTAL FREE ENERGY PREDICTED BY IDOCK:   -6.76 KCAL/MOL
REMARK 923 INTER-LIGAND FREE ENERGY PREDICTED BY IDOCK:   -5.20 KCAL/MOL
REMARK 924 INTRA-LIGAND FREE ENERGY PREDICTED BY IDOCK:   -1.56 KCAL/MOL
REMARK 927      BINDING AFFINITY PREDICTED BY RF-SCORE:    0.00 PKD
ROOT
HETATM    1  C   UNL     1      -8.064   5.724  67.322  1.00  0.00    -0.102 C  
HETATM    2  C   UNL     1      -8.038   7.176  66.837  1.00  0.00    -0.116 C  
HETATM    3  C   UNL     1      -9.463   7.443  66.351  1.00  0.00    -0.194 C  
HETATM    4  C   UNL     1     -10.200   6.122  66.594  1.00  0.00    -0.178 C  
HETATM    5  N   UNL     1      -9.106   5.160  66.460  1.00  0.00    -0.123 NA 
HETATM    6  C   UNL     1     -10.847   6.105  67.984  1.00  0.00    -0.398 C  
HETATM    7  C   UNL     1      -9.861   6.050  69.173  1.00  0.00    -0.148 C  
HETATM    8  C   UNL     1      -9.454   3.772  66.716  1.00  0.00    -0.194 C  
HETATM    9  C   UNL     1      -8.420   5.622  68.812  1.00  0.00    -0.102 C  
ENDROOT
BRANCH   7  10
HETATM   10  O   UNL     1      -9.767   7.285  69.901  1.00  0.00    -0.173 OA 
BRANCH  10  11
HETATM   11  C   UNL     1     -10.695   8.320  69.531  1.00  0.00    -0.174 C  
BRANCH  11  12
HETATM   12  C   UNL     1      -9.919   9.553  69.080  1.00  0.00    -0.185 A  
HETATM   13  C   UNL     1     -10.468  10.502  68.210  1.00  0.00    -0.211 A  
HETATM   14  C   UNL     1      -8.609   9.748  69.552  1.00  0.00    -0.186 A  
HETATM   15  C   UNL     1      -9.746  11.643  67.856  1.00  0.00    -0.181 A  
HETATM   16  C   UNL     1      -7.889  10.890  69.199  1.00  0.00    -0.119 A  
HETATM   17  C   UNL     1      -8.462  11.842  68.359  1.00  0.00    -0.155 A  
ENDBRANCH  11  12
BRANCH  11  18
HETATM   18  C   UNL     1     -11.738   8.647  70.589  1.00  0.00    -0.178 A  
HETATM   19  C   UNL     1     -13.004  10.236  71.923  1.00  0.00    -0.554 A  
HETATM   20  C   UNL     1     -11.983   9.962  71.009  1.00  0.00    -0.456 A  
HETATM   21  C   UNL     1     -13.535   7.887  72.054  1.00  0.00    -0.258 A  
HETATM   22  C   UNL     1     -13.784   9.201  72.438  1.00  0.00    -0.543 A  
HETATM   23  C   UNL     1     -12.518   7.611  71.138  1.00  0.00    -0.273 A  
ENDBRANCH  11  18
ENDBRANCH  10  11
ENDBRANCH   7  10
TORSDOF 4
ENDMDL
MODEL      122
REMARK 921   NORMALIZED FREE ENERGY PREDICTED BY IDOCK:   -4.33 KCAL/MOL
REMARK 922        TOTAL FREE ENERGY PREDICTED BY IDOCK:   -6.75 KCAL/MOL
REMARK 923 INTER-LIGAND FREE ENERGY PREDICTED BY IDOCK:   -5.46 KCAL/MOL
REMARK 924 INTRA-LIGAND FREE ENERGY PREDICTED BY IDOCK:   -1.29 KCAL/MOL
REMARK 927      BINDING AFFINITY PREDICTED BY RF-SCORE:    0.00 PKD
ROOT
HETATM    1  C   UNL     1      -9.296   8.558  67.343  1.00  0.00    -0.148 C  
HETATM    2  C   UNL     1     -10.661   8.628  68.033  1.00  0.00    -0.137 C  
HETATM    3  C   UNL     1     -10.339   8.968  69.488  1.00  0.00    -0.211 C  
HETATM    4  C   UNL     1      -8.810   9.066  69.525  1.00  0.00    -0.146 C  
HETATM    5  N   UNL     1      -8.442   8.135  68.456  1.00  0.00    -0.126 NA 
HETATM    6  C   UNL     1      -8.348  10.502  69.253  1.00  0.00    -0.144 C  
HETATM    7  C   UNL     1      -8.587  11.014  67.814  1.00  0.00    -0.130 C  
HETATM    8  C   UNL     1      -7.021   8.044  68.163  1.00  0.00    -0.077 C  
HETATM    9  C   UNL     1      -8.873   9.916  66.765  1.00  0.00    -0.147 C  
ENDROOT
BRANCH   7  10
HETATM   10  O   UNL     1      -9.643  11.983  67.715  1.00  0.00    -0.183 OA 
BRANCH  10  11
HETATM   11  C   UNL     1      -9.523  12.956  66.662  1.00  0.00    -0.255 C  
BRANCH  11  12
HETATM   12  C   UNL     1      -9.505  14.354  67.269  1.00  0.00    -0.215 A  
HETATM   13  C   UNL     1      -9.086  15.476  66.542  1.00  0.00    -0.336 A  
HETATM   14  C   UNL     1      -9.920  14.529  68.600  1.00  0.00    -0.237 A  
HETATM   15  C   UNL     1      -9.127  16.748  67.115  1.00  0.00    -0.224 A  
HETATM   16  C   UNL     1      -9.962  15.802  69.171  1.00  0.00    -0.241 A  
HETATM   17  C   UNL     1      -9.575  16.911  68.424  1.00  0.00    -0.255 A  
ENDBRANCH  11  12
BRANCH  11  18
HETATM   18  C   UNL     1     -10.556  12.820  65.551  1.00  0.00    -0.303 A  
HETATM   19  C   UNL     1     -11.154  12.558  63.211  1.00  0.00    -0.286 A  
HETATM   20  C   UNL     1     -10.189  12.764  64.199  1.00  0.00    -0.344 A  
HETATM   21  C   UNL     1     -12.882  12.498  64.892  1.00  0.00    -0.216 A  
HETATM   22  C   UNL     1     -12.497  12.416  63.557  1.00  0.00    -0.605 A  
HETATM   23  C   UNL     1     -11.920  12.701  65.883  1.00  0.00    -0.497 A  
ENDBRANCH  11  18
ENDBRANCH  10  11
ENDBRANCH   7  10
TORSDOF 4
ENDMDL
MODEL      123
REMARK 921   NORMALIZED FREE ENERGY PREDICTED BY IDOCK:   -4.32 KCAL/MOL
REMARK 922        TOTAL FREE ENERGY PREDICTED BY IDOCK:   -6.74 KCAL/MOL
REMARK 923 INTER-LIGAND FREE ENERGY PREDICTED BY IDOCK:   -5.12 KCAL/MOL
REMARK 924 INTRA-LIGAND FREE ENERGY PREDICTED BY IDOCK:   -1.63 KCAL/MOL
REMARK 927      BINDING AFFINITY PREDICTED BY RF-SCORE:    0.00 PKD
ROOT
HETATM    1  C   UNL     1     -10.390   8.962  71.093  1.00  0.00    -0.268 C  
HETATM    2  C   UNL     1      -9.796   8.235  72.303  1.00  0.00    -0.364 C  
HETATM    3  C   UNL     1     -11.011   7.745  73.091  1.00  0.00    -0.372 C  
HETATM    4  C   UNL     1     -12.213   8.228  72.273  1.00  0.00    -0.370 C  
HETATM    5  N   UNL     1     -11.663   9.431  71.646  1.00  0.00    -0.381 NA 
HETATM    6  C   UNL     1     -12.644   7.166  71.254  1.00  0.00    -0.421 C  
HETATM    7  C   UNL     1     -11.650   6.918  70.096  1.00  0.00    -0.289 C  
HETATM    8  C   UNL     1     -12.544  10.113  70.713  1.00  0.00    -0.317 C  
HETATM    9  C   UNL     1     -10.586   8.020  69.896  1.00  0.00    -0.242 C  
ENDROOT
BRANCH   7  10
HETATM   10  O   UNL     1     -10.953   5.666  70.193  1.00  0.00    -0.313 OA 
BRANCH  10  11
HETATM   11  C   UNL     1      -9.561   5.677  69.828  1.00  0.00    -0.159 C  
BRANCH  11  12
HETATM   12  C   UNL     1      -9.348   4.756  68.632  1.00  0.00    -0.187 A  
HETATM   13  C   UNL     1      -9.277   3.364  68.766  1.00  0.00    -0.229 A  
HETATM   14  C   UNL     1      -9.220   5.317  67.349  1.00  0.00    -0.116 A  
HETATM   15  C   UNL     1      -9.129   2.549  67.642  1.00  0.00    -0.222 A  
HETATM   16  C   UNL     1      -9.073   4.501  66.226  1.00  0.00    -0.123 A  
HETATM   17  C   UNL     1      -9.038   3.117  66.373  1.00  0.00    -0.164 A  
ENDBRANCH  11  12
BRANCH  11  18
HETATM   18  C   UNL     1      -8.602   5.374  70.970  1.00  0.00    -0.127 A  
HETATM   19  C   UNL     1      -6.420   5.537  72.028  1.00  0.00    -0.052 A  
HETATM   20  C   UNL     1      -7.254   5.759  70.930  1.00  0.00    -0.080 A  
HETATM   21  C   UNL     1      -8.245   4.504  73.221  1.00  0.00    -0.099 A  
HETATM   22  C   UNL     1      -6.917   4.919  73.176  1.00  0.00    -0.074 A  
HETATM   23  C   UNL     1      -9.081   4.727  72.126  1.00  0.00    -0.148 A  
ENDBRANCH  11  18
ENDBRANCH  10  11
ENDBRANCH   7  10
TORSDOF 4
ENDMDL
MODEL      124
REMARK 921   NORMALIZED FREE ENERGY PREDICTED BY IDOCK:   -4.31 KCAL/MOL
REMARK 922        TOTAL FREE ENERGY PREDICTED BY IDOCK:   -6.73 KCAL/MOL
REMARK 923 INTER-LIGAND FREE ENERGY PREDICTED BY IDOCK:   -6.12 KCAL/MOL
REMARK 924 INTRA-LIGAND FREE ENERGY PREDICTED BY IDOCK:   -0.60 KCAL/MOL
REMARK 927      BINDING AFFINITY PREDICTED BY RF-SCORE:    0.00 PKD
ROOT
HETATM    1  C   UNL     1      -8.095   9.401  69.327  1.00  0.00    -0.105 C  
HETATM    2  C   UNL     1      -7.790   8.713  67.993  1.00  0.00    -0.103 C  
HETATM    3  C   UNL     1      -9.164   8.396  67.402  1.00  0.00    -0.163 C  
HETATM    4  C   UNL     1     -10.156   8.925  68.444  1.00  0.00    -0.189 C  
HETATM    5  N   UNL     1      -9.376   8.781  69.674  1.00  0.00    -0.156 NA 
HETATM    6  C   UNL     1     -10.539  10.379  68.144  1.00  0.00    -0.246 C  
HETATM    7  C   UNL     1      -9.409  11.416  68.340  1.00  0.00    -0.194 C  
HETATM    8  C   UNL     1     -10.011   9.280  70.883  1.00  0.00    -0.297 C  
HETATM    9  C   UNL     1      -8.205  10.925  69.176  1.00  0.00    -0.090 C  
ENDROOT
BRANCH   7  10
HETATM   10  O   UNL     1      -8.887  11.939  67.109  1.00  0.00    -0.167 OA 
BRANCH  10  11
HETATM   11  C   UNL     1      -9.445  13.185  66.653  1.00  0.00    -0.260 C  
BRANCH  11  12
HETATM   12  C   UNL     1      -9.995  13.956  67.847  1.00  0.00    -0.242 A  
HETATM   13  C   UNL     1     -11.293  13.752  68.332  1.00  0.00    -0.326 A  
HETATM   14  C   UNL     1      -9.177  14.904  68.487  1.00  0.00    -0.192 A  
HETATM   15  C   UNL     1     -11.747  14.442  69.456  1.00  0.00    -0.362 A  
HETATM   16  C   UNL     1      -9.632  15.592  69.612  1.00  0.00    -0.264 A  
HETATM   17  C   UNL     1     -10.913  15.353  70.102  1.00  0.00    -0.327 A  
ENDBRANCH  11  12
BRANCH  11  18
HETATM   18  C   UNL     1     -10.463  13.051  65.530  1.00  0.00    -0.297 A  
HETATM   19  C   UNL     1     -12.129  13.994  64.033  1.00  0.00    -0.413 A  
HETATM   20  C   UNL     1     -11.262  14.128  65.120  1.00  0.00    -0.337 A  
HETATM   21  C   UNL     1     -11.454  11.695  63.761  1.00  0.00    -0.457 A  
HETATM   22  C   UNL     1     -12.218  12.782  63.349  1.00  0.00    -0.594 A  
HETATM   23  C   UNL     1     -10.585  11.826  64.845  1.00  0.00    -0.344 A  
ENDBRANCH  11  18
ENDBRANCH  10  11
ENDBRANCH   7  10
TORSDOF 4
ENDMDL
MODEL      125
REMARK 921   NORMALIZED FREE ENERGY PREDICTED BY IDOCK:   -4.30 KCAL/MOL
REMARK 922        TOTAL FREE ENERGY PREDICTED BY IDOCK:   -6.72 KCAL/MOL
REMARK 923 INTER-LIGAND FREE ENERGY PREDICTED BY IDOCK:   -5.19 KCAL/MOL
REMARK 924 INTRA-LIGAND FREE ENERGY PREDICTED BY IDOCK:   -1.53 KCAL/MOL
REMARK 927      BINDING AFFINITY PREDICTED BY RF-SCORE:    0.00 PKD
ROOT
HETATM    1  C   UNL     1      -8.357   8.411  66.421  1.00  0.00    -0.116 C  
HETATM    2  C   UNL     1      -7.800   7.384  67.412  1.00  0.00    -0.111 C  
HETATM    3  C   UNL     1      -6.513   8.019  67.939  1.00  0.00    -0.053 C  
HETATM    4  C   UNL     1      -6.427   9.363  67.209  1.00  0.00    -0.070 C  
HETATM    5  N   UNL     1      -7.122   9.051  65.960  1.00  0.00    -0.084 NA 
HETATM    6  C   UNL     1      -7.115  10.469  68.017  1.00  0.00    -0.086 C  
HETATM    7  C   UNL     1      -8.653  10.353  68.124  1.00  0.00    -0.125 C  
HETATM    8  C   UNL     1      -7.295  10.163  65.040  1.00  0.00    -0.139 C  
HETATM    9  C   UNL     1      -9.312   9.404  67.098  1.00  0.00    -0.172 C  
ENDROOT
BRANCH   7  10
HETATM   10  O   UNL     1      -9.112   9.956  69.426  1.00  0.00    -0.178 OA 
BRANCH  10  11
HETATM   11  C   UNL     1     -10.337   9.203  69.472  1.00  0.00    -0.215 C  
BRANCH  11  12
HETATM   12  C   UNL     1     -11.366   9.966  70.297  1.00  0.00    -0.357 A  
HETATM   13  C   UNL     1     -12.013   9.392  71.399  1.00  0.00    -0.446 A  
HETATM   14  C   UNL     1     -11.680  11.291  69.947  1.00  0.00    -0.430 A  
HETATM   15  C   UNL     1     -12.915  10.136  72.160  1.00  0.00    -0.436 A  
HETATM   16  C   UNL     1     -12.581  12.035  70.710  1.00  0.00    -0.312 A  
HETATM   17  C   UNL     1     -13.190  11.459  71.822  1.00  0.00    -0.472 A  
ENDBRANCH  11  12
BRANCH  11  18
HETATM   18  C   UNL     1     -10.178   7.761  69.934  1.00  0.00    -0.213 A  
HETATM   19  C   UNL     1     -10.670   5.389  69.739  1.00  0.00    -0.280 A  
HETATM   20  C   UNL     1     -10.898   6.710  69.347  1.00  0.00    -0.340 A  
HETATM   21  C   UNL     1      -9.027   6.134  71.341  1.00  0.00    -0.143 A  
HETATM   22  C   UNL     1      -9.729   5.101  70.727  1.00  0.00    -0.255 A  
HETATM   23  C   UNL     1      -9.251   7.455  70.949  1.00  0.00    -0.154 A  
ENDBRANCH  11  18
ENDBRANCH  10  11
ENDBRANCH   7  10
TORSDOF 4
ENDMDL
MODEL      126
REMARK 921   NORMALIZED FREE ENERGY PREDICTED BY IDOCK:   -4.23 KCAL/MOL
REMARK 922        TOTAL FREE ENERGY PREDICTED BY IDOCK:   -6.63 KCAL/MOL
REMARK 923 INTER-LIGAND FREE ENERGY PREDICTED BY IDOCK:   -5.06 KCAL/MOL
REMARK 924 INTRA-LIGAND FREE ENERGY PREDICTED BY IDOCK:   -1.58 KCAL/MOL
REMARK 927      BINDING AFFINITY PREDICTED BY RF-SCORE:    0.00 PKD
ROOT
HETATM    1  C   UNL     1      -6.988   6.037  69.771  1.00  0.00    -0.067 C  
HETATM    2  C   UNL     1      -7.435   6.177  68.312  1.00  0.00    -0.087 C  
HETATM    3  C   UNL     1      -8.016   4.808  67.957  1.00  0.00    -0.085 C  
HETATM    4  C   UNL     1      -7.859   3.985  69.239  1.00  0.00    -0.056 C  
HETATM    5  N   UNL     1      -6.674   4.608  69.831  1.00  0.00    -0.036 NA 
HETATM    6  C   UNL     1      -9.105   4.108  70.124  1.00  0.00    -0.181 C  
HETATM    7  C   UNL     1      -9.332   5.499  70.759  1.00  0.00    -0.163 C  
HETATM    8  C   UNL     1      -6.283   4.103  71.137  1.00  0.00    -0.015 C  
HETATM    9  C   UNL     1      -8.100   6.433  70.752  1.00  0.00    -0.120 C  
ENDROOT
BRANCH   7  10
HETATM   10  O   UNL     1     -10.422   6.229  70.173  1.00  0.00    -0.195 OA 
BRANCH  10  11
HETATM   11  C   UNL     1     -10.418   7.654  70.369  1.00  0.00    -0.220 C  
BRANCH  11  12
HETATM   12  C   UNL     1     -11.737   8.078  71.004  1.00  0.00    -0.295 A  
HETATM   13  C   UNL     1     -11.921   9.350  71.561  1.00  0.00    -0.456 A  
HETATM   14  C   UNL     1     -12.808   7.168  71.034  1.00  0.00    -0.268 A  
HETATM   15  C   UNL     1     -13.157   9.720  72.092  1.00  0.00    -0.513 A  
HETATM   16  C   UNL     1     -14.044   7.540  71.564  1.00  0.00    -0.550 A  
HETATM   17  C   UNL     1     -14.220   8.820  72.083  1.00  0.00    -0.504 A  
ENDBRANCH  11  12
BRANCH  11  18
HETATM   18  C   UNL     1     -10.087   8.465  69.124  1.00  0.00    -0.206 A  
HETATM   19  C   UNL     1      -8.892  10.254  67.995  1.00  0.00    -0.122 A  
HETATM   20  C   UNL     1      -9.240   9.581  69.168  1.00  0.00    -0.163 A  
HETATM   21  C   UNL     1     -10.261   8.743  66.706  1.00  0.00    -0.354 A  
HETATM   22  C   UNL     1      -9.395   9.830  66.765  1.00  0.00    -0.190 A  
HETATM   23  C   UNL     1     -10.607   8.066  67.877  1.00  0.00    -0.210 A  
ENDBRANCH  11  18
ENDBRANCH  10  11
ENDBRANCH   7  10
TORSDOF 4
ENDMDL
MODEL      127
REMARK 921   NORMALIZED FREE ENERGY PREDICTED BY IDOCK:   -4.20 KCAL/MOL
REMARK 922        TOTAL FREE ENERGY PREDICTED BY IDOCK:   -6.59 KCAL/MOL
REMARK 923 INTER-LIGAND FREE ENERGY PREDICTED BY IDOCK:   -5.52 KCAL/MOL
REMARK 924 INTRA-LIGAND FREE ENERGY PREDICTED BY IDOCK:   -1.07 KCAL/MOL
REMARK 927      BINDING AFFINITY PREDICTED BY RF-SCORE:    0.00 PKD
ROOT
HETATM    1  C   UNL     1      -7.622  12.325  68.424  1.00  0.00    -0.128 C  
HETATM    2  C   UNL     1      -8.937  13.027  68.073  1.00  0.00    -0.199 C  
HETATM    3  C   UNL     1      -9.316  12.467  66.702  1.00  0.00    -0.227 C  
HETATM    4  C   UNL     1      -8.188  11.486  66.368  1.00  0.00    -0.092 C  
HETATM    5  N   UNL     1      -7.066  12.089  67.089  1.00  0.00    -0.142 NA 
HETATM    6  C   UNL     1      -8.527  10.074  66.862  1.00  0.00    -0.125 C  
HETATM    7  C   UNL     1      -8.552   9.898  68.397  1.00  0.00    -0.116 C  
HETATM    8  C   UNL     1      -5.818  11.345  67.048  1.00  0.00    -0.108 C  
HETATM    9  C   UNL     1      -7.855  11.021  69.199  1.00  0.00    -0.092 C  
ENDROOT
BRANCH   7  10
HETATM   10  O   UNL     1      -9.874   9.746  68.939  1.00  0.00    -0.162 OA 
BRANCH  10  11
HETATM   11  C   UNL     1     -10.087   8.615  69.803  1.00  0.00    -0.199 C  
BRANCH  11  12
HETATM   12  C   UNL     1     -10.036   7.335  68.977  1.00  0.00    -0.186 A  
HETATM   13  C   UNL     1      -9.313   6.209  69.391  1.00  0.00    -0.147 A  
HETATM   14  C   UNL     1     -10.737   7.276  67.760  1.00  0.00    -0.267 A  
HETATM   15  C   UNL     1      -9.328   5.038  68.633  1.00  0.00    -0.173 A  
HETATM   16  C   UNL     1     -10.752   6.103  67.003  1.00  0.00    -0.423 A  
HETATM   17  C   UNL     1     -10.056   4.982  67.446  1.00  0.00    -0.213 A  
ENDBRANCH  11  12
BRANCH  11  18
HETATM   18  C   UNL     1     -11.340   8.701  70.664  1.00  0.00    -0.277 A  
HETATM   19  C   UNL     1     -13.039   9.976  71.842  1.00  0.00    -0.563 A  
HETATM   20  C   UNL     1     -11.843   9.926  71.122  1.00  0.00    -0.472 A  
HETATM   21  C   UNL     1     -13.240   7.577  71.700  1.00  0.00    -0.404 A  
HETATM   22  C   UNL     1     -13.741   8.805  72.123  1.00  0.00    -0.498 A  
HETATM   23  C   UNL     1     -12.047   7.524  70.978  1.00  0.00    -0.305 A  
ENDBRANCH  11  18
ENDBRANCH  10  11
ENDBRANCH   7  10
TORSDOF 4
ENDMDL
MODEL      128
REMARK 921   NORMALIZED FREE ENERGY PREDICTED BY IDOCK:   -4.19 KCAL/MOL
REMARK 922        TOTAL FREE ENERGY PREDICTED BY IDOCK:   -6.58 KCAL/MOL
REMARK 923 INTER-LIGAND FREE ENERGY PREDICTED BY IDOCK:   -5.39 KCAL/MOL
REMARK 924 INTRA-LIGAND FREE ENERGY PREDICTED BY IDOCK:   -1.19 KCAL/MOL
REMARK 927      BINDING AFFINITY PREDICTED BY RF-SCORE:    0.00 PKD
ROOT
HETATM    1  C   UNL     1      -7.707   6.019  69.652  1.00  0.00    -0.097 C  
HETATM    2  C   UNL     1      -8.054   5.967  68.161  1.00  0.00    -0.110 C  
HETATM    3  C   UNL     1      -9.142   4.899  68.057  1.00  0.00    -0.131 C  
HETATM    4  C   UNL     1      -9.339   4.417  69.498  1.00  0.00    -0.156 C  
HETATM    5  N   UNL     1      -8.004   4.642  70.056  1.00  0.00    -0.064 NA 
HETATM    6  C   UNL     1     -10.428   5.232  70.204  1.00  0.00    -0.338 C  
HETATM    7  C   UNL     1     -10.069   6.708  70.492  1.00  0.00    -0.187 C  
HETATM    8  C   UNL     1      -7.858   4.355  71.473  1.00  0.00    -0.082 C  
HETATM    9  C   UNL     1      -8.564   7.046  70.406  1.00  0.00    -0.142 C  
ENDROOT
BRANCH   7  10
HETATM   10  O   UNL     1     -10.764   7.645  69.654  1.00  0.00    -0.242 OA 
BRANCH  10  11
HETATM   11  C   UNL     1     -10.276   8.998  69.662  1.00  0.00    -0.206 C  
BRANCH  11  12
HETATM   12  C   UNL     1     -11.313   9.902  70.319  1.00  0.00    -0.357 A  
HETATM   13  C   UNL     1     -12.052   9.499  71.439  1.00  0.00    -0.459 A  
HETATM   14  C   UNL     1     -11.538  11.185  69.789  1.00  0.00    -0.409 A  
HETATM   15  C   UNL     1     -12.959  10.371  72.042  1.00  0.00    -0.499 A  
HETATM   16  C   UNL     1     -12.444  12.056  70.395  1.00  0.00    -0.235 A  
HETATM   17  C   UNL     1     -13.146  11.652  71.527  1.00  0.00    -0.405 A  
ENDBRANCH  11  12
BRANCH  11  18
HETATM   18  C   UNL     1      -9.828   9.521  68.305  1.00  0.00    -0.174 A  
HETATM   19  C   UNL     1     -10.071   9.684  65.892  1.00  0.00    -0.304 A  
HETATM   20  C   UNL     1     -10.453   9.125  67.114  1.00  0.00    -0.325 A  
HETATM   21  C   UNL     1      -8.403  11.019  67.012  1.00  0.00    -0.137 A  
HETATM   22  C   UNL     1      -9.054  10.637  65.842  1.00  0.00    -0.201 A  
HETATM   23  C   UNL     1      -8.785  10.464  68.234  1.00  0.00    -0.128 A  
ENDBRANCH  11  18
ENDBRANCH  10  11
ENDBRANCH   7  10
TORSDOF 4
ENDMDL
MODEL      129
REMARK 921   NORMALIZED FREE ENERGY PREDICTED BY IDOCK:   -4.15 KCAL/MOL
REMARK 922        TOTAL FREE ENERGY PREDICTED BY IDOCK:   -6.53 KCAL/MOL
REMARK 923 INTER-LIGAND FREE ENERGY PREDICTED BY IDOCK:   -5.44 KCAL/MOL
REMARK 924 INTRA-LIGAND FREE ENERGY PREDICTED BY IDOCK:   -1.10 KCAL/MOL
REMARK 927      BINDING AFFINITY PREDICTED BY RF-SCORE:    0.00 PKD
ROOT
HETATM    1  C   UNL     1      -8.043   8.368  64.011  1.00  0.00    -0.142 C  
HETATM    2  C   UNL     1      -7.907   7.344  65.142  1.00  0.00    -0.123 C  
HETATM    3  C   UNL     1      -6.771   7.883  66.012  1.00  0.00    -0.053 C  
HETATM    4  C   UNL     1      -6.340   9.177  65.313  1.00  0.00    -0.064 C  
HETATM    5  N   UNL     1      -6.670   8.869  63.921  1.00  0.00    -0.087 NA 
HETATM    6  C   UNL     1      -7.117  10.379  65.861  1.00  0.00    -0.135 C  
HETATM    7  C   UNL     1      -8.623  10.409  65.512  1.00  0.00    -0.169 C  
HETATM    8  C   UNL     1      -6.453   9.946  62.969  1.00  0.00    -0.123 C  
HETATM    9  C   UNL     1      -9.048   9.476  64.356  1.00  0.00    -0.234 C  
ENDROOT
BRANCH   7  10
HETATM   10  O   UNL     1      -9.479  10.121  66.629  1.00  0.00    -0.161 OA 
BRANCH  10  11
HETATM   11  C   UNL     1      -9.725  11.202  67.546  1.00  0.00    -0.176 C  
BRANCH  11  12
HETATM   12  C   UNL     1     -10.377  10.652  68.808  1.00  0.00    -0.210 A  
HETATM   13  C   UNL     1     -11.491  11.263  69.399  1.00  0.00    -0.370 A  
HETATM   14  C   UNL     1      -9.849   9.494  69.405  1.00  0.00    -0.194 A  
HETATM   15  C   UNL     1     -12.091  10.705  70.528  1.00  0.00    -0.448 A  
HETATM   16  C   UNL     1     -10.451   8.936  70.533  1.00  0.00    -0.257 A  
HETATM   17  C   UNL     1     -11.578   9.536  71.087  1.00  0.00    -0.439 A  
ENDBRANCH  11  12
BRANCH  11  18
HETATM   18  C   UNL     1     -10.499  12.372  66.956  1.00  0.00    -0.238 A  
HETATM   19  C   UNL     1     -12.355  13.277  65.674  1.00  0.00    -0.521 A  
HETATM   20  C   UNL     1     -11.619  12.182  66.133  1.00  0.00    -0.418 A  
HETATM   21  C   UNL     1     -10.851  14.782  66.811  1.00  0.00    -0.316 A  
HETATM   22  C   UNL     1     -11.977  14.574  66.020  1.00  0.00    -0.319 A  
HETATM   23  C   UNL     1     -10.115  13.689  67.274  1.00  0.00    -0.239 A  
ENDBRANCH  11  18
ENDBRANCH  10  11
ENDBRANCH   7  10
TORSDOF 4
ENDMDL
MODEL      130
REMARK 921   NORMALIZED FREE ENERGY PREDICTED BY IDOCK:   -4.07 KCAL/MOL
REMARK 922        TOTAL FREE ENERGY PREDICTED BY IDOCK:   -6.43 KCAL/MOL
REMARK 923 INTER-LIGAND FREE ENERGY PREDICTED BY IDOCK:   -5.05 KCAL/MOL
REMARK 924 INTRA-LIGAND FREE ENERGY PREDICTED BY IDOCK:   -1.38 KCAL/MOL
REMARK 927      BINDING AFFINITY PREDICTED BY RF-SCORE:    0.00 PKD
ROOT
HETATM    1  C   UNL     1      -8.761   4.129  68.751  1.00  0.00    -0.096 C  
HETATM    2  C   UNL     1      -7.515   4.543  69.541  1.00  0.00    -0.051 C  
HETATM    3  C   UNL     1      -7.137   5.910  68.970  1.00  0.00    -0.069 C  
HETATM    4  C   UNL     1      -8.194   6.178  67.894  1.00  0.00    -0.117 C  
HETATM    5  N   UNL     1      -8.525   4.814  67.478  1.00  0.00    -0.104 NA 
HETATM    6  C   UNL     1      -9.393   6.932  68.482  1.00  0.00    -0.134 C  
HETATM    7  C   UNL     1     -10.260   6.126  69.475  1.00  0.00    -0.198 C  
HETATM    8  C   UNL     1      -9.587   4.697  66.493  1.00  0.00    -0.182 C  
HETATM    9  C   UNL     1     -10.055   4.594  69.434  1.00  0.00    -0.194 C  
ENDROOT
BRANCH   7  10
HETATM   10  O   UNL     1     -10.106   6.539  70.842  1.00  0.00    -0.184 OA 
BRANCH  10  11
HETATM   11  C   UNL     1      -9.712   7.905  71.059  1.00  0.00    -0.159 C  
BRANCH  11  12
HETATM   12  C   UNL     1      -8.636   7.953  72.137  1.00  0.00    -0.185 A  
HETATM   13  C   UNL     1      -7.344   8.431  71.880  1.00  0.00    -0.118 A  
HETATM   14  C   UNL     1      -8.943   7.505  73.434  1.00  0.00    -0.252 A  
HETATM   15  C   UNL     1      -6.398   8.504  72.903  1.00  0.00    -0.094 A  
HETATM   16  C   UNL     1      -7.996   7.580  74.456  1.00  0.00    -0.223 A  
HETATM   17  C   UNL     1      -6.727   8.090  74.192  1.00  0.00    -0.140 A  
ENDBRANCH  11  12
BRANCH  11  18
HETATM   18  C   UNL     1     -10.862   8.860  71.346  1.00  0.00    -0.378 A  
HETATM   19  C   UNL     1     -12.080  10.923  70.935  1.00  0.00    -0.455 A  
HETATM   20  C   UNL     1     -10.970  10.105  70.710  1.00  0.00    -0.313 A  
HETATM   21  C   UNL     1     -12.984   9.295  72.468  1.00  0.00    -0.384 A  
HETATM   22  C   UNL     1     -13.090  10.514  71.805  1.00  0.00    -0.570 A  
HETATM   23  C   UNL     1     -11.878   8.474  72.242  1.00  0.00    -0.453 A  
ENDBRANCH  11  18
ENDBRANCH  10  11
ENDBRANCH   7  10
TORSDOF 4
ENDMDL
MODEL      131
REMARK 921   NORMALIZED FREE ENERGY PREDICTED BY IDOCK:   -4.07 KCAL/MOL
REMARK 922        TOTAL FREE ENERGY PREDICTED BY IDOCK:   -6.43 KCAL/MOL
REMARK 923 INTER-LIGAND FREE ENERGY PREDICTED BY IDOCK:   -6.01 KCAL/MOL
REMARK 924 INTRA-LIGAND FREE ENERGY PREDICTED BY IDOCK:   -0.42 KCAL/MOL
REMARK 927      BINDING AFFINITY PREDICTED BY RF-SCORE:    0.00 PKD
ROOT
HETATM    1  C   UNL     1     -12.375  14.095  66.304  1.00  0.00    -0.422 C  
HETATM    2  C   UNL     1     -12.840  13.345  65.052  1.00  0.00    -0.344 C  
HETATM    3  C   UNL     1     -11.577  13.196  64.204  1.00  0.00    -0.460 C  
HETATM    4  C   UNL     1     -10.481  13.872  65.034  1.00  0.00    -0.410 C  
HETATM    5  N   UNL     1     -11.258  14.874  65.765  1.00  0.00    -0.338 NA 
HETATM    6  C   UNL     1      -9.790  12.861  65.956  1.00  0.00    -0.256 C  
HETATM    7  C   UNL     1     -10.661  12.314  67.110  1.00  0.00    -0.225 C  
HETATM    8  C   UNL     1     -10.515  15.664  66.732  1.00  0.00    -0.297 C  
HETATM    9  C   UNL     1     -11.933  13.135  67.418  1.00  0.00    -0.379 C  
ENDROOT
BRANCH   7  10
HETATM   10  O   UNL     1     -11.069  10.949  66.927  1.00  0.00    -0.259 OA 
BRANCH  10  11
HETATM   11  C   UNL     1     -10.262   9.946  67.569  1.00  0.00    -0.216 C  
BRANCH  11  12
HETATM   12  C   UNL     1     -10.885   9.583  68.912  1.00  0.00    -0.177 A  
HETATM   13  C   UNL     1     -10.602   8.375  69.563  1.00  0.00    -0.217 A  
HETATM   14  C   UNL     1     -11.773  10.485  69.522  1.00  0.00    -0.313 A  
HETATM   15  C   UNL     1     -11.155   8.096  70.813  1.00  0.00    -0.275 A  
HETATM   16  C   UNL     1     -12.324  10.206  70.774  1.00  0.00    -0.422 A  
HETATM   17  C   UNL     1     -12.005   9.016  71.423  1.00  0.00    -0.400 A  
ENDBRANCH  11  12
BRANCH  11  18
HETATM   18  C   UNL     1      -8.787  10.301  67.692  1.00  0.00    -0.121 A  
HETATM   19  C   UNL     1      -6.522  10.356  66.813  1.00  0.00    -0.076 A  
HETATM   20  C   UNL     1      -7.854   9.945  66.708  1.00  0.00    -0.109 A  
HETATM   21  C   UNL     1      -7.011  11.453  68.904  1.00  0.00    -0.098 A  
HETATM   22  C   UNL     1      -6.104  11.117  67.904  1.00  0.00    -0.049 A  
HETATM   23  C   UNL     1      -8.343  11.047  68.801  1.00  0.00    -0.144 A  
ENDBRANCH  11  18
ENDBRANCH  10  11
ENDBRANCH   7  10
TORSDOF 4
ENDMDL
MODEL      132
REMARK 921   NORMALIZED FREE ENERGY PREDICTED BY IDOCK:   -4.06 KCAL/MOL
REMARK 922        TOTAL FREE ENERGY PREDICTED BY IDOCK:   -6.41 KCAL/MOL
REMARK 923 INTER-LIGAND FREE ENERGY PREDICTED BY IDOCK:   -4.57 KCAL/MOL
REMARK 924 INTRA-LIGAND FREE ENERGY PREDICTED BY IDOCK:   -1.84 KCAL/MOL
REMARK 927      BINDING AFFINITY PREDICTED BY RF-SCORE:    0.00 PKD
ROOT
HETATM    1  C   UNL     1      -6.758   7.974  67.417  1.00  0.00    -0.069 C  
HETATM    2  C   UNL     1      -6.187   7.468  68.745  1.00  0.00    -0.032 C  
HETATM    3  C   UNL     1      -6.214   8.688  69.664  1.00  0.00    -0.036 C  
HETATM    4  C   UNL     1      -6.798   9.806  68.794  1.00  0.00    -0.051 C  
HETATM    5  N   UNL     1      -6.361   9.384  67.462  1.00  0.00    -0.061 NA 
HETATM    6  C   UNL     1      -8.324   9.866  68.933  1.00  0.00    -0.124 C  
HETATM    7  C   UNL     1      -9.091   8.667  68.331  1.00  0.00    -0.138 C  
HETATM    8  C   UNL     1      -6.827  10.206  66.358  1.00  0.00    -0.100 C  
HETATM    9  C   UNL     1      -8.281   7.798  67.342  1.00  0.00    -0.123 C  
ENDROOT
BRANCH   7  10
HETATM   10  O   UNL     1      -9.646   7.782  69.317  1.00  0.00    -0.159 OA 
BRANCH  10  11
HETATM   11  C   UNL     1      -9.898   8.348  70.616  1.00  0.00    -0.181 C  
BRANCH  11  12
HETATM   12  C   UNL     1      -9.045   7.627  71.653  1.00  0.00    -0.157 A  
HETATM   13  C   UNL     1      -8.573   6.323  71.453  1.00  0.00    -0.131 A  
HETATM   14  C   UNL     1      -8.716   8.287  72.850  1.00  0.00    -0.291 A  
HETATM   15  C   UNL     1      -7.754   5.711  72.404  1.00  0.00    -0.102 A  
HETATM   16  C   UNL     1      -7.896   7.674  73.798  1.00  0.00    -0.183 A  
HETATM   17  C   UNL     1      -7.407   6.391  73.570  1.00  0.00    -0.086 A  
ENDBRANCH  11  12
BRANCH  11  18
HETATM   18  C   UNL     1     -11.367   8.402  71.011  1.00  0.00    -0.303 A  
HETATM   19  C   UNL     1     -13.448   7.323  71.651  1.00  0.00    -0.428 A  
HETATM   20  C   UNL     1     -12.125   7.240  71.211  1.00  0.00    -0.373 A  
HETATM   21  C   UNL     1     -13.305   9.731  71.665  1.00  0.00    -0.487 A  
HETATM   22  C   UNL     1     -14.034   8.567  71.887  1.00  0.00    -0.498 A  
HETATM   23  C   UNL     1     -11.982   9.650  71.228  1.00  0.00    -0.462 A  
ENDBRANCH  11  18
ENDBRANCH  10  11
ENDBRANCH   7  10
TORSDOF 4
ENDMDL
MODEL      133
REMARK 921   NORMALIZED FREE ENERGY PREDICTED BY IDOCK:   -4.05 KCAL/MOL
REMARK 922        TOTAL FREE ENERGY PREDICTED BY IDOCK:   -6.40 KCAL/MOL
REMARK 923 INTER-LIGAND FREE ENERGY PREDICTED BY IDOCK:   -6.12 KCAL/MOL
REMARK 924 INTRA-LIGAND FREE ENERGY PREDICTED BY IDOCK:   -0.28 KCAL/MOL
REMARK 927      BINDING AFFINITY PREDICTED BY RF-SCORE:    0.00 PKD
ROOT
HETATM    1  C   UNL     1      -9.165  15.809  69.237  1.00  0.00    -0.266 C  
HETATM    2  C   UNL     1     -10.378  16.704  68.968  1.00  0.00    -0.317 C  
HETATM    3  C   UNL     1     -10.148  17.247  67.557  1.00  0.00    -0.315 C  
HETATM    4  C   UNL     1      -8.819  16.622  67.123  1.00  0.00    -0.192 C  
HETATM    5  N   UNL     1      -8.146  16.464  68.413  1.00  0.00    -0.179 NA 
HETATM    6  C   UNL     1      -9.051  15.290  66.401  1.00  0.00    -0.347 C  
HETATM    7  C   UNL     1      -9.578  14.139  67.287  1.00  0.00    -0.234 C  
HETATM    8  C   UNL     1      -6.851  15.806  68.371  1.00  0.00    -0.116 C  
HETATM    9  C   UNL     1      -9.417  14.356  68.809  1.00  0.00    -0.161 C  
ENDROOT
BRANCH   7  10
HETATM   10  O   UNL     1     -10.956  13.811  67.048  1.00  0.00    -0.285 OA 
BRANCH  10  11
HETATM   11  C   UNL     1     -11.258  12.418  66.849  1.00  0.00    -0.305 C  
BRANCH  11  12
HETATM   12  C   UNL     1     -11.537  11.766  68.198  1.00  0.00    -0.391 A  
HETATM   13  C   UNL     1     -12.118  12.471  69.260  1.00  0.00    -0.214 A  
HETATM   14  C   UNL     1     -11.205  10.414  68.388  1.00  0.00    -0.318 A  
HETATM   15  C   UNL     1     -12.403  11.829  70.466  1.00  0.00    -0.387 A  
HETATM   16  C   UNL     1     -11.492   9.773  69.594  1.00  0.00    -0.103 A  
HETATM   17  C   UNL     1     -12.100  10.479  70.628  1.00  0.00    -0.452 A  
ENDBRANCH  11  12
BRANCH  11  18
HETATM   18  C   UNL     1     -10.222  11.652  66.038  1.00  0.00    -0.270 A  
HETATM   19  C   UNL     1      -8.099  10.486  65.842  1.00  0.00    -0.154 A  
HETATM   20  C   UNL     1      -8.994  11.258  66.587  1.00  0.00    -0.180 A  
HETATM   21  C   UNL     1      -9.615  10.517  63.966  1.00  0.00    -0.367 A  
HETATM   22  C   UNL     1      -8.413  10.109  64.536  1.00  0.00    -0.182 A  
HETATM   23  C   UNL     1     -10.513  11.286  64.710  1.00  0.00    -0.384 A  
ENDBRANCH  11  18
ENDBRANCH  10  11
ENDBRANCH   7  10
TORSDOF 4
ENDMDL
MODEL      134
REMARK 921   NORMALIZED FREE ENERGY PREDICTED BY IDOCK:   -4.04 KCAL/MOL
REMARK 922        TOTAL FREE ENERGY PREDICTED BY IDOCK:   -6.39 KCAL/MOL
REMARK 923 INTER-LIGAND FREE ENERGY PREDICTED BY IDOCK:   -4.99 KCAL/MOL
REMARK 924 INTRA-LIGAND FREE ENERGY PREDICTED BY IDOCK:   -1.41 KCAL/MOL
REMARK 927      BINDING AFFINITY PREDICTED BY RF-SCORE:    0.00 PKD
ROOT
HETATM    1  C   UNL     1      -7.339   2.534  71.903  1.00  0.00    -0.040 C  
HETATM    2  C   UNL     1      -7.961   2.100  70.573  1.00  0.00    -0.050 C  
HETATM    3  C   UNL     1      -9.446   1.917  70.886  1.00  0.00    -0.199 C  
HETATM    4  C   UNL     1      -9.565   2.259  72.374  1.00  0.00    -0.104 C  
HETATM    5  N   UNL     1      -8.237   1.880  72.858  1.00  0.00    -0.053 NA 
HETATM    6  C   UNL     1      -9.870   3.749  72.570  1.00  0.00    -0.215 C  
HETATM    7  C   UNL     1      -8.724   4.715  72.193  1.00  0.00    -0.119 C  
HETATM    8  C   UNL     1      -7.975   2.156  74.261  1.00  0.00    -0.053 C  
HETATM    9  C   UNL     1      -7.330   4.061  72.063  1.00  0.00    -0.060 C  
ENDROOT
BRANCH   7  10
HETATM   10  O   UNL     1      -8.964   5.450  70.982  1.00  0.00    -0.135 OA 
BRANCH  10  11
HETATM   11  C   UNL     1     -10.336   5.566  70.563  1.00  0.00    -0.272 C  
BRANCH  11  12
HETATM   12  C   UNL     1     -10.410   5.450  69.045  1.00  0.00    -0.282 A  
HETATM   13  C   UNL     1      -9.878   4.353  68.355  1.00  0.00    -0.132 A  
HETATM   14  C   UNL     1     -11.031   6.473  68.309  1.00  0.00    -0.362 A  
HETATM   15  C   UNL     1     -10.006   4.257  66.968  1.00  0.00    -0.166 A  
HETATM   16  C   UNL     1     -11.160   6.375  66.922  1.00  0.00    -0.346 A  
HETATM   17  C   UNL     1     -10.656   5.262  66.255  1.00  0.00    -0.308 A  
ENDBRANCH  11  12
BRANCH  11  18
HETATM   18  C   UNL     1     -11.057   6.800  71.086  1.00  0.00    -0.313 A  
HETATM   19  C   UNL     1     -13.019   7.898  72.008  1.00  0.00    -0.270 A  
HETATM   20  C   UNL     1     -12.409   6.769  71.456  1.00  0.00    -0.407 A  
HETATM   21  C   UNL     1     -10.957   9.132  71.797  1.00  0.00    -0.429 A  
HETATM   22  C   UNL     1     -12.292   9.075  72.187  1.00  0.00    -0.442 A  
HETATM   23  C   UNL     1     -10.343   8.004  71.249  1.00  0.00    -0.230 A  
ENDBRANCH  11  18
ENDBRANCH  10  11
ENDBRANCH   7  10
TORSDOF 4
ENDMDL
MODEL      135
REMARK 921   NORMALIZED FREE ENERGY PREDICTED BY IDOCK:   -4.04 KCAL/MOL
REMARK 922        TOTAL FREE ENERGY PREDICTED BY IDOCK:   -6.39 KCAL/MOL
REMARK 923 INTER-LIGAND FREE ENERGY PREDICTED BY IDOCK:   -4.55 KCAL/MOL
REMARK 924 INTRA-LIGAND FREE ENERGY PREDICTED BY IDOCK:   -1.84 KCAL/MOL
REMARK 927      BINDING AFFINITY PREDICTED BY RF-SCORE:    0.00 PKD
ROOT
HETATM    1  C   UNL     1     -10.082  11.014  65.915  1.00  0.00    -0.249 C  
HETATM    2  C   UNL     1      -9.452   9.736  65.354  1.00  0.00    -0.333 C  
HETATM    3  C   UNL     1      -8.153   9.571  66.143  1.00  0.00    -0.111 C  
HETATM    4  C   UNL     1      -8.134  10.769  67.097  1.00  0.00    -0.124 C  
HETATM    5  N   UNL     1      -8.888  11.758  66.325  1.00  0.00    -0.178 NA 
HETATM    6  C   UNL     1      -8.802  10.416  68.431  1.00  0.00    -0.136 C  
HETATM    7  C   UNL     1     -10.329  10.185  68.367  1.00  0.00    -0.183 C  
HETATM    8  C   UNL     1      -9.133  13.025  66.992  1.00  0.00    -0.230 C  
HETATM    9  C   UNL     1     -11.022  10.723  67.094  1.00  0.00    -0.324 C  
ENDROOT
BRANCH   7  10
HETATM   10  O   UNL     1     -10.710   8.807  68.508  1.00  0.00    -0.168 OA 
BRANCH  10  11
HETATM   11  C   UNL     1      -9.722   7.921  69.063  1.00  0.00    -0.162 C  
BRANCH  11  12
HETATM   12  C   UNL     1      -9.528   6.734  68.127  1.00  0.00    -0.120 A  
HETATM   13  C   UNL     1     -10.315   6.551  66.983  1.00  0.00    -0.319 A  
HETATM   14  C   UNL     1      -8.526   5.791  68.414  1.00  0.00    -0.110 A  
HETATM   15  C   UNL     1     -10.078   5.478  66.123  1.00  0.00    -0.135 A  
HETATM   16  C   UNL     1      -8.289   4.719  67.552  1.00  0.00    -0.104 A  
HETATM   17  C   UNL     1      -9.059   4.570  66.401  1.00  0.00    -0.122 A  
ENDBRANCH  11  12
BRANCH  11  18
HETATM   18  C   UNL     1      -9.989   7.490  70.498  1.00  0.00    -0.184 A  
HETATM   19  C   UNL     1     -11.340   6.360  72.173  1.00  0.00    -0.332 A  
HETATM   20  C   UNL     1     -11.161   6.813  70.863  1.00  0.00    -0.338 A  
HETATM   21  C   UNL     1      -9.199   7.281  72.796  1.00  0.00    -0.178 A  
HETATM   22  C   UNL     1     -10.356   6.585  73.136  1.00  0.00    -0.252 A  
HETATM   23  C   UNL     1      -9.017   7.733  71.488  1.00  0.00    -0.156 A  
ENDBRANCH  11  18
ENDBRANCH  10  11
ENDBRANCH   7  10
TORSDOF 4
ENDMDL
MODEL      136
REMARK 921   NORMALIZED FREE ENERGY PREDICTED BY IDOCK:   -3.99 KCAL/MOL
REMARK 922        TOTAL FREE ENERGY PREDICTED BY IDOCK:   -6.33 KCAL/MOL
REMARK 923 INTER-LIGAND FREE ENERGY PREDICTED BY IDOCK:   -5.23 KCAL/MOL
REMARK 924 INTRA-LIGAND FREE ENERGY PREDICTED BY IDOCK:   -1.10 KCAL/MOL
REMARK 927      BINDING AFFINITY PREDICTED BY RF-SCORE:    0.00 PKD
ROOT
HETATM    1  C   UNL     1     -10.510  13.344  68.273  1.00  0.00    -0.250 C  
HETATM    2  C   UNL     1     -12.000  13.303  67.923  1.00  0.00    -0.349 C  
HETATM    3  C   UNL     1     -12.034  13.013  66.423  1.00  0.00    -0.466 C  
HETATM    4  C   UNL     1     -10.558  12.909  66.024  1.00  0.00    -0.270 C  
HETATM    5  N   UNL     1      -9.937  13.800  67.005  1.00  0.00    -0.246 NA 
HETATM    6  C   UNL     1     -10.063  11.462  66.132  1.00  0.00    -0.271 C  
HETATM    7  C   UNL     1      -9.963  10.902  67.569  1.00  0.00    -0.174 C  
HETATM    8  C   UNL     1      -8.486  13.874  66.958  1.00  0.00    -0.134 C  
HETATM    9  C   UNL     1      -9.980  11.965  68.691  1.00  0.00    -0.163 C  
ENDROOT
BRANCH   7  10
HETATM   10  O   UNL     1     -10.978   9.935  67.883  1.00  0.00    -0.272 OA 
BRANCH  10  11
HETATM   11  C   UNL     1     -10.528   8.593  68.139  1.00  0.00    -0.187 C  
BRANCH  11  12
HETATM   12  C   UNL     1     -10.991   8.163  69.526  1.00  0.00    -0.056 A  
HETATM   13  C   UNL     1     -11.139   6.815  69.878  1.00  0.00    -0.374 A  
HETATM   14  C   UNL     1     -11.279   9.147  70.488  1.00  0.00    -0.309 A  
HETATM   15  C   UNL     1     -11.520   6.458  71.172  1.00  0.00    -0.381 A  
HETATM   16  C   UNL     1     -11.658   8.788  71.782  1.00  0.00    -0.416 A  
HETATM   17  C   UNL     1     -11.768   7.443  72.126  1.00  0.00    -0.328 A  
ENDBRANCH  11  12
BRANCH  11  18
HETATM   18  C   UNL     1      -9.037   8.372  67.931  1.00  0.00    -0.137 A  
HETATM   19  C   UNL     1      -6.753   8.294  68.758  1.00  0.00    -0.058 A  
HETATM   20  C   UNL     1      -8.105   8.583  68.957  1.00  0.00    -0.115 A  
HETATM   21  C   UNL     1      -7.220   7.613  66.491  1.00  0.00    -0.082 A  
HETATM   22  C   UNL     1      -6.312   7.801  67.530  1.00  0.00    -0.055 A  
HETATM   23  C   UNL     1      -8.572   7.898  66.689  1.00  0.00    -0.138 A  
ENDBRANCH  11  18
ENDBRANCH  10  11
ENDBRANCH   7  10
TORSDOF 4
ENDMDL
MODEL      137
REMARK 921   NORMALIZED FREE ENERGY PREDICTED BY IDOCK:   -3.93 KCAL/MOL
REMARK 922        TOTAL FREE ENERGY PREDICTED BY IDOCK:   -6.25 KCAL/MOL
REMARK 923 INTER-LIGAND FREE ENERGY PREDICTED BY IDOCK:   -5.29 KCAL/MOL
REMARK 924 INTRA-LIGAND FREE ENERGY PREDICTED BY IDOCK:   -0.97 KCAL/MOL
REMARK 927      BINDING AFFINITY PREDICTED BY RF-SCORE:    0.00 PKD
ROOT
HETATM    1  C   UNL     1      -6.188  17.598  66.901  1.00  0.00    -0.164 C  
HETATM    2  C   UNL     1      -5.538  17.062  68.179  1.00  0.00    -0.120 C  
HETATM    3  C   UNL     1      -6.187  17.866  69.306  1.00  0.00    -0.242 C  
HETATM    4  C   UNL     1      -7.161  18.805  68.588  1.00  0.00    -0.303 C  
HETATM    5  N   UNL     1      -6.491  18.976  67.298  1.00  0.00    -0.189 NA 
HETATM    6  C   UNL     1      -8.548  18.163  68.463  1.00  0.00    -0.307 C  
HETATM    7  C   UNL     1      -8.633  16.953  67.505  1.00  0.00    -0.203 C  
HETATM    8  C   UNL     1      -7.208  19.772  66.317  1.00  0.00    -0.265 C  
HETATM    9  C   UNL     1      -7.449  16.809  66.522  1.00  0.00    -0.322 C  
ENDROOT
BRANCH   7  10
HETATM   10  O   UNL     1      -8.781  15.693  68.180  1.00  0.00    -0.165 OA 
BRANCH  10  11
HETATM   11  C   UNL     1     -10.032  15.007  67.990  1.00  0.00    -0.219 C  
BRANCH  11  12
HETATM   12  C   UNL     1     -10.896  15.186  69.233  1.00  0.00    -0.255 A  
HETATM   13  C   UNL     1     -10.342  15.355  70.508  1.00  0.00    -0.040 A  
HETATM   14  C   UNL     1     -12.296  15.182  69.100  1.00  0.00    -0.087 A  
HETATM   15  C   UNL     1     -11.164  15.563  71.617  1.00  0.00    -0.388 A  
HETATM   16  C   UNL     1     -13.116  15.392  70.210  1.00  0.00    -0.111 A  
HETATM   17  C   UNL     1     -12.549  15.593  71.465  1.00  0.00    -0.511 A  
ENDBRANCH  11  12
BRANCH  11  18
HETATM   18  C   UNL     1      -9.900  13.547  67.581  1.00  0.00    -0.228 A  
HETATM   19  C   UNL     1      -8.577  11.645  66.846  1.00  0.00    -0.174 A  
HETATM   20  C   UNL     1      -8.684  13.007  67.138  1.00  0.00    -0.204 A  
HETATM   21  C   UNL     1     -10.906  11.333  67.393  1.00  0.00    -0.311 A  
HETATM   22  C   UNL     1      -9.684  10.808  66.983  1.00  0.00    -0.205 A  
HETATM   23  C   UNL     1     -11.015  12.693  67.688  1.00  0.00    -0.275 A  
ENDBRANCH  11  18
ENDBRANCH  10  11
ENDBRANCH   7  10
TORSDOF 4
ENDMDL
MODEL      138
REMARK 921   NORMALIZED FREE ENERGY PREDICTED BY IDOCK:   -3.91 KCAL/MOL
REMARK 922        TOTAL FREE ENERGY PREDICTED BY IDOCK:   -6.23 KCAL/MOL
REMARK 923 INTER-LIGAND FREE ENERGY PREDICTED BY IDOCK:   -4.62 KCAL/MOL
REMARK 924 INTRA-LIGAND FREE ENERGY PREDICTED BY IDOCK:   -1.62 KCAL/MOL
REMARK 927      BINDING AFFINITY PREDICTED BY RF-SCORE:    0.00 PKD
ROOT
HETATM    1  C   UNL     1      -8.788   7.474  71.551  1.00  0.00    -0.124 C  
HETATM    2  C   UNL     1      -8.324   6.458  70.504  1.00  0.00    -0.129 C  
HETATM    3  C   UNL     1      -9.544   5.569  70.265  1.00  0.00    -0.227 C  
HETATM    4  C   UNL     1     -10.618   6.141  71.195  1.00  0.00    -0.246 C  
HETATM    5  N   UNL     1      -9.795   6.691  72.273  1.00  0.00    -0.154 NA 
HETATM    6  C   UNL     1     -11.453   7.208  70.475  1.00  0.00    -0.334 C  
HETATM    7  C   UNL     1     -10.705   8.518  70.138  1.00  0.00    -0.235 C  
HETATM    8  C   UNL     1     -10.516   7.400  73.317  1.00  0.00    -0.374 C  
HETATM    9  C   UNL     1      -9.381   8.735  70.906  1.00  0.00    -0.266 C  
ENDROOT
BRANCH   7  10
HETATM   10  O   UNL     1     -10.415   8.673  68.740  1.00  0.00    -0.214 OA 
BRANCH  10  11
HETATM   11  C   UNL     1      -9.273   9.482  68.407  1.00  0.00    -0.130 C  
BRANCH  11  12
HETATM   12  C   UNL     1      -9.748  10.830  67.877  1.00  0.00    -0.181 A  
HETATM   13  C   UNL     1      -8.931  11.968  67.894  1.00  0.00    -0.182 A  
HETATM   14  C   UNL     1     -11.047  10.941  67.352  1.00  0.00    -0.373 A  
HETATM   15  C   UNL     1      -9.383  13.174  67.358  1.00  0.00    -0.213 A  
HETATM   16  C   UNL     1     -11.497  12.147  66.814  1.00  0.00    -0.418 A  
HETATM   17  C   UNL     1     -10.661  13.260  66.808  1.00  0.00    -0.276 A  
ENDBRANCH  11  12
BRANCH  11  18
HETATM   18  C   UNL     1      -8.271   8.814  67.476  1.00  0.00    -0.110 A  
HETATM   19  C   UNL     1      -7.684   7.780  65.357  1.00  0.00    -0.106 A  
HETATM   20  C   UNL     1      -8.643   8.314  66.220  1.00  0.00    -0.152 A  
HETATM   21  C   UNL     1      -5.962   8.192  66.995  1.00  0.00    -0.053 A  
HETATM   22  C   UNL     1      -6.344   7.727  65.740  1.00  0.00    -0.042 A  
HETATM   23  C   UNL     1      -6.918   8.730  67.858  1.00  0.00    -0.078 A  
ENDBRANCH  11  18
ENDBRANCH  10  11
ENDBRANCH   7  10
TORSDOF 4
ENDMDL
MODEL      139
REMARK 921   NORMALIZED FREE ENERGY PREDICTED BY IDOCK:   -3.89 KCAL/MOL
REMARK 922        TOTAL FREE ENERGY PREDICTED BY IDOCK:   -6.21 KCAL/MOL
REMARK 923 INTER-LIGAND FREE ENERGY PREDICTED BY IDOCK:   -4.79 KCAL/MOL
REMARK 924 INTRA-LIGAND FREE ENERGY PREDICTED BY IDOCK:   -1.42 KCAL/MOL
REMARK 927      BINDING AFFINITY PREDICTED BY RF-SCORE:    0.00 PKD
ROOT
HETATM    1  C   UNL     1      -8.071   5.547  69.695  1.00  0.00    -0.101 C  
HETATM    2  C   UNL     1      -7.727   5.835  68.230  1.00  0.00    -0.093 C  
HETATM    3  C   UNL     1      -9.069   5.769  67.501  1.00  0.00    -0.106 C  
HETATM    4  C   UNL     1     -10.083   5.445  68.603  1.00  0.00    -0.179 C  
HETATM    5  N   UNL     1      -9.251   4.692  69.541  1.00  0.00    -0.110 NA 
HETATM    6  C   UNL     1     -10.658   6.730  69.212  1.00  0.00    -0.262 C  
HETATM    7  C   UNL     1      -9.663   7.573  70.042  1.00  0.00    -0.172 C  
HETATM    8  C   UNL     1      -9.901   4.287  70.777  1.00  0.00    -0.195 C  
HETATM    9  C   UNL     1      -8.378   6.831  70.477  1.00  0.00    -0.129 C  
ENDROOT
BRANCH   7  10
HETATM   10  O   UNL     1      -9.253   8.787  69.393  1.00  0.00    -0.144 OA 
BRANCH  10  11
HETATM   11  C   UNL     1     -10.160   9.330  68.417  1.00  0.00    -0.191 C  
BRANCH  11  12
HETATM   12  C   UNL     1      -9.403   9.599  67.122  1.00  0.00    -0.168 A  
HETATM   13  C   UNL     1      -8.092  10.093  67.114  1.00  0.00    -0.120 A  
HETATM   14  C   UNL     1     -10.035   9.345  65.892  1.00  0.00    -0.327 A  
HETATM   15  C   UNL     1      -7.412  10.284  65.910  1.00  0.00    -0.135 A  
HETATM   16  C   UNL     1      -9.353   9.534  64.689  1.00  0.00    -0.201 A  
HETATM   17  C   UNL     1      -8.039   9.993  64.700  1.00  0.00    -0.155 A  
ENDBRANCH  11  12
BRANCH  11  18
HETATM   18  C   UNL     1     -10.951  10.542  68.889  1.00  0.00    -0.291 A  
HETATM   19  C   UNL     1     -12.142  11.778  70.609  1.00  0.00    -0.407 A  
HETATM   20  C   UNL     1     -11.492  10.618  70.180  1.00  0.00    -0.411 A  
HETATM   21  C   UNL     1     -11.766  12.800  68.456  1.00  0.00    -0.371 A  
HETATM   22  C   UNL     1     -12.271  12.870  69.751  1.00  0.00    -0.227 A  
HETATM   23  C   UNL     1     -11.112  11.644  68.026  1.00  0.00    -0.299 A  
ENDBRANCH  11  18
ENDBRANCH  10  11
ENDBRANCH   7  10
TORSDOF 4
ENDMDL
MODEL      140
REMARK 921   NORMALIZED FREE ENERGY PREDICTED BY IDOCK:   -3.85 KCAL/MOL
REMARK 922        TOTAL FREE ENERGY PREDICTED BY IDOCK:   -6.16 KCAL/MOL
REMARK 923 INTER-LIGAND FREE ENERGY PREDICTED BY IDOCK:   -4.66 KCAL/MOL
REMARK 924 INTRA-LIGAND FREE ENERGY PREDICTED BY IDOCK:   -1.49 KCAL/MOL
REMARK 927      BINDING AFFINITY PREDICTED BY RF-SCORE:    0.00 PKD
ROOT
HETATM    1  C   UNL     1     -10.504  13.933  67.053  1.00  0.00    -0.278 C  
HETATM    2  C   UNL     1     -10.867  12.942  68.163  1.00  0.00    -0.257 C  
HETATM    3  C   UNL     1     -11.888  12.004  67.521  1.00  0.00    -0.275 C  
HETATM    4  C   UNL     1     -12.036  12.527  66.089  1.00  0.00    -0.366 C  
HETATM    5  N   UNL     1     -11.746  13.950  66.277  1.00  0.00    -0.365 NA 
HETATM    6  C   UNL     1     -11.044  11.834  65.148  1.00  0.00    -0.341 C  
HETATM    7  C   UNL     1      -9.556  12.184  65.379  1.00  0.00    -0.096 C  
HETATM    8  C   UNL     1     -11.722  14.753  65.066  1.00  0.00    -0.364 C  
HETATM    9  C   UNL     1      -9.304  13.453  66.224  1.00  0.00    -0.137 C  
ENDROOT
BRANCH   7  10
HETATM   10  O   UNL     1      -8.799  11.119  65.974  1.00  0.00    -0.184 OA 
BRANCH  10  11
HETATM   11  C   UNL     1      -9.096   9.787  65.518  1.00  0.00    -0.196 C  
BRANCH  11  12
HETATM   12  C   UNL     1      -9.343   8.886  66.723  1.00  0.00    -0.224 A  
HETATM   13  C   UNL     1     -10.490   8.090  66.836  1.00  0.00    -0.387 A  
HETATM   14  C   UNL     1      -8.392   8.849  67.758  1.00  0.00    -0.110 A  
HETATM   15  C   UNL     1     -10.660   7.242  67.931  1.00  0.00    -0.266 A  
HETATM   16  C   UNL     1      -8.563   7.999  68.851  1.00  0.00    -0.131 A  
HETATM   17  C   UNL     1      -9.692   7.189  68.932  1.00  0.00    -0.146 A  
ENDBRANCH  11  12
BRANCH  11  18
HETATM   18  C   UNL     1      -8.072   9.201  64.557  1.00  0.00    -0.139 A  
HETATM   19  C   UNL     1      -6.006   9.347  63.286  1.00  0.00    -0.090 A  
HETATM   20  C   UNL     1      -6.971   9.941  64.104  1.00  0.00    -0.128 A  
HETATM   21  C   UNL     1      -7.236   7.273  63.318  1.00  0.00    -0.075 A  
HETATM   22  C   UNL     1      -6.134   8.013  62.901  1.00  0.00    -0.077 A  
HETATM   23  C   UNL     1      -8.200   7.862  64.138  1.00  0.00    -0.031 A  
ENDBRANCH  11  18
ENDBRANCH  10  11
ENDBRANCH   7  10
TORSDOF 4
ENDMDL
MODEL      141
REMARK 921   NORMALIZED FREE ENERGY PREDICTED BY IDOCK:   -3.84 KCAL/MOL
REMARK 922        TOTAL FREE ENERGY PREDICTED BY IDOCK:   -6.15 KCAL/MOL
REMARK 923 INTER-LIGAND FREE ENERGY PREDICTED BY IDOCK:   -5.85 KCAL/MOL
REMARK 924 INTRA-LIGAND FREE ENERGY PREDICTED BY IDOCK:   -0.30 KCAL/MOL
REMARK 927      BINDING AFFINITY PREDICTED BY RF-SCORE:    0.00 PKD
ROOT
HETATM    1  C   UNL     1     -10.692  13.236  64.104  1.00  0.00    -0.326 C  
HETATM    2  C   UNL     1     -10.496  14.695  64.524  1.00  0.00    -0.010 C  
HETATM    3  C   UNL     1     -11.788  15.060  65.256  1.00  0.00    -0.148 C  
HETATM    4  C   UNL     1     -12.629  13.781  65.200  1.00  0.00    -0.433 C  
HETATM    5  N   UNL     1     -12.149  13.181  63.955  1.00  0.00    -0.511 NA 
HETATM    6  C   UNL     1     -12.369  12.901  66.428  1.00  0.00    -0.145 C  
HETATM    7  C   UNL     1     -10.964  12.261  66.498  1.00  0.00    -0.279 C  
HETATM    8  C   UNL     1     -12.701  11.876  63.631  1.00  0.00    -0.390 C  
HETATM    9  C   UNL     1     -10.177  12.257  65.168  1.00  0.00    -0.305 C  
ENDROOT
BRANCH   7  10
HETATM   10  O   UNL     1     -10.112  12.847  67.495  1.00  0.00    -0.210 OA 
BRANCH  10  11
HETATM   11  C   UNL     1     -10.068  12.185  68.772  1.00  0.00    -0.084 C  
BRANCH  11  12
HETATM   12  C   UNL     1      -9.926  10.683  68.555  1.00  0.00    -0.176 A  
HETATM   13  C   UNL     1     -10.947   9.913  67.982  1.00  0.00    -0.269 A  
HETATM   14  C   UNL     1      -8.735  10.044  68.940  1.00  0.00    -0.146 A  
HETATM   15  C   UNL     1     -10.764   8.549  67.755  1.00  0.00    -0.170 A  
HETATM   16  C   UNL     1      -8.553   8.680  68.711  1.00  0.00    -0.130 A  
HETATM   17  C   UNL     1      -9.564   7.935  68.109  1.00  0.00    -0.163 A  
ENDBRANCH  11  12
BRANCH  11  18
HETATM   18  C   UNL     1     -11.219  12.530  69.706  1.00  0.00    -0.011 A  
HETATM   19  C   UNL     1     -12.812  11.937  71.443  1.00  0.00    -0.411 A  
HETATM   20  C   UNL     1     -11.812  11.571  70.539  1.00  0.00    -0.363 A  
HETATM   21  C   UNL     1     -12.683  14.222  70.679  1.00  0.00    -0.409 A  
HETATM   22  C   UNL     1     -13.240  13.262  71.519  1.00  0.00    -0.383 A  
HETATM   23  C   UNL     1     -11.681  13.859  69.777  1.00  0.00    -0.372 A  
ENDBRANCH  11  18
ENDBRANCH  10  11
ENDBRANCH   7  10
TORSDOF 4
ENDMDL
MODEL      142
REMARK 921   NORMALIZED FREE ENERGY PREDICTED BY IDOCK:   -3.83 KCAL/MOL
REMARK 922        TOTAL FREE ENERGY PREDICTED BY IDOCK:   -6.13 KCAL/MOL
REMARK 923 INTER-LIGAND FREE ENERGY PREDICTED BY IDOCK:   -4.56 KCAL/MOL
REMARK 924 INTRA-LIGAND FREE ENERGY PREDICTED BY IDOCK:   -1.57 KCAL/MOL
REMARK 927      BINDING AFFINITY PREDICTED BY RF-SCORE:    0.00 PKD
ROOT
HETATM    1  C   UNL     1      -9.148  11.465  68.309  1.00  0.00    -0.179 C  
HETATM    2  C   UNL     1      -9.934  10.879  69.485  1.00  0.00    -0.010 C  
HETATM    3  C   UNL     1     -11.243  10.390  68.865  1.00  0.00    -0.290 C  
HETATM    4  C   UNL     1     -11.110  10.733  67.378  1.00  0.00    -0.296 C  
HETATM    5  N   UNL     1     -10.238  11.908  67.436  1.00  0.00    -0.195 NA 
HETATM    6  C   UNL     1     -10.491   9.566  66.601  1.00  0.00    -0.241 C  
HETATM    7  C   UNL     1      -9.005   9.276  66.914  1.00  0.00    -0.130 C  
HETATM    8  C   UNL     1      -9.836  12.457  66.152  1.00  0.00    -0.252 C  
HETATM    9  C   UNL     1      -8.251  10.415  67.637  1.00  0.00    -0.110 C  
ENDROOT
BRANCH   7  10
HETATM   10  O   UNL     1      -8.800   8.078  67.680  1.00  0.00    -0.125 OA 
BRANCH  10  11
HETATM   11  C   UNL     1      -9.808   7.058  67.558  1.00  0.00    -0.148 C  
BRANCH  11  12
HETATM   12  C   UNL     1     -10.054   6.429  68.925  1.00  0.00    -0.187 A  
HETATM   13  C   UNL     1      -9.122   5.577  69.532  1.00  0.00    -0.143 A  
HETATM   14  C   UNL     1     -11.253   6.709  69.603  1.00  0.00    -0.397 A  
HETATM   15  C   UNL     1      -9.359   5.057  70.804  1.00  0.00    -0.209 A  
HETATM   16  C   UNL     1     -11.488   6.189  70.876  1.00  0.00    -0.317 A  
HETATM   17  C   UNL     1     -10.536   5.371  71.480  1.00  0.00    -0.285 A  
ENDBRANCH  11  12
BRANCH  11  18
HETATM   18  C   UNL     1      -9.532   6.018  66.482  1.00  0.00    -0.177 A  
HETATM   19  C   UNL     1      -8.046   4.913  64.909  1.00  0.00    -0.112 A  
HETATM   20  C   UNL     1      -8.292   5.930  65.835  1.00  0.00    -0.136 A  
HETATM   21  C   UNL     1     -10.284   4.069  65.222  1.00  0.00    -0.149 A  
HETATM   22  C   UNL     1      -9.037   3.978  64.610  1.00  0.00    -0.141 A  
HETATM   23  C   UNL     1     -10.532   5.082  66.150  1.00  0.00    -0.334 A  
ENDBRANCH  11  18
ENDBRANCH  10  11
ENDBRANCH   7  10
TORSDOF 4
ENDMDL
MODEL      143
REMARK 921   NORMALIZED FREE ENERGY PREDICTED BY IDOCK:   -3.69 KCAL/MOL
REMARK 922        TOTAL FREE ENERGY PREDICTED BY IDOCK:   -5.96 KCAL/MOL
REMARK 923 INTER-LIGAND FREE ENERGY PREDICTED BY IDOCK:   -4.93 KCAL/MOL
REMARK 924 INTRA-LIGAND FREE ENERGY PREDICTED BY IDOCK:   -1.04 KCAL/MOL
REMARK 927      BINDING AFFINITY PREDICTED BY RF-SCORE:    0.00 PKD
ROOT
HETATM    1  C   UNL     1      -6.837  10.569  67.671  1.00  0.00    -0.074 C  
HETATM    2  C   UNL     1      -7.403  11.687  68.551  1.00  0.00    -0.102 C  
HETATM    3  C   UNL     1      -8.576  12.250  67.749  1.00  0.00    -0.170 C  
HETATM    4  C   UNL     1      -8.594  11.413  66.466  1.00  0.00    -0.175 C  
HETATM    5  N   UNL     1      -7.179  11.065  66.335  1.00  0.00    -0.143 NA 
HETATM    6  C   UNL     1      -9.500  10.186  66.627  1.00  0.00    -0.211 C  
HETATM    7  C   UNL     1      -8.987   9.109  67.610  1.00  0.00    -0.123 C  
HETATM    8  C   UNL     1      -6.847  10.181  65.230  1.00  0.00    -0.137 C  
HETATM    9  C   UNL     1      -7.489   9.212  67.974  1.00  0.00    -0.084 C  
ENDROOT
BRANCH   7  10
HETATM   10  O   UNL     1      -9.722   9.055  68.842  1.00  0.00    -0.158 OA 
BRANCH  10  11
HETATM   11  C   UNL     1     -10.512   7.873  69.068  1.00  0.00    -0.198 C  
BRANCH  11  12
HETATM   12  C   UNL     1     -10.549   7.571  70.561  1.00  0.00    -0.232 A  
HETATM   13  C   UNL     1      -9.874   8.363  71.499  1.00  0.00    -0.274 A  
HETATM   14  C   UNL     1     -11.285   6.465  71.019  1.00  0.00    -0.370 A  
HETATM   15  C   UNL     1      -9.969   8.084  72.863  1.00  0.00    -0.360 A  
HETATM   16  C   UNL     1     -11.381   6.188  72.384  1.00  0.00    -0.340 A  
HETATM   17  C   UNL     1     -10.731   7.005  73.305  1.00  0.00    -0.373 A  
ENDBRANCH  11  12
BRANCH  11  18
HETATM   18  C   UNL     1     -10.095   6.664  68.242  1.00  0.00    -0.170 A  
HETATM   19  C   UNL     1      -8.721   4.693  67.884  1.00  0.00    -0.111 A  
HETATM   20  C   UNL     1      -9.026   5.840  68.620  1.00  0.00    -0.112 A  
HETATM   21  C   UNL     1     -10.519   5.182  66.352  1.00  0.00    -0.356 A  
HETATM   22  C   UNL     1      -9.472   4.359  66.757  1.00  0.00    -0.194 A  
HETATM   23  C   UNL     1     -10.827   6.328  67.087  1.00  0.00    -0.460 A  
ENDBRANCH  11  18
ENDBRANCH  10  11
ENDBRANCH   7  10
TORSDOF 4
ENDMDL
MODEL      144
REMARK 921   NORMALIZED FREE ENERGY PREDICTED BY IDOCK:   -3.66 KCAL/MOL
REMARK 922        TOTAL FREE ENERGY PREDICTED BY IDOCK:   -5.93 KCAL/MOL
REMARK 923 INTER-LIGAND FREE ENERGY PREDICTED BY IDOCK:   -4.04 KCAL/MOL
REMARK 924 INTRA-LIGAND FREE ENERGY PREDICTED BY IDOCK:   -1.89 KCAL/MOL
REMARK 927      BINDING AFFINITY PREDICTED BY RF-SCORE:    0.00 PKD
ROOT
HETATM    1  C   UNL     1     -11.688   8.340  72.322  1.00  0.00    -0.388 C  
HETATM    2  C   UNL     1     -10.416   7.706  72.892  1.00  0.00    -0.394 C  
HETATM    3  C   UNL     1     -10.375   6.308  72.275  1.00  0.00    -0.216 C  
HETATM    4  C   UNL     1     -11.628   6.244  71.396  1.00  0.00    -0.278 C  
HETATM    5  N   UNL     1     -12.523   7.153  72.114  1.00  0.00    -0.213 NA 
HETATM    6  C   UNL     1     -11.319   6.710  69.969  1.00  0.00    -0.440 C  
HETATM    7  C   UNL     1     -10.998   8.215  69.818  1.00  0.00    -0.132 C  
HETATM    8  C   UNL     1     -13.813   7.391  71.488  1.00  0.00    -0.374 C  
HETATM    9  C   UNL     1     -11.416   9.099  71.015  1.00  0.00    -0.372 C  
ENDROOT
BRANCH   7  10
HETATM   10  O   UNL     1      -9.612   8.484  69.555  1.00  0.00    -0.167 OA 
BRANCH  10  11
HETATM   11  C   UNL     1      -8.809   7.367  69.132  1.00  0.00    -0.136 C  
BRANCH  11  12
HETATM   12  C   UNL     1      -7.697   7.134  70.147  1.00  0.00    -0.095 A  
HETATM   13  C   UNL     1      -7.254   8.142  71.013  1.00  0.00    -0.057 A  
HETATM   14  C   UNL     1      -7.093   5.867  70.224  1.00  0.00    -0.074 A  
HETATM   15  C   UNL     1      -6.266   7.879  71.962  1.00  0.00    -0.041 A  
HETATM   16  C   UNL     1      -6.106   5.605  71.175  1.00  0.00    -0.033 A  
HETATM   17  C   UNL     1      -5.701   6.609  72.050  1.00  0.00    -0.037 A  
ENDBRANCH  11  12
BRANCH  11  18
HETATM   18  C   UNL     1      -8.282   7.467  67.707  1.00  0.00    -0.119 A  
HETATM   19  C   UNL     1      -6.712   8.331  66.066  1.00  0.00    -0.057 A  
HETATM   20  C   UNL     1      -7.226   8.323  67.365  1.00  0.00    -0.084 A  
HETATM   21  C   UNL     1      -8.322   6.660  65.406  1.00  0.00    -0.130 A  
HETATM   22  C   UNL     1      -7.254   7.494  65.090  1.00  0.00    -0.066 A  
HETATM   23  C   UNL     1      -8.835   6.648  66.704  1.00  0.00    -0.140 A  
ENDBRANCH  11  18
ENDBRANCH  10  11
ENDBRANCH   7  10
TORSDOF 4
ENDMDL
MODEL      145
REMARK 921   NORMALIZED FREE ENERGY PREDICTED BY IDOCK:   -3.66 KCAL/MOL
REMARK 922        TOTAL FREE ENERGY PREDICTED BY IDOCK:   -5.93 KCAL/MOL
REMARK 923 INTER-LIGAND FREE ENERGY PREDICTED BY IDOCK:   -4.89 KCAL/MOL
REMARK 924 INTRA-LIGAND FREE ENERGY PREDICTED BY IDOCK:   -1.04 KCAL/MOL
REMARK 927      BINDING AFFINITY PREDICTED BY RF-SCORE:    0.00 PKD
ROOT
HETATM    1  C   UNL     1      -9.385   6.015  72.024  1.00  0.00    -0.149 C  
HETATM    2  C   UNL     1     -10.453   4.947  72.281  1.00  0.00    -0.267 C  
HETATM    3  C   UNL     1     -11.766   5.726  72.350  1.00  0.00    -0.281 C  
HETATM    4  C   UNL     1     -11.353   7.185  72.129  1.00  0.00    -0.264 C  
HETATM    5  N   UNL     1      -9.994   7.180  72.672  1.00  0.00    -0.170 NA 
HETATM    6  C   UNL     1     -11.401   7.547  70.640  1.00  0.00    -0.301 C  
HETATM    7  C   UNL     1     -10.335   6.860  69.756  1.00  0.00    -0.206 C  
HETATM    8  C   UNL     1      -9.260   8.428  72.545  1.00  0.00    -0.268 C  
HETATM    9  C   UNL     1      -9.146   6.240  70.525  1.00  0.00    -0.157 C  
ENDROOT
BRANCH   7  10
HETATM   10  O   UNL     1     -10.868   5.837  68.900  1.00  0.00    -0.275 OA 
BRANCH  10  11
HETATM   11  C   UNL     1     -10.652   6.006  67.487  1.00  0.00    -0.273 C  
BRANCH  11  12
HETATM   12  C   UNL     1     -10.026   4.738  66.919  1.00  0.00    -0.245 A  
HETATM   13  C   UNL     1      -9.368   3.803  67.730  1.00  0.00    -0.237 A  
HETATM   14  C   UNL     1     -10.108   4.493  65.537  1.00  0.00    -0.240 A  
HETATM   15  C   UNL     1      -8.847   2.631  67.181  1.00  0.00    -0.158 A  
HETATM   16  C   UNL     1      -9.588   3.318  64.991  1.00  0.00    -0.125 A  
HETATM   17  C   UNL     1      -8.967   2.384  65.815  1.00  0.00    -0.121 A  
ENDBRANCH  11  12
BRANCH  11  18
HETATM   18  C   UNL     1      -9.874   7.257  67.109  1.00  0.00    -0.242 A  
HETATM   19  C   UNL     1      -9.767   9.619  66.547  1.00  0.00    -0.272 A  
HETATM   20  C   UNL     1     -10.514   8.469  66.812  1.00  0.00    -0.308 A  
HETATM   21  C   UNL     1      -7.722   8.372  66.828  1.00  0.00    -0.091 A  
HETATM   22  C   UNL     1      -8.373   9.573  66.564  1.00  0.00    -0.119 A  
HETATM   23  C   UNL     1      -8.466   7.221  67.096  1.00  0.00    -0.118 A  
ENDBRANCH  11  18
ENDBRANCH  10  11
ENDBRANCH   7  10
TORSDOF 4
ENDMDL
MODEL      146
REMARK 921   NORMALIZED FREE ENERGY PREDICTED BY IDOCK:   -3.63 KCAL/MOL
REMARK 922        TOTAL FREE ENERGY PREDICTED BY IDOCK:   -5.89 KCAL/MOL
REMARK 923 INTER-LIGAND FREE ENERGY PREDICTED BY IDOCK:   -4.94 KCAL/MOL
REMARK 924 INTRA-LIGAND FREE ENERGY PREDICTED BY IDOCK:   -0.95 KCAL/MOL
REMARK 927      BINDING AFFINITY PREDICTED BY RF-SCORE:    0.00 PKD
ROOT
HETATM    1  C   UNL     1      -9.044   4.305  67.140  1.00  0.00    -0.137 C  
HETATM    2  C   UNL     1      -7.858   4.474  68.095  1.00  0.00    -0.080 C  
HETATM    3  C   UNL     1      -6.823   5.256  67.286  1.00  0.00    -0.060 C  
HETATM    4  C   UNL     1      -7.493   5.476  65.926  1.00  0.00    -0.082 C  
HETATM    5  N   UNL     1      -8.360   4.300  65.844  1.00  0.00    -0.109 NA 
HETATM    6  C   UNL     1      -8.271   6.797  65.907  1.00  0.00    -0.132 C  
HETATM    7  C   UNL     1      -9.530   6.837  66.803  1.00  0.00    -0.162 C  
HETATM    8  C   UNL     1      -9.223   4.234  64.676  1.00  0.00    -0.156 C  
HETATM    9  C   UNL     1     -10.051   5.457  67.265  1.00  0.00    -0.229 C  
ENDROOT
BRANCH   7  10
HETATM   10  O   UNL     1      -9.376   7.648  67.979  1.00  0.00    -0.140 OA 
BRANCH  10  11
HETATM   11  C   UNL     1     -10.581   7.980  68.691  1.00  0.00    -0.109 C  
BRANCH  11  12
HETATM   12  C   UNL     1     -10.917   9.448  68.452  1.00  0.00    -0.079 A  
HETATM   13  C   UNL     1     -10.720  10.065  67.211  1.00  0.00    -0.309 A  
HETATM   14  C   UNL     1     -11.445  10.211  69.508  1.00  0.00    -0.227 A  
HETATM   15  C   UNL     1     -11.083  11.398  67.015  1.00  0.00    -0.364 A  
HETATM   16  C   UNL     1     -11.810  11.543  69.311  1.00  0.00    -0.414 A  
HETATM   17  C   UNL     1     -11.638  12.133  68.061  1.00  0.00    -0.411 A  
ENDBRANCH  11  12
BRANCH  11  18
HETATM   18  C   UNL     1     -10.563   7.623  70.171  1.00  0.00    -0.239 A  
HETATM   19  C   UNL     1      -9.613   7.800  72.400  1.00  0.00    -0.238 A  
HETATM   20  C   UNL     1      -9.556   8.079  71.033  1.00  0.00    -0.184 A  
HETATM   21  C   UNL     1     -11.662   6.568  72.076  1.00  0.00    -0.367 A  
HETATM   22  C   UNL     1     -10.669   7.054  72.923  1.00  0.00    -0.320 A  
HETATM   23  C   UNL     1     -11.609   6.848  70.710  1.00  0.00    -0.397 A  
ENDBRANCH  11  18
ENDBRANCH  10  11
ENDBRANCH   7  10
TORSDOF 4
ENDMDL
MODEL      147
REMARK 921   NORMALIZED FREE ENERGY PREDICTED BY IDOCK:   -3.61 KCAL/MOL
REMARK 922        TOTAL FREE ENERGY PREDICTED BY IDOCK:   -5.86 KCAL/MOL
REMARK 923 INTER-LIGAND FREE ENERGY PREDICTED BY IDOCK:   -5.03 KCAL/MOL
REMARK 924 INTRA-LIGAND FREE ENERGY PREDICTED BY IDOCK:   -0.83 KCAL/MOL
REMARK 927      BINDING AFFINITY PREDICTED BY RF-SCORE:    0.00 PKD
ROOT
HETATM    1  C   UNL     1      -5.972   8.803  68.971  1.00  0.00    -0.043 C  
HETATM    2  C   UNL     1      -6.015   9.724  70.193  1.00  0.00    -0.053 C  
HETATM    3  C   UNL     1      -7.027  10.808  69.821  1.00  0.00    -0.141 C  
HETATM    4  C   UNL     1      -7.488  10.427  68.410  1.00  0.00    -0.091 C  
HETATM    5  N   UNL     1      -6.298   9.746  67.898  1.00  0.00    -0.056 NA 
HETATM    6  C   UNL     1      -8.721   9.518  68.465  1.00  0.00    -0.124 C  
HETATM    7  C   UNL     1      -8.474   8.099  69.027  1.00  0.00    -0.129 C  
HETATM    8  C   UNL     1      -6.424   9.171  66.569  1.00  0.00    -0.067 C  
HETATM    9  C   UNL     1      -6.993   7.661  69.075  1.00  0.00    -0.069 C  
ENDROOT
BRANCH   7  10
HETATM   10  O   UNL     1      -9.020   7.896  70.340  1.00  0.00    -0.144 OA 
BRANCH  10  11
HETATM   11  C   UNL     1     -10.156   7.018  70.433  1.00  0.00    -0.187 C  
BRANCH  11  12
HETATM   12  C   UNL     1     -10.320   6.266  69.118  1.00  0.00    -0.262 A  
HETATM   13  C   UNL     1     -11.034   6.800  68.038  1.00  0.00    -0.289 A  
HETATM   14  C   UNL     1      -9.736   4.995  68.978  1.00  0.00    -0.238 A  
HETATM   15  C   UNL     1     -11.124   6.103  66.832  1.00  0.00    -0.301 A  
HETATM   16  C   UNL     1      -9.825   4.300  67.771  1.00  0.00    -0.132 A  
HETATM   17  C   UNL     1     -10.510   4.860  66.695  1.00  0.00    -0.270 A  
ENDBRANCH  11  12
BRANCH  11  18
HETATM   18  C   UNL     1     -11.445   7.692  70.880  1.00  0.00    -0.299 A  
HETATM   19  C   UNL     1     -13.694   7.608  71.797  1.00  0.00    -0.408 A  
HETATM   20  C   UNL     1     -12.555   6.956  71.318  1.00  0.00    -0.394 A  
HETATM   21  C   UNL     1     -12.663   9.747  71.376  1.00  0.00    -0.483 A  
HETATM   22  C   UNL     1     -13.744   9.001  71.835  1.00  0.00    -0.495 A  
HETATM   23  C   UNL     1     -11.522   9.099  70.899  1.00  0.00    -0.357 A  
ENDBRANCH  11  18
ENDBRANCH  10  11
ENDBRANCH   7  10
TORSDOF 4
ENDMDL
MODEL      148
REMARK 921   NORMALIZED FREE ENERGY PREDICTED BY IDOCK:   -3.51 KCAL/MOL
REMARK 922        TOTAL FREE ENERGY PREDICTED BY IDOCK:   -5.74 KCAL/MOL
REMARK 923 INTER-LIGAND FREE ENERGY PREDICTED BY IDOCK:   -4.28 KCAL/MOL
REMARK 924 INTRA-LIGAND FREE ENERGY PREDICTED BY IDOCK:   -1.46 KCAL/MOL
REMARK 927      BINDING AFFINITY PREDICTED BY RF-SCORE:    0.00 PKD
ROOT
HETATM    1  C   UNL     1      -7.855   7.604  66.740  1.00  0.00    -0.107 C  
HETATM    2  C   UNL     1      -6.560   8.406  66.904  1.00  0.00    -0.058 C  
HETATM    3  C   UNL     1      -5.944   8.429  65.506  1.00  0.00    -0.045 C  
HETATM    4  C   UNL     1      -6.932   7.638  64.643  1.00  0.00    -0.052 C  
HETATM    5  N   UNL     1      -7.496   6.717  65.631  1.00  0.00    -0.079 NA 
HETATM    6  C   UNL     1      -7.982   8.567  64.023  1.00  0.00    -0.159 C  
HETATM    7  C   UNL     1      -8.984   9.194  65.019  1.00  0.00    -0.171 C  
HETATM    8  C   UNL     1      -8.557   5.848  65.149  1.00  0.00    -0.091 C  
HETATM    9  C   UNL     1      -9.051   8.507  66.402  1.00  0.00    -0.229 C  
ENDROOT
BRANCH   7  10
HETATM   10  O   UNL     1      -8.767  10.594  65.251  1.00  0.00    -0.183 OA 
BRANCH  10  11
HETATM   11  C   UNL     1      -9.301  11.134  66.473  1.00  0.00    -0.180 C  
BRANCH  11  12
HETATM   12  C   UNL     1     -10.394  12.143  66.141  1.00  0.00    -0.264 A  
HETATM   13  C   UNL     1     -10.623  12.591  64.834  1.00  0.00    -0.330 A  
HETATM   14  C   UNL     1     -11.202  12.644  67.177  1.00  0.00    -0.348 A  
HETATM   15  C   UNL     1     -11.663  13.481  64.560  1.00  0.00    -0.431 A  
HETATM   16  C   UNL     1     -12.243  13.532  66.902  1.00  0.00    -0.377 A  
HETATM   17  C   UNL     1     -12.479  13.941  65.592  1.00  0.00    -0.538 A  
ENDBRANCH  11  12
BRANCH  11  18
HETATM   18  C   UNL     1      -8.259  11.699  67.427  1.00  0.00    -0.153 A  
HETATM   19  C   UNL     1      -6.911  11.562  69.444  1.00  0.00    -0.071 A  
HETATM   20  C   UNL     1      -7.929  11.059  68.630  1.00  0.00    -0.143 A  
HETATM   21  C   UNL     1      -6.554  13.379  67.898  1.00  0.00    -0.149 A  
HETATM   22  C   UNL     1      -6.218  12.714  69.074  1.00  0.00    -0.091 A  
HETATM   23  C   UNL     1      -7.568  12.877  67.081  1.00  0.00    -0.037 A  
ENDBRANCH  11  18
ENDBRANCH  10  11
ENDBRANCH   7  10
TORSDOF 4
ENDMDL
MODEL      149
REMARK 921   NORMALIZED FREE ENERGY PREDICTED BY IDOCK:   -3.46 KCAL/MOL
REMARK 922        TOTAL FREE ENERGY PREDICTED BY IDOCK:   -5.67 KCAL/MOL
REMARK 923 INTER-LIGAND FREE ENERGY PREDICTED BY IDOCK:   -4.58 KCAL/MOL
REMARK 924 INTRA-LIGAND FREE ENERGY PREDICTED BY IDOCK:   -1.09 KCAL/MOL
REMARK 927      BINDING AFFINITY PREDICTED BY RF-SCORE:    0.00 PKD
ROOT
HETATM    1  C   UNL     1      -6.199   7.068  67.420  1.00  0.00    -0.041 C  
HETATM    2  C   UNL     1      -6.665   7.633  66.075  1.00  0.00    -0.046 C  
HETATM    3  C   UNL     1      -7.338   6.451  65.376  1.00  0.00    -0.076 C  
HETATM    4  C   UNL     1      -7.206   5.296  66.373  1.00  0.00    -0.077 C  
HETATM    5  N   UNL     1      -5.973   5.663  67.070  1.00  0.00    -0.018 NA 
HETATM    6  C   UNL     1      -8.424   5.234  67.303  1.00  0.00    -0.106 C  
HETATM    7  C   UNL     1      -8.551   6.403  68.306  1.00  0.00    -0.114 C  
HETATM    8  C   UNL     1      -5.588   4.794  68.169  1.00  0.00    -0.016 C  
HETATM    9  C   UNL     1      -7.264   7.234  68.513  1.00  0.00    -0.094 C  
ENDROOT
BRANCH   7  10
HETATM   10  O   UNL     1      -9.605   7.325  67.987  1.00  0.00    -0.138 OA 
BRANCH  10  11
HETATM   11  C   UNL     1      -9.742   8.468  68.850  1.00  0.00    -0.170 C  
BRANCH  11  12
HETATM   12  C   UNL     1     -10.534   8.070  70.090  1.00  0.00    -0.225 A  
HETATM   13  C   UNL     1     -10.366   8.715  71.322  1.00  0.00    -0.308 A  
HETATM   14  C   UNL     1     -11.467   7.022  70.000  1.00  0.00    -0.262 A  
HETATM   15  C   UNL     1     -11.143   8.355  72.423  1.00  0.00    -0.431 A  
HETATM   16  C   UNL     1     -12.245   6.664  71.102  1.00  0.00    -0.357 A  
HETATM   17  C   UNL     1     -12.089   7.339  72.310  1.00  0.00    -0.229 A  
ENDBRANCH  11  12
BRANCH  11  18
HETATM   18  C   UNL     1     -10.306   9.710  68.176  1.00  0.00    -0.250 A  
HETATM   19  C   UNL     1     -11.574  11.782  68.232  1.00  0.00    -0.373 A  
HETATM   20  C   UNL     1     -11.139  10.610  68.855  1.00  0.00    -0.314 A  
HETATM   21  C   UNL     1     -10.390  11.169  66.222  1.00  0.00    -0.299 A  
HETATM   22  C   UNL     1     -11.193  12.066  66.921  1.00  0.00    -0.375 A  
HETATM   23  C   UNL     1      -9.951   9.998  66.844  1.00  0.00    -0.263 A  
ENDBRANCH  11  18
ENDBRANCH  10  11
ENDBRANCH   7  10
TORSDOF 4
ENDMDL
MODEL      150
REMARK 921   NORMALIZED FREE ENERGY PREDICTED BY IDOCK:   -3.41 KCAL/MOL
REMARK 922        TOTAL FREE ENERGY PREDICTED BY IDOCK:   -5.62 KCAL/MOL
REMARK 923 INTER-LIGAND FREE ENERGY PREDICTED BY IDOCK:   -4.29 KCAL/MOL
REMARK 924 INTRA-LIGAND FREE ENERGY PREDICTED BY IDOCK:   -1.32 KCAL/MOL
REMARK 927      BINDING AFFINITY PREDICTED BY RF-SCORE:    0.00 PKD
ROOT
HETATM    1  C   UNL     1      -8.603   5.870  72.335  1.00  0.00    -0.120 C  
HETATM    2  C   UNL     1      -9.631   4.773  72.039  1.00  0.00    -0.201 C  
HETATM    3  C   UNL     1     -10.984   5.445  72.270  1.00  0.00    -0.277 C  
HETATM    4  C   UNL     1     -10.631   6.878  72.681  1.00  0.00    -0.233 C  
HETATM    5  N   UNL     1      -9.329   6.676  73.318  1.00  0.00    -0.131 NA 
HETATM    6  C   UNL     1     -10.562   7.797  71.456  1.00  0.00    -0.247 C  
HETATM    7  C   UNL     1      -9.385   7.528  70.491  1.00  0.00    -0.160 C  
HETATM    8  C   UNL     1      -8.654   7.882  73.767  1.00  0.00    -0.265 C  
HETATM    9  C   UNL     1      -8.240   6.671  71.076  1.00  0.00    -0.120 C  
ENDROOT
BRANCH   7  10
HETATM   10  O   UNL     1      -9.782   6.919  69.253  1.00  0.00    -0.155 OA 
BRANCH  10  11
HETATM   11  C   UNL     1      -9.036   7.298  68.083  1.00  0.00    -0.132 C  
BRANCH  11  12
HETATM   12  C   UNL     1      -9.341   8.752  67.741  1.00  0.00    -0.157 A  
HETATM   13  C   UNL     1     -10.636   9.188  67.430  1.00  0.00    -0.315 A  
HETATM   14  C   UNL     1      -8.294   9.690  67.737  1.00  0.00    -0.121 A  
HETATM   15  C   UNL     1     -10.887  10.535  67.167  1.00  0.00    -0.319 A  
HETATM   16  C   UNL     1      -8.547  11.037  67.476  1.00  0.00    -0.128 A  
HETATM   17  C   UNL     1      -9.845  11.460  67.202  1.00  0.00    -0.212 A  
ENDBRANCH  11  12
BRANCH  11  18
HETATM   18  C   UNL     1      -9.213   6.372  66.888  1.00  0.00    -0.144 A  
HETATM   19  C   UNL     1      -8.557   5.571  64.689  1.00  0.00    -0.067 A  
HETATM   20  C   UNL     1      -8.423   6.488  65.735  1.00  0.00    -0.149 A  
HETATM   21  C   UNL     1     -10.299   4.423  65.900  1.00  0.00    -0.234 A  
HETATM   22  C   UNL     1      -9.487   4.535  64.776  1.00  0.00    -0.126 A  
HETATM   23  C   UNL     1     -10.165   5.336  66.948  1.00  0.00    -0.279 A  
ENDBRANCH  11  18
ENDBRANCH  10  11
ENDBRANCH   7  10
TORSDOF 4
ENDMDL
MODEL      151
REMARK 921   NORMALIZED FREE ENERGY PREDICTED BY IDOCK:   -3.40 KCAL/MOL
REMARK 922        TOTAL FREE ENERGY PREDICTED BY IDOCK:   -5.61 KCAL/MOL
REMARK 923 INTER-LIGAND FREE ENERGY PREDICTED BY IDOCK:   -7.38 KCAL/MOL
REMARK 924 INTRA-LIGAND FREE ENERGY PREDICTED BY IDOCK:    1.77 KCAL/MOL
REMARK 927      BINDING AFFINITY PREDICTED BY RF-SCORE:    0.00 PKD
ROOT
HETATM    1  C   UNL     1     -11.766  13.391  65.908  1.00  0.00    -0.356 C  
HETATM    2  C   UNL     1     -11.362  12.080  65.227  1.00  0.00    -0.366 C  
HETATM    3  C   UNL     1      -9.920  11.843  65.677  1.00  0.00    -0.269 C  
HETATM    4  C   UNL     1      -9.604  13.038  66.582  1.00  0.00    -0.259 C  
HETATM    5  N   UNL     1     -10.470  14.067  66.003  1.00  0.00    -0.296 NA 
HETATM    6  C   UNL     1      -9.944  12.722  68.043  1.00  0.00    -0.225 C  
HETATM    7  C   UNL     1     -11.451  12.576  68.356  1.00  0.00    -0.312 C  
HETATM    8  C   UNL     1     -10.475  15.346  66.693  1.00  0.00    -0.293 C  
HETATM    9  C   UNL     1     -12.403  13.152  67.284  1.00  0.00    -0.066 C  
ENDROOT
BRANCH   7  10
HETATM   10  O   UNL     1     -11.860  11.222  68.605  1.00  0.00    -0.382 OA 
BRANCH  10  11
HETATM   11  C   UNL     1     -12.471  10.960  69.881  1.00  0.00    -0.224 C  
BRANCH  11  12
HETATM   12  C   UNL     1     -12.571  12.262  70.667  1.00  0.00    -0.241 A  
HETATM   13  C   UNL     1     -11.761  13.369  70.382  1.00  0.00    -0.184 A  
HETATM   14  C   UNL     1     -13.505  12.362  71.712  1.00  0.00    -0.261 A  
HETATM   15  C   UNL     1     -11.913  14.561  71.092  1.00  0.00    -0.401 A  
HETATM   16  C   UNL     1     -13.657  13.555  72.420  1.00  0.00    -0.709 A  
HETATM   17  C   UNL     1     -12.868  14.657  72.102  1.00  0.00    -0.408 A  
ENDBRANCH  11  12
BRANCH  11  18
HETATM   18  C   UNL     1     -11.813   9.847  70.684  1.00  0.00    -0.386 A  
HETATM   19  C   UNL     1     -11.932   7.910  72.147  1.00  0.00    -0.379 A  
HETATM   20  C   UNL     1     -12.557   8.971  71.487  1.00  0.00    -0.400 A  
HETATM   21  C   UNL     1      -9.798   8.595  71.254  1.00  0.00    -0.307 A  
HETATM   22  C   UNL     1     -10.556   7.717  72.024  1.00  0.00    -0.279 A  
HETATM   23  C   UNL     1     -10.420   9.654  70.591  1.00  0.00    -0.379 A  
ENDBRANCH  11  18
ENDBRANCH  10  11
ENDBRANCH   7  10
TORSDOF 4
ENDMDL
MODEL      152
REMARK 921   NORMALIZED FREE ENERGY PREDICTED BY IDOCK:   -3.40 KCAL/MOL
REMARK 922        TOTAL FREE ENERGY PREDICTED BY IDOCK:   -5.60 KCAL/MOL
REMARK 923 INTER-LIGAND FREE ENERGY PREDICTED BY IDOCK:   -4.23 KCAL/MOL
REMARK 924 INTRA-LIGAND FREE ENERGY PREDICTED BY IDOCK:   -1.38 KCAL/MOL
REMARK 927      BINDING AFFINITY PREDICTED BY RF-SCORE:    0.00 PKD
ROOT
HETATM    1  C   UNL     1      -7.738   9.220  66.755  1.00  0.00    -0.094 C  
HETATM    2  C   UNL     1      -8.988   9.206  65.870  1.00  0.00    -0.231 C  
HETATM    3  C   UNL     1     -10.146   9.443  66.840  1.00  0.00    -0.314 C  
HETATM    4  C   UNL     1      -9.473   9.573  68.210  1.00  0.00    -0.133 C  
HETATM    5  N   UNL     1      -8.288   8.735  68.024  1.00  0.00    -0.118 NA 
HETATM    6  C   UNL     1      -9.130  11.037  68.513  1.00  0.00    -0.173 C  
HETATM    7  C   UNL     1      -8.013  11.650  67.638  1.00  0.00    -0.136 C  
HETATM    8  C   UNL     1      -7.360   8.700  69.141  1.00  0.00    -0.076 C  
HETATM    9  C   UNL     1      -7.137  10.627  66.879  1.00  0.00    -0.109 C  
ENDROOT
BRANCH   7  10
HETATM   10  O   UNL     1      -8.493  12.598  66.671  1.00  0.00    -0.110 OA 
BRANCH  10  11
HETATM   11  C   UNL     1      -9.391  13.612  67.158  1.00  0.00    -0.240 C  
BRANCH  11  12
HETATM   12  C   UNL     1     -10.619  13.670  66.257  1.00  0.00    -0.289 A  
HETATM   13  C   UNL     1     -11.917  13.771  66.773  1.00  0.00    -0.465 A  
HETATM   14  C   UNL     1     -10.449  13.623  64.862  1.00  0.00    -0.426 A  
HETATM   15  C   UNL     1     -13.015  13.869  65.917  1.00  0.00    -0.252 A  
HETATM   16  C   UNL     1     -11.548  13.723  64.008  1.00  0.00    -0.307 A  
HETATM   17  C   UNL     1     -12.829  13.857  64.536  1.00  0.00     0.055 A  
ENDBRANCH  11  12
BRANCH  11  18
HETATM   18  C   UNL     1      -8.755  14.980  67.360  1.00  0.00    -0.208 A  
HETATM   19  C   UNL     1      -8.426  17.014  68.649  1.00  0.00    -0.262 A  
HETATM   20  C   UNL     1      -9.087  15.799  68.448  1.00  0.00    -0.188 A  
HETATM   21  C   UNL     1      -7.113  16.643  66.659  1.00  0.00    -0.257 A  
HETATM   22  C   UNL     1      -7.435  17.431  67.761  1.00  0.00    -0.195 A  
HETATM   23  C   UNL     1      -7.770  15.427  66.458  1.00  0.00     0.302 A  
ENDBRANCH  11  18
ENDBRANCH  10  11
ENDBRANCH   7  10
TORSDOF 4
ENDMDL
MODEL      153
REMARK 921   NORMALIZED FREE ENERGY PREDICTED BY IDOCK:   -3.37 KCAL/MOL
REMARK 922        TOTAL FREE ENERGY PREDICTED BY IDOCK:   -5.56 KCAL/MOL
REMARK 923 INTER-LIGAND FREE ENERGY PREDICTED BY IDOCK:   -4.09 KCAL/MOL
REMARK 924 INTRA-LIGAND FREE ENERGY PREDICTED BY IDOCK:   -1.47 KCAL/MOL
REMARK 927      BINDING AFFINITY PREDICTED BY RF-SCORE:    0.00 PKD
ROOT
HETATM    1  C   UNL     1      -8.200   4.194  66.544  1.00  0.00    -0.101 C  
HETATM    2  C   UNL     1      -7.324   5.437  66.727  1.00  0.00    -0.086 C  
HETATM    3  C   UNL     1      -8.204   6.597  66.261  1.00  0.00    -0.120 C  
HETATM    4  C   UNL     1      -9.520   5.932  65.844  1.00  0.00    -0.005 C  
HETATM    5  N   UNL     1      -9.048   4.612  65.424  1.00  0.00    -0.144 NA 
HETATM    6  C   UNL     1     -10.499   5.871  67.022  1.00  0.00    -0.341 C  
HETATM    7  C   UNL     1     -10.099   4.914  68.168  1.00  0.00    -0.075 C  
HETATM    8  C   UNL     1     -10.083   3.670  65.030  1.00  0.00    -0.065 C  
HETATM    9  C   UNL     1      -9.015   3.873  67.805  1.00  0.00    -0.155 C  
ENDROOT
BRANCH   7  10
HETATM   10  O   UNL     1      -9.659   5.589  69.357  1.00  0.00    -0.133 OA 
BRANCH  10  11
HETATM   11  C   UNL     1      -9.763   7.024  69.356  1.00  0.00    -0.159 C  
BRANCH  11  12
HETATM   12  C   UNL     1      -8.409   7.626  69.710  1.00  0.00    -0.133 A  
HETATM   13  C   UNL     1      -7.594   7.089  70.715  1.00  0.00    -0.090 A  
HETATM   14  C   UNL     1      -7.957   8.758  69.009  1.00  0.00    -0.111 A  
HETATM   15  C   UNL     1      -6.339   7.638  70.980  1.00  0.00    -0.035 A  
HETATM   16  C   UNL     1      -6.701   9.305  69.274  1.00  0.00    -0.049 A  
HETATM   17  C   UNL     1      -5.889   8.738  70.253  1.00  0.00    -0.030 A  
ENDBRANCH  11  12
BRANCH  11  18
HETATM   18  C   UNL     1     -10.888   7.580  70.217  1.00  0.00    -0.257 A  
HETATM   19  C   UNL     1     -12.933   7.303  71.501  1.00  0.00    -0.434 A  
HETATM   20  C   UNL     1     -11.959   6.783  70.645  1.00  0.00    -0.418 A  
HETATM   21  C   UNL     1     -11.816   9.441  71.492  1.00  0.00    -0.456 A  
HETATM   22  C   UNL     1     -12.856   8.627  71.931  1.00  0.00    -0.411 A  
HETATM   23  C   UNL     1     -10.840   8.923  70.639  1.00  0.00    -0.286 A  
ENDBRANCH  11  18
ENDBRANCH  10  11
ENDBRANCH   7  10
TORSDOF 4
ENDMDL
MODEL      154
REMARK 921   NORMALIZED FREE ENERGY PREDICTED BY IDOCK:   -3.36 KCAL/MOL
REMARK 922        TOTAL FREE ENERGY PREDICTED BY IDOCK:   -5.56 KCAL/MOL
REMARK 923 INTER-LIGAND FREE ENERGY PREDICTED BY IDOCK:   -3.96 KCAL/MOL
REMARK 924 INTRA-LIGAND FREE ENERGY PREDICTED BY IDOCK:   -1.60 KCAL/MOL
REMARK 927      BINDING AFFINITY PREDICTED BY RF-SCORE:    0.00 PKD
ROOT
HETATM    1  C   UNL     1     -11.338   8.636  71.335  1.00  0.00    -0.284 C  
HETATM    2  C   UNL     1     -10.048   8.508  72.151  1.00  0.00    -0.393 C  
HETATM    3  C   UNL     1     -10.003   7.038  72.568  1.00  0.00    -0.191 C  
HETATM    4  C   UNL     1     -11.272   6.432  71.960  1.00  0.00    -0.281 C  
HETATM    5  N   UNL     1     -12.163   7.593  71.951  1.00  0.00    -0.296 NA 
HETATM    6  C   UNL     1     -10.996   5.878  70.557  1.00  0.00    -0.362 C  
HETATM    7  C   UNL     1     -10.694   6.939  69.474  1.00  0.00    -0.246 C  
HETATM    8  C   UNL     1     -13.467   7.381  71.346  1.00  0.00    -0.330 C  
HETATM    9  C   UNL     1     -11.100   8.385  69.840  1.00  0.00    -0.109 C  
ENDROOT
BRANCH   7  10
HETATM   10  O   UNL     1      -9.317   6.974  69.068  1.00  0.00    -0.138 OA 
BRANCH  10  11
HETATM   11  C   UNL     1      -8.807   8.248  68.638  1.00  0.00    -0.133 C  
BRANCH  11  12
HETATM   12  C   UNL     1      -8.476   8.181  67.151  1.00  0.00    -0.124 A  
HETATM   13  C   UNL     1      -8.241   6.966  66.494  1.00  0.00    -0.117 A  
HETATM   14  C   UNL     1      -8.403   9.373  66.410  1.00  0.00    -0.116 A  
HETATM   15  C   UNL     1      -7.987   6.939  65.122  1.00  0.00    -0.125 A  
HETATM   16  C   UNL     1      -8.151   9.344  65.038  1.00  0.00    -0.129 A  
HETATM   17  C   UNL     1      -7.953   8.126  64.393  1.00  0.00    -0.145 A  
ENDBRANCH  11  12
BRANCH  11  18
HETATM   18  C   UNL     1      -7.647   8.781  69.466  1.00  0.00    -0.080 A  
HETATM   19  C   UNL     1      -5.509   8.490  70.585  1.00  0.00    -0.028 A  
HETATM   20  C   UNL     1      -6.599   7.954  69.895  1.00  0.00    -0.037 A  
HETATM   21  C   UNL     1      -6.502  10.686  70.472  1.00  0.00    -0.045 A  
HETATM   22  C   UNL     1      -5.456   9.855  70.865  1.00  0.00    -0.073 A  
HETATM   23  C   UNL     1      -7.591  10.153  69.780  1.00  0.00    -0.175 A  
ENDBRANCH  11  18
ENDBRANCH  10  11
ENDBRANCH   7  10
TORSDOF 4
ENDMDL
MODEL      155
REMARK 921   NORMALIZED FREE ENERGY PREDICTED BY IDOCK:   -3.36 KCAL/MOL
REMARK 922        TOTAL FREE ENERGY PREDICTED BY IDOCK:   -5.55 KCAL/MOL
REMARK 923 INTER-LIGAND FREE ENERGY PREDICTED BY IDOCK:   -4.27 KCAL/MOL
REMARK 924 INTRA-LIGAND FREE ENERGY PREDICTED BY IDOCK:   -1.28 KCAL/MOL
REMARK 927      BINDING AFFINITY PREDICTED BY RF-SCORE:    0.00 PKD
ROOT
HETATM    1  C   UNL     1      -9.282  11.117  67.132  1.00  0.00    -0.158 C  
HETATM    2  C   UNL     1     -10.345  10.558  66.182  1.00  0.00    -0.276 C  
HETATM    3  C   UNL     1      -9.556   9.718  65.177  1.00  0.00    -0.356 C  
HETATM    4  C   UNL     1      -8.098   9.860  65.626  1.00  0.00    -0.128 C  
HETATM    5  N   UNL     1      -8.120  11.187  66.242  1.00  0.00    -0.164 NA 
HETATM    6  C   UNL     1      -7.719   8.748  66.611  1.00  0.00    -0.093 C  
HETATM    7  C   UNL     1      -8.404   8.827  67.995  1.00  0.00    -0.119 C  
HETATM    8  C   UNL     1      -6.876  11.614  66.861  1.00  0.00    -0.129 C  
HETATM    9  C   UNL     1      -9.042  10.193  68.335  1.00  0.00    -0.133 C  
ENDROOT
BRANCH   7  10
HETATM   10  O   UNL     1      -9.414   7.825  68.196  1.00  0.00    -0.145 OA 
BRANCH  10  11
HETATM   11  C   UNL     1      -9.096   6.771  69.123  1.00  0.00    -0.138 C  
BRANCH  11  12
HETATM   12  C   UNL     1      -8.843   5.482  68.351  1.00  0.00    -0.107 A  
HETATM   13  C   UNL     1      -7.682   4.719  68.533  1.00  0.00    -0.077 A  
HETATM   14  C   UNL     1      -9.803   5.037  67.425  1.00  0.00    -0.207 A  
HETATM   15  C   UNL     1      -7.506   3.519  67.843  1.00  0.00    -0.061 A  
HETATM   16  C   UNL     1      -9.627   3.836  66.737  1.00  0.00    -0.205 A  
HETATM   17  C   UNL     1      -8.483   3.073  66.955  1.00  0.00    -0.100 A  
ENDBRANCH  11  12
BRANCH  11  18
HETATM   18  C   UNL     1     -10.106   6.586  70.246  1.00  0.00    -0.208 A  
HETATM   19  C   UNL     1     -12.288   6.976  71.242  1.00  0.00    -0.426 A  
HETATM   20  C   UNL     1     -11.351   7.231  70.238  1.00  0.00    -0.266 A  
HETATM   21  C   UNL     1     -10.748   5.459  72.312  1.00  0.00    -0.287 A  
HETATM   22  C   UNL     1     -11.990   6.085  72.273  1.00  0.00    -0.259 A  
HETATM   23  C   UNL     1      -9.811   5.709  71.307  1.00  0.00    -0.225 A  
ENDBRANCH  11  18
ENDBRANCH  10  11
ENDBRANCH   7  10
TORSDOF 4
ENDMDL
MODEL      156
REMARK 921   NORMALIZED FREE ENERGY PREDICTED BY IDOCK:   -3.35 KCAL/MOL
REMARK 922        TOTAL FREE ENERGY PREDICTED BY IDOCK:   -5.55 KCAL/MOL
REMARK 923 INTER-LIGAND FREE ENERGY PREDICTED BY IDOCK:   -4.41 KCAL/MOL
REMARK 924 INTRA-LIGAND FREE ENERGY PREDICTED BY IDOCK:   -1.14 KCAL/MOL
REMARK 927      BINDING AFFINITY PREDICTED BY RF-SCORE:    0.00 PKD
ROOT
HETATM    1  C   UNL     1      -8.591   8.417  71.099  1.00  0.00    -0.154 C  
HETATM    2  C   UNL     1      -8.127   7.366  70.087  1.00  0.00    -0.131 C  
HETATM    3  C   UNL     1      -9.401   6.610  69.708  1.00  0.00    -0.145 C  
HETATM    4  C   UNL     1     -10.502   7.285  70.532  1.00  0.00    -0.217 C  
HETATM    5  N   UNL     1      -9.743   7.738  71.699  1.00  0.00    -0.160 NA 
HETATM    6  C   UNL     1     -11.142   8.438  69.750  1.00  0.00    -0.062 C  
HETATM    7  C   UNL     1     -10.232   9.665  69.515  1.00  0.00    -0.218 C  
HETATM    8  C   UNL     1     -10.492   8.511  72.676  1.00  0.00    -0.155 C  
HETATM    9  C   UNL     1      -8.980   9.737  70.420  1.00  0.00    -0.143 C  
ENDROOT
BRANCH   7  10
HETATM   10  O   UNL     1      -9.783   9.800  68.157  1.00  0.00    -0.142 OA 
BRANCH  10  11
HETATM   11  C   UNL     1      -9.029  10.984  67.845  1.00  0.00    -0.144 C  
BRANCH  11  12
HETATM   12  C   UNL     1      -9.990  12.126  67.537  1.00  0.00    -0.202 A  
HETATM   13  C   UNL     1     -11.045  11.987  66.626  1.00  0.00    -0.358 A  
HETATM   14  C   UNL     1      -9.817  13.361  68.185  1.00  0.00    -0.234 A  
HETATM   15  C   UNL     1     -11.934  13.040  66.404  1.00  0.00    -0.466 A  
HETATM   16  C   UNL     1     -10.708  14.412  67.963  1.00  0.00    -0.244 A  
HETATM   17  C   UNL     1     -11.772  14.247  67.080  1.00  0.00    -0.430 A  
ENDBRANCH  11  12
BRANCH  11  18
HETATM   18  C   UNL     1      -7.979  10.800  66.758  1.00  0.00    -0.138 A  
HETATM   19  C   UNL     1      -5.669  10.734  66.008  1.00  0.00    -0.140 A  
HETATM   20  C   UNL     1      -6.612  10.990  67.006  1.00  0.00    -0.100 A  
HETATM   21  C   UNL     1      -7.432  10.133  64.476  1.00  0.00    -0.127 A  
HETATM   22  C   UNL     1      -6.077  10.298  64.748  1.00  0.00    -0.128 A  
HETATM   23  C   UNL     1      -8.377  10.385  65.472  1.00  0.00    -0.168 A  
ENDBRANCH  11  18
ENDBRANCH  10  11
ENDBRANCH   7  10
TORSDOF 4
ENDMDL
MODEL      157
REMARK 921   NORMALIZED FREE ENERGY PREDICTED BY IDOCK:   -3.35 KCAL/MOL
REMARK 922        TOTAL FREE ENERGY PREDICTED BY IDOCK:   -5.54 KCAL/MOL
REMARK 923 INTER-LIGAND FREE ENERGY PREDICTED BY IDOCK:   -4.18 KCAL/MOL
REMARK 924 INTRA-LIGAND FREE ENERGY PREDICTED BY IDOCK:   -1.37 KCAL/MOL
REMARK 927      BINDING AFFINITY PREDICTED BY RF-SCORE:    0.00 PKD
ROOT
HETATM    1  C   UNL     1     -10.439  16.864  68.800  1.00  0.00    -0.343 C  
HETATM    2  C   UNL     1     -11.287  16.315  67.649  1.00  0.00    -0.016 C  
HETATM    3  C   UNL     1     -10.388  16.435  66.419  1.00  0.00    -0.319 C  
HETATM    4  C   UNL     1      -9.090  17.046  66.956  1.00  0.00    -0.221 C  
HETATM    5  N   UNL     1      -9.592  17.825  68.088  1.00  0.00    -0.291 NA 
HETATM    6  C   UNL     1      -8.102  15.950  67.374  1.00  0.00    -0.187 C  
HETATM    7  C   UNL     1      -8.512  15.128  68.617  1.00  0.00    -0.170 C  
HETATM    8  C   UNL     1      -8.581  18.491  68.892  1.00  0.00    -0.151 C  
HETATM    9  C   UNL     1      -9.620  15.762  69.488  1.00  0.00    -0.262 C  
ENDROOT
BRANCH   7  10
HETATM   10  O   UNL     1      -8.928  13.787  68.311  1.00  0.00    -0.181 OA 
BRANCH  10  11
HETATM   11  C   UNL     1      -8.225  13.126  67.243  1.00  0.00    -0.168 C  
BRANCH  11  12
HETATM   12  C   UNL     1      -9.236  12.531  66.270  1.00  0.00    -0.133 A  
HETATM   13  C   UNL     1      -9.577  11.172  66.288  1.00  0.00    -0.234 A  
HETATM   14  C   UNL     1      -9.850  13.367  65.322  1.00  0.00    -0.106 A  
HETATM   15  C   UNL     1     -10.541  10.670  65.413  1.00  0.00    -0.185 A  
HETATM   16  C   UNL     1     -10.816  12.864  64.449  1.00  0.00    -0.404 A  
HETATM   17  C   UNL     1     -11.168  11.518  64.502  1.00  0.00    -0.301 A  
ENDBRANCH  11  12
BRANCH  11  18
HETATM   18  C   UNL     1      -7.189  12.109  67.698  1.00  0.00    -0.123 A  
HETATM   19  C   UNL     1      -5.174  10.801  67.331  1.00  0.00    -0.037 A  
HETATM   20  C   UNL     1      -6.156  11.675  66.856  1.00  0.00    -0.148 A  
HETATM   21  C   UNL     1      -6.254  10.739  69.487  1.00  0.00    -0.064 A  
HETATM   22  C   UNL     1      -5.218  10.341  68.647  1.00  0.00    -0.038 A  
HETATM   23  C   UNL     1      -7.234  11.614  69.016  1.00  0.00    -0.094 A  
ENDBRANCH  11  18
ENDBRANCH  10  11
ENDBRANCH   7  10
TORSDOF 4
ENDMDL
MODEL      158
REMARK 921   NORMALIZED FREE ENERGY PREDICTED BY IDOCK:   -3.35 KCAL/MOL
REMARK 922        TOTAL FREE ENERGY PREDICTED BY IDOCK:   -5.54 KCAL/MOL
REMARK 923 INTER-LIGAND FREE ENERGY PREDICTED BY IDOCK:   -4.34 KCAL/MOL
REMARK 924 INTRA-LIGAND FREE ENERGY PREDICTED BY IDOCK:   -1.20 KCAL/MOL
REMARK 927      BINDING AFFINITY PREDICTED BY RF-SCORE:    0.00 PKD
ROOT
HETATM    1  C   UNL     1      -8.974   4.589  72.998  1.00  0.00    -0.117 C  
HETATM    2  C   UNL     1      -9.885   3.363  72.891  1.00  0.00    -0.201 C  
HETATM    3  C   UNL     1     -11.295   3.913  73.105  1.00  0.00    -0.139 C  
HETATM    4  C   UNL     1     -11.087   5.415  73.321  1.00  0.00    -0.297 C  
HETATM    5  N   UNL     1      -9.748   5.433  73.912  1.00  0.00    -0.149 NA 
HETATM    6  C   UNL     1     -11.165   6.174  71.991  1.00  0.00    -0.335 C  
HETATM    7  C   UNL     1     -10.001   5.910  71.009  1.00  0.00    -0.190 C  
HETATM    8  C   UNL     1      -9.194   6.750  74.176  1.00  0.00    -0.206 C  
HETATM    9  C   UNL     1      -8.748   5.258  71.635  1.00  0.00    -0.140 C  
ENDROOT
BRANCH   7  10
HETATM   10  O   UNL     1     -10.374   5.111  69.875  1.00  0.00    -0.279 OA 
BRANCH  10  11
HETATM   11  C   UNL     1     -10.530   5.805  68.624  1.00  0.00    -0.229 C  
BRANCH  11  12
HETATM   12  C   UNL     1     -10.089   4.893  67.485  1.00  0.00    -0.184 A  
HETATM   13  C   UNL     1     -10.403   5.166  66.147  1.00  0.00    -0.280 A  
HETATM   14  C   UNL     1      -9.341   3.740  67.780  1.00  0.00    -0.237 A  
HETATM   15  C   UNL     1      -9.943   4.334  65.126  1.00  0.00    -0.215 A  
HETATM   16  C   UNL     1      -8.879   2.910  66.757  1.00  0.00    -0.153 A  
HETATM   17  C   UNL     1      -9.172   3.214  65.430  1.00  0.00    -0.148 A  
ENDBRANCH  11  12
BRANCH  11  18
HETATM   18  C   UNL     1      -9.859   7.170  68.567  1.00  0.00    -0.155 A  
HETATM   19  C   UNL     1      -7.897   8.576  68.281  1.00  0.00    -0.106 A  
HETATM   20  C   UNL     1      -8.472   7.309  68.411  1.00  0.00    -0.125 A  
HETATM   21  C   UNL     1     -10.071   9.599  68.501  1.00  0.00    -0.195 A  
HETATM   22  C   UNL     1      -8.696   9.718  68.317  1.00  0.00    -0.119 A  
HETATM   23  C   UNL     1     -10.648   8.334  68.627  1.00  0.00    -0.144 A  
ENDBRANCH  11  18
ENDBRANCH  10  11
ENDBRANCH   7  10
TORSDOF 4
ENDMDL
MODEL      159
REMARK 921   NORMALIZED FREE ENERGY PREDICTED BY IDOCK:   -3.30 KCAL/MOL
REMARK 922        TOTAL FREE ENERGY PREDICTED BY IDOCK:   -5.48 KCAL/MOL
REMARK 923 INTER-LIGAND FREE ENERGY PREDICTED BY IDOCK:   -3.79 KCAL/MOL
REMARK 924 INTRA-LIGAND FREE ENERGY PREDICTED BY IDOCK:   -1.69 KCAL/MOL
REMARK 927      BINDING AFFINITY PREDICTED BY RF-SCORE:    0.00 PKD
ROOT
HETATM    1  C   UNL     1      -8.151  10.606  67.132  1.00  0.00    -0.121 C  
HETATM    2  C   UNL     1      -7.684   9.411  66.296  1.00  0.00    -0.097 C  
HETATM    3  C   UNL     1      -6.241   9.172  66.742  1.00  0.00    -0.065 C  
HETATM    4  C   UNL     1      -5.988  10.250  67.801  1.00  0.00    -0.045 C  
HETATM    5  N   UNL     1      -6.884  11.312  67.342  1.00  0.00    -0.088 NA 
HETATM    6  C   UNL     1      -6.339   9.734  69.201  1.00  0.00    -0.040 C  
HETATM    7  C   UNL     1      -7.843   9.492  69.461  1.00  0.00    -0.103 C  
HETATM    8  C   UNL     1      -6.952  12.490  68.191  1.00  0.00    -0.089 C  
HETATM    9  C   UNL     1      -8.800  10.166  68.451  1.00  0.00    -0.123 C  
ENDROOT
BRANCH   7  10
HETATM   10  O   UNL     1      -8.202   8.103  69.523  1.00  0.00    -0.117 OA 
BRANCH  10  11
HETATM   11  C   UNL     1      -9.553   7.771  69.156  1.00  0.00    -0.155 C  
BRANCH  11  12
HETATM   12  C   UNL     1     -10.353   7.455  70.414  1.00  0.00    -0.215 A  
HETATM   13  C   UNL     1     -11.253   8.371  70.974  1.00  0.00    -0.304 A  
HETATM   14  C   UNL     1     -10.187   6.206  71.036  1.00  0.00    -0.244 A  
HETATM   15  C   UNL     1     -12.004   8.030  72.100  1.00  0.00    -0.399 A  
HETATM   16  C   UNL     1     -10.940   5.866  72.161  1.00  0.00    -0.317 A  
HETATM   17  C   UNL     1     -11.855   6.775  72.685  1.00  0.00    -0.054 A  
ENDBRANCH  11  12
BRANCH  11  18
HETATM   18  C   UNL     1      -9.675   6.679  68.102  1.00  0.00    -0.130 A  
HETATM   19  C   UNL     1     -10.909   5.522  66.358  1.00  0.00    -0.195 A  
HETATM   20  C   UNL     1     -10.856   6.479  67.374  1.00  0.00    -0.449 A  
HETATM   21  C   UNL     1      -8.617   4.911  66.796  1.00  0.00    -0.108 A  
HETATM   22  C   UNL     1      -9.789   4.746  66.063  1.00  0.00    -0.229 A  
HETATM   23  C   UNL     1      -8.560   5.869  67.810  1.00  0.00    -0.105 A  
ENDBRANCH  11  18
ENDBRANCH  10  11
ENDBRANCH   7  10
TORSDOF 4
ENDMDL
MODEL      160
REMARK 921   NORMALIZED FREE ENERGY PREDICTED BY IDOCK:   -3.29 KCAL/MOL
REMARK 922        TOTAL FREE ENERGY PREDICTED BY IDOCK:   -5.46 KCAL/MOL
REMARK 923 INTER-LIGAND FREE ENERGY PREDICTED BY IDOCK:   -5.08 KCAL/MOL
REMARK 924 INTRA-LIGAND FREE ENERGY PREDICTED BY IDOCK:   -0.38 KCAL/MOL
REMARK 927      BINDING AFFINITY PREDICTED BY RF-SCORE:    0.00 PKD
ROOT
HETATM    1  C   UNL     1      -9.797  13.181  67.435  1.00  0.00    -0.226 C  
HETATM    2  C   UNL     1     -10.505  12.257  68.430  1.00  0.00    -0.244 C  
HETATM    3  C   UNL     1     -11.651  11.639  67.631  1.00  0.00    -0.349 C  
HETATM    4  C   UNL     1     -11.516  12.255  66.235  1.00  0.00    -0.380 C  
HETATM    5  N   UNL     1     -10.910  13.548  66.555  1.00  0.00    -0.282 NA 
HETATM    6  C   UNL     1     -10.630  11.385  65.336  1.00  0.00    -0.333 C  
HETATM    7  C   UNL     1      -9.134  11.339  65.724  1.00  0.00    -0.203 C  
HETATM    8  C   UNL     1     -10.564  14.381  65.415  1.00  0.00    -0.365 C  
HETATM    9  C   UNL     1      -8.670  12.460  66.682  1.00  0.00    -0.119 C  
ENDROOT
BRANCH   7  10
HETATM   10  O   UNL     1      -8.726  10.090  66.302  1.00  0.00    -0.133 OA 
BRANCH  10  11
HETATM   11  C   UNL     1      -8.944   9.935  67.716  1.00  0.00    -0.131 C  
BRANCH  11  12
HETATM   12  C   UNL     1      -7.606   9.999  68.442  1.00  0.00    -0.083 A  
HETATM   13  C   UNL     1      -7.344  10.946  69.440  1.00  0.00    -0.116 A  
HETATM   14  C   UNL     1      -6.597   9.080  68.103  1.00  0.00    -0.060 A  
HETATM   15  C   UNL     1      -6.123  10.945  70.116  1.00  0.00    -0.132 A  
HETATM   16  C   UNL     1      -5.378   9.080  68.781  1.00  0.00    -0.037 A  
HETATM   17  C   UNL     1      -5.146  10.006  69.794  1.00  0.00    -0.038 A  
ENDBRANCH  11  12
BRANCH  11  18
HETATM   18  C   UNL     1      -9.755   8.706  68.103  1.00  0.00    -0.178 A  
HETATM   19  C   UNL     1     -10.983   6.689  67.530  1.00  0.00    -0.416 A  
HETATM   20  C   UNL     1     -10.314   7.852  67.142  1.00  0.00    -0.398 A  
HETATM   21  C   UNL     1     -10.590   7.222  69.849  1.00  0.00    -0.244 A  
HETATM   22  C   UNL     1     -11.113   6.370  68.881  1.00  0.00    -0.420 A  
HETATM   23  C   UNL     1      -9.918   8.383  69.464  1.00  0.00    -0.190 A  
ENDBRANCH  11  18
ENDBRANCH  10  11
ENDBRANCH   7  10
TORSDOF 4
ENDMDL
MODEL      161
REMARK 921   NORMALIZED FREE ENERGY PREDICTED BY IDOCK:   -3.27 KCAL/MOL
REMARK 922        TOTAL FREE ENERGY PREDICTED BY IDOCK:   -5.44 KCAL/MOL
REMARK 923 INTER-LIGAND FREE ENERGY PREDICTED BY IDOCK:   -4.69 KCAL/MOL
REMARK 924 INTRA-LIGAND FREE ENERGY PREDICTED BY IDOCK:   -0.75 KCAL/MOL
REMARK 927      BINDING AFFINITY PREDICTED BY RF-SCORE:    0.00 PKD
ROOT
HETATM    1  C   UNL     1      -7.914   6.712  68.258  1.00  0.00    -0.111 C  
HETATM    2  C   UNL     1      -7.126   7.782  67.496  1.00  0.00    -0.083 C  
HETATM    3  C   UNL     1      -7.912   7.985  66.200  1.00  0.00    -0.103 C  
HETATM    4  C   UNL     1      -9.091   7.015  66.316  1.00  0.00    -0.147 C  
HETATM    5  N   UNL     1      -8.510   5.962  67.150  1.00  0.00    -0.108 NA 
HETATM    6  C   UNL     1     -10.299   7.697  66.968  1.00  0.00    -0.400 C  
HETATM    7  C   UNL     1     -10.133   8.051  68.464  1.00  0.00    -0.199 C  
HETATM    8  C   UNL     1      -9.414   4.888  67.529  1.00  0.00    -0.140 C  
HETATM    9  C   UNL     1      -8.972   7.327  69.184  1.00  0.00    -0.135 C  
ENDROOT
BRANCH   7  10
HETATM   10  O   UNL     1      -9.975   9.457  68.710  1.00  0.00    -0.169 OA 
BRANCH  10  11
HETATM   11  C   UNL     1     -11.170  10.190  69.033  1.00  0.00    -0.173 C  
BRANCH  11  12
HETATM   12  C   UNL     1     -10.871  11.684  68.989  1.00  0.00    -0.247 A  
HETATM   13  C   UNL     1     -11.534  12.601  69.815  1.00  0.00    -0.200 A  
HETATM   14  C   UNL     1      -9.899  12.163  68.093  1.00  0.00    -0.207 A  
HETATM   15  C   UNL     1     -11.201  13.956  69.781  1.00  0.00    -0.149 A  
HETATM   16  C   UNL     1      -9.566  13.517  68.062  1.00  0.00    -0.221 A  
HETATM   17  C   UNL     1     -10.210  14.411  68.913  1.00  0.00    -0.215 A  
ENDBRANCH  11  12
BRANCH  11  18
HETATM   18  C   UNL     1     -11.840   9.771  70.334  1.00  0.00    -0.264 A  
HETATM   19  C   UNL     1     -13.815   9.449  71.713  1.00  0.00    -0.357 A  
HETATM   20  C   UNL     1     -13.219   9.918  70.539  1.00  0.00    -0.007 A  
HETATM   21  C   UNL     1     -11.667   8.711  72.524  1.00  0.00    -0.330 A  
HETATM   22  C   UNL     1     -13.042   8.839  72.700  1.00  0.00    -0.315 A  
HETATM   23  C   UNL     1     -11.069   9.176  71.351  1.00  0.00    -0.415 A  
ENDBRANCH  11  18
ENDBRANCH  10  11
ENDBRANCH   7  10
TORSDOF 4
ENDMDL
MODEL      162
REMARK 921   NORMALIZED FREE ENERGY PREDICTED BY IDOCK:   -3.24 KCAL/MOL
REMARK 922        TOTAL FREE ENERGY PREDICTED BY IDOCK:   -5.41 KCAL/MOL
REMARK 923 INTER-LIGAND FREE ENERGY PREDICTED BY IDOCK:   -3.78 KCAL/MOL
REMARK 924 INTRA-LIGAND FREE ENERGY PREDICTED BY IDOCK:   -1.63 KCAL/MOL
REMARK 927      BINDING AFFINITY PREDICTED BY RF-SCORE:    0.00 PKD
ROOT
HETATM    1  C   UNL     1      -7.923   6.870  72.112  1.00  0.00    -0.094 C  
HETATM    2  C   UNL     1      -8.421   6.031  70.931  1.00  0.00    -0.127 C  
HETATM    3  C   UNL     1      -9.911   5.831  71.205  1.00  0.00    -0.244 C  
HETATM    4  C   UNL     1     -10.157   6.570  72.524  1.00  0.00    -0.172 C  
HETATM    5  N   UNL     1      -8.848   6.446  73.166  1.00  0.00    -0.129 NA 
HETATM    6  C   UNL     1     -10.562   8.026  72.267  1.00  0.00    -0.356 C  
HETATM    7  C   UNL     1      -9.450   8.931  71.689  1.00  0.00    -0.281 C  
HETATM    8  C   UNL     1      -8.705   7.127  74.442  1.00  0.00    -0.203 C  
HETATM    9  C   UNL     1      -8.015   8.376  71.826  1.00  0.00    -0.173 C  
ENDROOT
BRANCH   7  10
HETATM   10  O   UNL     1      -9.644   9.272  70.307  1.00  0.00    -0.200 OA 
BRANCH  10  11
HETATM   11  C   UNL     1      -8.458   9.382  69.500  1.00  0.00    -0.152 C  
BRANCH  11  12
HETATM   12  C   UNL     1      -8.371  10.791  68.924  1.00  0.00    -0.147 A  
HETATM   13  C   UNL     1      -7.167  11.505  68.881  1.00  0.00    -0.117 A  
HETATM   14  C   UNL     1      -9.533  11.397  68.417  1.00  0.00    -0.194 A  
HETATM   15  C   UNL     1      -7.115  12.775  68.303  1.00  0.00    -0.104 A  
HETATM   16  C   UNL     1      -9.479  12.666  67.838  1.00  0.00    -0.204 A  
HETATM   17  C   UNL     1      -8.268  13.349  67.772  1.00  0.00    -0.172 A  
ENDBRANCH  11  12
BRANCH  11  18
HETATM   18  C   UNL     1      -8.314   8.309  68.431  1.00  0.00    -0.132 A  
HETATM   19  C   UNL     1      -6.961   6.860  67.026  1.00  0.00    -0.070 A  
HETATM   20  C   UNL     1      -7.062   7.904  67.948  1.00  0.00    -0.086 A  
HETATM   21  C   UNL     1      -9.361   6.623  67.012  1.00  0.00    -0.160 A  
HETATM   22  C   UNL     1      -8.108   6.214  66.566  1.00  0.00    -0.110 A  
HETATM   23  C   UNL     1      -9.465   7.664  67.936  1.00  0.00    -0.156 A  
ENDBRANCH  11  18
ENDBRANCH  10  11
ENDBRANCH   7  10
TORSDOF 4
ENDMDL
MODEL      163
REMARK 921   NORMALIZED FREE ENERGY PREDICTED BY IDOCK:   -3.19 KCAL/MOL
REMARK 922        TOTAL FREE ENERGY PREDICTED BY IDOCK:   -5.34 KCAL/MOL
REMARK 923 INTER-LIGAND FREE ENERGY PREDICTED BY IDOCK:   -4.52 KCAL/MOL
REMARK 924 INTRA-LIGAND FREE ENERGY PREDICTED BY IDOCK:   -0.82 KCAL/MOL
REMARK 927      BINDING AFFINITY PREDICTED BY RF-SCORE:    0.00 PKD
ROOT
HETATM    1  C   UNL     1      -9.731   7.541  71.575  1.00  0.00    -0.165 C  
HETATM    2  C   UNL     1      -9.330   6.101  71.912  1.00  0.00    -0.157 C  
HETATM    3  C   UNL     1     -10.449   5.244  71.320  1.00  0.00    -0.274 C  
HETATM    4  C   UNL     1     -11.409   6.256  70.688  1.00  0.00    -0.343 C  
HETATM    5  N   UNL     1     -11.191   7.424  71.543  1.00  0.00    -0.240 NA 
HETATM    6  C   UNL     1     -11.046   6.512  69.221  1.00  0.00    -0.393 C  
HETATM    7  C   UNL     1      -9.716   7.266  68.989  1.00  0.00    -0.152 C  
HETATM    8  C   UNL     1     -11.912   8.627  71.161  1.00  0.00    -0.279 C  
HETATM    9  C   UNL     1      -9.153   7.998  70.228  1.00  0.00    -0.148 C  
ENDROOT
BRANCH   7  10
HETATM   10  O   UNL     1      -8.665   6.436  68.471  1.00  0.00    -0.121 OA 
BRANCH  10  11
HETATM   11  C   UNL     1      -8.210   6.734  67.139  1.00  0.00    -0.121 C  
BRANCH  11  12
HETATM   12  C   UNL     1      -8.562   8.177  66.798  1.00  0.00    -0.136 A  
HETATM   13  C   UNL     1      -9.786   8.527  66.214  1.00  0.00    -0.285 A  
HETATM   14  C   UNL     1      -7.633   9.194  67.078  1.00  0.00    -0.091 A  
HETATM   15  C   UNL     1     -10.094   9.864  65.959  1.00  0.00    -0.314 A  
HETATM   16  C   UNL     1      -7.943  10.531  66.824  1.00  0.00    -0.121 A  
HETATM   17  C   UNL     1      -9.178  10.865  66.274  1.00  0.00    -0.197 A  
ENDBRANCH  11  12
BRANCH  11  18
HETATM   18  C   UNL     1      -8.680   5.755  66.073  1.00  0.00    -0.146 A  
HETATM   19  C   UNL     1     -10.249   4.098  65.237  1.00  0.00    -0.204 A  
HETATM   20  C   UNL     1      -9.795   4.927  66.265  1.00  0.00    -0.225 A  
HETATM   21  C   UNL     1      -8.464   4.870  63.810  1.00  0.00    -0.133 A  
HETATM   22  C   UNL     1      -9.590   4.077  64.008  1.00  0.00    -0.160 A  
HETATM   23  C   UNL     1      -8.010   5.702  64.835  1.00  0.00    -0.117 A  
ENDBRANCH  11  18
ENDBRANCH  10  11
ENDBRANCH   7  10
TORSDOF 4
ENDMDL
MODEL      164
REMARK 921   NORMALIZED FREE ENERGY PREDICTED BY IDOCK:   -3.17 KCAL/MOL
REMARK 922        TOTAL FREE ENERGY PREDICTED BY IDOCK:   -5.33 KCAL/MOL
REMARK 923 INTER-LIGAND FREE ENERGY PREDICTED BY IDOCK:   -4.67 KCAL/MOL
REMARK 924 INTRA-LIGAND FREE ENERGY PREDICTED BY IDOCK:   -0.66 KCAL/MOL
REMARK 927      BINDING AFFINITY PREDICTED BY RF-SCORE:    0.00 PKD
ROOT
HETATM    1  C   UNL     1     -12.033  14.394  72.749  1.00  0.00     0.220 C  
HETATM    2  C   UNL     1     -13.178  13.470  72.323  1.00  0.00    -0.571 C  
HETATM    3  C   UNL     1     -14.291  14.418  71.879  1.00  0.00    -0.627 C  
HETATM    4  C   UNL     1     -13.701  15.817  72.083  1.00  0.00    -0.360 C  
HETATM    5  N   UNL     1     -12.777  15.575  73.193  1.00  0.00    -0.423 NA 
HETATM    6  C   UNL     1     -12.995  16.304  70.812  1.00  0.00     1.358 C  
HETATM    7  C   UNL     1     -11.698  15.549  70.444  1.00  0.00    -0.339 C  
HETATM    8  C   UNL     1     -11.970  16.713  73.600  1.00  0.00    -0.216 C  
HETATM    9  C   UNL     1     -11.083  14.706  71.584  1.00  0.00     0.538 C  
ENDROOT
BRANCH   7  10
HETATM   10  O   UNL     1     -11.837  14.686  69.304  1.00  0.00    -0.294 OA 
BRANCH  10  11
HETATM   11  C   UNL     1     -10.761  14.704  68.350  1.00  0.00    -0.241 C  
BRANCH  11  12
HETATM   12  C   UNL     1     -10.225  16.126  68.223  1.00  0.00    -0.248 A  
HETATM   13  C   UNL     1     -10.898  17.113  67.491  1.00  0.00    -0.203 A  
HETATM   14  C   UNL     1      -9.018  16.463  68.860  1.00  0.00    -0.256 A  
HETATM   15  C   UNL     1     -10.403  18.417  67.436  1.00  0.00    -0.415 A  
HETATM   16  C   UNL     1      -8.525  17.768  68.805  1.00  0.00    -0.214 A  
HETATM   17  C   UNL     1      -9.224  18.746  68.101  1.00  0.00    -0.348 A  
ENDBRANCH  11  12
BRANCH  11  18
HETATM   18  C   UNL     1     -11.098  14.090  66.999  1.00  0.00    -0.312 A  
HETATM   19  C   UNL     1     -12.417  14.005  64.959  1.00  0.00    -0.446 A  
HETATM   20  C   UNL     1     -12.183  14.536  66.230  1.00  0.00    -0.270 A  
HETATM   21  C   UNL     1     -10.516  12.541  65.206  1.00  0.00    -0.313 A  
HETATM   22  C   UNL     1     -11.579  13.016  64.444  1.00  0.00    -0.418 A  
HETATM   23  C   UNL     1     -10.278  13.071  66.475  1.00  0.00    -0.270 A  
ENDBRANCH  11  18
ENDBRANCH  10  11
ENDBRANCH   7  10
TORSDOF 4
ENDMDL
MODEL      165
REMARK 921   NORMALIZED FREE ENERGY PREDICTED BY IDOCK:   -3.15 KCAL/MOL
REMARK 922        TOTAL FREE ENERGY PREDICTED BY IDOCK:   -5.29 KCAL/MOL
REMARK 923 INTER-LIGAND FREE ENERGY PREDICTED BY IDOCK:   -3.90 KCAL/MOL
REMARK 924 INTRA-LIGAND FREE ENERGY PREDICTED BY IDOCK:   -1.40 KCAL/MOL
REMARK 927      BINDING AFFINITY PREDICTED BY RF-SCORE:    0.00 PKD
ROOT
HETATM    1  C   UNL     1      -8.966   3.833  66.785  1.00  0.00    -0.141 C  
HETATM    2  C   UNL     1      -7.489   4.165  67.013  1.00  0.00    -0.077 C  
HETATM    3  C   UNL     1      -7.211   5.342  66.078  1.00  0.00    -0.073 C  
HETATM    4  C   UNL     1      -8.551   5.596  65.380  1.00  0.00    -0.150 C  
HETATM    5  N   UNL     1      -9.135   4.254  65.392  1.00  0.00    -0.133 NA 
HETATM    6  C   UNL     1      -9.387   6.619  66.159  1.00  0.00    -0.097 C  
HETATM    7  C   UNL     1      -9.917   6.136  67.529  1.00  0.00    -0.137 C  
HETATM    8  C   UNL     1     -10.483   4.149  64.860  1.00  0.00    -0.173 C  
HETATM    9  C   UNL     1      -9.884   4.605  67.743  1.00  0.00    -0.183 C  
ENDROOT
BRANCH   7  10
HETATM   10  O   UNL     1      -9.250   6.737  68.650  1.00  0.00    -0.134 OA 
BRANCH  10  11
HETATM   11  C   UNL     1      -9.394   6.069  69.916  1.00  0.00    -0.148 C  
BRANCH  11  12
HETATM   12  C   UNL     1     -10.426   6.808  70.760  1.00  0.00    -0.242 A  
HETATM   13  C   UNL     1     -11.803   6.621  70.586  1.00  0.00    -0.443 A  
HETATM   14  C   UNL     1      -9.987   7.707  71.747  1.00  0.00    -0.208 A  
HETATM   15  C   UNL     1     -12.718   7.279  71.409  1.00  0.00    -0.427 A  
HETATM   16  C   UNL     1     -10.903   8.363  72.570  1.00  0.00    -0.375 A  
HETATM   17  C   UNL     1     -12.268   8.141  72.407  1.00  0.00    -0.374 A  
ENDBRANCH  11  12
BRANCH  11  18
HETATM   18  C   UNL     1      -8.089   5.839  70.665  1.00  0.00    -0.117 A  
HETATM   19  C   UNL     1      -5.800   6.449  71.206  1.00  0.00    -0.028 A  
HETATM   20  C   UNL     1      -6.956   6.634  70.444  1.00  0.00    -0.063 A  
HETATM   21  C   UNL     1      -6.862   4.643  72.401  1.00  0.00    -0.056 A  
HETATM   22  C   UNL     1      -5.756   5.461  72.189  1.00  0.00    -0.018 A  
HETATM   23  C   UNL     1      -8.020   4.828  71.644  1.00  0.00    -0.103 A  
ENDBRANCH  11  18
ENDBRANCH  10  11
ENDBRANCH   7  10
TORSDOF 4
ENDMDL
MODEL      166
REMARK 921   NORMALIZED FREE ENERGY PREDICTED BY IDOCK:   -3.15 KCAL/MOL
REMARK 922        TOTAL FREE ENERGY PREDICTED BY IDOCK:   -5.29 KCAL/MOL
REMARK 923 INTER-LIGAND FREE ENERGY PREDICTED BY IDOCK:   -4.32 KCAL/MOL
REMARK 924 INTRA-LIGAND FREE ENERGY PREDICTED BY IDOCK:   -0.97 KCAL/MOL
REMARK 927      BINDING AFFINITY PREDICTED BY RF-SCORE:    0.00 PKD
ROOT
HETATM    1  C   UNL     1      -6.423   7.083  66.965  1.00  0.00    -0.050 C  
HETATM    2  C   UNL     1      -5.927   8.398  66.357  1.00  0.00    -0.048 C  
HETATM    3  C   UNL     1      -6.878   8.663  65.189  1.00  0.00    -0.068 C  
HETATM    4  C   UNL     1      -7.848   7.477  65.214  1.00  0.00    -0.120 C  
HETATM    5  N   UNL     1      -7.001   6.431  65.787  1.00  0.00    -0.059 NA 
HETATM    6  C   UNL     1      -9.075   7.794  66.077  1.00  0.00    -0.169 C  
HETATM    7  C   UNL     1      -8.805   7.914  67.594  1.00  0.00    -0.128 C  
HETATM    8  C   UNL     1      -7.653   5.155  66.029  1.00  0.00    -0.087 C  
HETATM    9  C   UNL     1      -7.462   7.316  68.071  1.00  0.00    -0.102 C  
ENDROOT
BRANCH   7  10
HETATM   10  O   UNL     1      -8.869   9.262  68.086  1.00  0.00    -0.128 OA 
BRANCH  10  11
HETATM   11  C   UNL     1      -9.983   9.581  68.940  1.00  0.00    -0.179 C  
BRANCH  11  12
HETATM   12  C   UNL     1     -10.246  11.081  68.884  1.00  0.00    -0.218 A  
HETATM   13  C   UNL     1      -9.242  12.002  68.558  1.00  0.00    -0.116 A  
HETATM   14  C   UNL     1     -11.536  11.562  69.167  1.00  0.00    -0.382 A  
HETATM   15  C   UNL     1      -9.531  13.365  68.471  1.00  0.00    -0.121 A  
HETATM   16  C   UNL     1     -11.824  12.924  69.077  1.00  0.00    -0.352 A  
HETATM   17  C   UNL     1     -10.823  13.823  68.718  1.00  0.00    -0.281 A  
ENDBRANCH  11  12
BRANCH  11  18
HETATM   18  C   UNL     1      -9.856   9.067  70.368  1.00  0.00    -0.242 A  
HETATM   19  C   UNL     1      -8.529   8.478  72.316  1.00  0.00    -0.216 A  
HETATM   20  C   UNL     1      -8.609   8.873  70.979  1.00  0.00    -0.255 A  
HETATM   21  C   UNL     1     -10.936   8.421  72.457  1.00  0.00    -0.388 A  
HETATM   22  C   UNL     1      -9.690   8.261  73.057  1.00  0.00    -0.276 A  
HETATM   23  C   UNL     1     -11.019   8.819  71.122  1.00  0.00    -0.334 A  
ENDBRANCH  11  18
ENDBRANCH  10  11
ENDBRANCH   7  10
TORSDOF 4
ENDMDL
MODEL      167
REMARK 921   NORMALIZED FREE ENERGY PREDICTED BY IDOCK:   -3.14 KCAL/MOL
REMARK 922        TOTAL FREE ENERGY PREDICTED BY IDOCK:   -5.28 KCAL/MOL
REMARK 923 INTER-LIGAND FREE ENERGY PREDICTED BY IDOCK:   -4.24 KCAL/MOL
REMARK 924 INTRA-LIGAND FREE ENERGY PREDICTED BY IDOCK:   -1.04 KCAL/MOL
REMARK 927      BINDING AFFINITY PREDICTED BY RF-SCORE:    0.00 PKD
ROOT
HETATM    1  C   UNL     1      -9.997  13.802  65.712  1.00  0.00    -0.275 C  
HETATM    2  C   UNL     1      -9.276  14.387  66.930  1.00  0.00    -0.269 C  
HETATM    3  C   UNL     1     -10.334  14.394  68.034  1.00  0.00    -0.227 C  
HETATM    4  C   UNL     1     -11.583  13.812  67.365  1.00  0.00    -0.362 C  
HETATM    5  N   UNL     1     -11.376  14.221  65.975  1.00  0.00    -0.328 NA 
HETATM    6  C   UNL     1     -11.639  12.290  67.540  1.00  0.00    -0.422 C  
HETATM    7  C   UNL     1     -10.562  11.495  66.767  1.00  0.00    -0.250 C  
HETATM    8  C   UNL     1     -12.370  13.750  65.025  1.00  0.00    -0.428 C  
HETATM    9  C   UNL     1      -9.854  12.276  65.637  1.00  0.00    -0.247 C  
ENDROOT
BRANCH   7  10
HETATM   10  O   UNL     1      -9.538  10.943  67.609  1.00  0.00    -0.161 OA 
BRANCH  10  11
HETATM   11  C   UNL     1      -8.177  11.192  67.213  1.00  0.00    -0.136 C  
BRANCH  11  12
HETATM   12  C   UNL     1      -7.703  10.063  66.305  1.00  0.00    -0.105 A  
HETATM   13  C   UNL     1      -8.018   8.722  66.558  1.00  0.00    -0.103 A  
HETATM   14  C   UNL     1      -6.925  10.372  65.176  1.00  0.00    -0.082 A  
HETATM   15  C   UNL     1      -7.607   7.719  65.679  1.00  0.00    -0.085 A  
HETATM   16  C   UNL     1      -6.516   9.368  64.297  1.00  0.00    -0.090 A  
HETATM   17  C   UNL     1      -6.866   8.043  64.544  1.00  0.00    -0.063 A  
ENDBRANCH  11  12
BRANCH  11  18
HETATM   18  C   UNL     1      -7.217  11.452  68.365  1.00  0.00    -0.087 A  
HETATM   19  C   UNL     1      -6.153  10.796  70.449  1.00  0.00    -0.135 A  
HETATM   20  C   UNL     1      -7.101  10.570  69.448  1.00  0.00    -0.110 A  
HETATM   21  C   UNL     1      -5.438  12.812  69.333  1.00  0.00    -0.079 A  
HETATM   22  C   UNL     1      -5.316  11.910  70.386  1.00  0.00    -0.131 A  
HETATM   23  C   UNL     1      -6.383  12.587  68.330  1.00  0.00    -0.064 A  
ENDBRANCH  11  18
ENDBRANCH  10  11
ENDBRANCH   7  10
TORSDOF 4
ENDMDL
MODEL      168
REMARK 921   NORMALIZED FREE ENERGY PREDICTED BY IDOCK:   -3.12 KCAL/MOL
REMARK 922        TOTAL FREE ENERGY PREDICTED BY IDOCK:   -5.25 KCAL/MOL
REMARK 923 INTER-LIGAND FREE ENERGY PREDICTED BY IDOCK:   -4.82 KCAL/MOL
REMARK 924 INTRA-LIGAND FREE ENERGY PREDICTED BY IDOCK:   -0.43 KCAL/MOL
REMARK 927      BINDING AFFINITY PREDICTED BY RF-SCORE:    0.00 PKD
ROOT
HETATM    1  C   UNL     1      -9.114   5.758  72.455  1.00  0.00    -0.136 C  
HETATM    2  C   UNL     1     -10.423   5.088  72.026  1.00  0.00    -0.269 C  
HETATM    3  C   UNL     1     -11.518   6.023  72.540  1.00  0.00    -0.336 C  
HETATM    4  C   UNL     1     -10.755   7.160  73.226  1.00  0.00    -0.361 C  
HETATM    5  N   UNL     1      -9.545   6.464  73.665  1.00  0.00    -0.154 NA 
HETATM    6  C   UNL     1     -10.466   8.298  72.240  1.00  0.00    -0.392 C  
HETATM    7  C   UNL     1      -9.449   7.967  71.125  1.00  0.00    -0.158 C  
HETATM    8  C   UNL     1      -8.537   7.294  74.304  1.00  0.00    -0.204 C  
HETATM    9  C   UNL     1      -8.579   6.715  71.381  1.00  0.00    -0.125 C  
ENDROOT
BRANCH   7  10
HETATM   10  O   UNL     1     -10.046   7.811  69.828  1.00  0.00    -0.187 OA 
BRANCH  10  11
HETATM   11  C   UNL     1      -9.477   8.593  68.762  1.00  0.00    -0.143 C  
BRANCH  11  12
HETATM   12  C   UNL     1      -8.027   8.920  69.097  1.00  0.00    -0.105 A  
HETATM   13  C   UNL     1      -7.677  10.000  69.918  1.00  0.00    -0.183 A  
HETATM   14  C   UNL     1      -7.003   8.115  68.569  1.00  0.00    -0.072 A  
HETATM   15  C   UNL     1      -6.341  10.241  70.242  1.00  0.00    -0.123 A  
HETATM   16  C   UNL     1      -5.667   8.356  68.896  1.00  0.00    -0.039 A  
HETATM   17  C   UNL     1      -5.339   9.414  69.740  1.00  0.00    -0.033 A  
ENDBRANCH  11  12
BRANCH  11  18
HETATM   18  C   UNL     1     -10.278   9.830  68.384  1.00  0.00    -0.210 A  
HETATM   19  C   UNL     1     -11.035  11.472  66.759  1.00  0.00    -0.347 A  
HETATM   20  C   UNL     1     -10.226  10.384  67.097  1.00  0.00    -0.271 A  
HETATM   21  C   UNL     1     -11.940  11.508  68.995  1.00  0.00    -0.377 A  
HETATM   22  C   UNL     1     -11.897  12.027  67.704  1.00  0.00    -0.294 A  
HETATM   23  C   UNL     1     -11.135  10.420  69.334  1.00  0.00    -0.304 A  
ENDBRANCH  11  18
ENDBRANCH  10  11
ENDBRANCH   7  10
TORSDOF 4
ENDMDL
MODEL      169
REMARK 921   NORMALIZED FREE ENERGY PREDICTED BY IDOCK:   -3.08 KCAL/MOL
REMARK 922        TOTAL FREE ENERGY PREDICTED BY IDOCK:   -5.21 KCAL/MOL
REMARK 923 INTER-LIGAND FREE ENERGY PREDICTED BY IDOCK:   -3.87 KCAL/MOL
REMARK 924 INTRA-LIGAND FREE ENERGY PREDICTED BY IDOCK:   -1.34 KCAL/MOL
REMARK 927      BINDING AFFINITY PREDICTED BY RF-SCORE:    0.00 PKD
ROOT
HETATM    1  C   UNL     1      -9.352   4.226  67.485  1.00  0.00    -0.162 C  
HETATM    2  C   UNL     1      -7.886   4.577  67.761  1.00  0.00    -0.085 C  
HETATM    3  C   UNL     1      -7.534   5.615  66.697  1.00  0.00    -0.087 C  
HETATM    4  C   UNL     1      -8.824   5.782  65.888  1.00  0.00    -0.150 C  
HETATM    5  N   UNL     1      -9.427   4.457  66.041  1.00  0.00    -0.158 NA 
HETATM    6  C   UNL     1      -9.692   6.905  66.468  1.00  0.00    -0.185 C  
HETATM    7  C   UNL     1     -10.313   6.613  67.853  1.00  0.00    -0.189 C  
HETATM    8  C   UNL     1     -10.741   4.291  65.443  1.00  0.00    -0.053 C  
HETATM    9  C   UNL     1     -10.316   5.126  68.272  1.00  0.00    -0.140 C  
ENDROOT
BRANCH   7  10
HETATM   10  O   UNL     1      -9.708   7.355  68.924  1.00  0.00    -0.148 OA 
BRANCH  10  11
HETATM   11  C   UNL     1      -9.259   8.685  68.610  1.00  0.00    -0.138 C  
BRANCH  11  12
HETATM   12  C   UNL     1      -7.890   8.916  69.240  1.00  0.00    -0.096 A  
HETATM   13  C   UNL     1      -7.632  10.004  70.084  1.00  0.00    -0.168 A  
HETATM   14  C   UNL     1      -6.850   8.010  68.971  1.00  0.00    -0.057 A  
HETATM   15  C   UNL     1      -6.380  10.158  70.681  1.00  0.00    -0.093 A  
HETATM   16  C   UNL     1      -5.599   8.163  69.570  1.00  0.00    -0.026 A  
HETATM   17  C   UNL     1      -5.368   9.232  70.433  1.00  0.00    -0.031 A  
ENDBRANCH  11  12
BRANCH  11  18
HETATM   18  C   UNL     1     -10.249   9.789  68.955  1.00  0.00    -0.214 A  
HETATM   19  C   UNL     1     -11.803  10.864  70.483  1.00  0.00    -0.457 A  
HETATM   20  C   UNL     1     -10.962   9.795  70.162  1.00  0.00    -0.339 A  
HETATM   21  C   UNL     1     -11.272  11.928  68.385  1.00  0.00    -0.312 A  
HETATM   22  C   UNL     1     -11.950  11.933  69.600  1.00  0.00    -0.365 A  
HETATM   23  C   UNL     1     -10.430  10.863  68.062  1.00  0.00    -0.222 A  
ENDBRANCH  11  18
ENDBRANCH  10  11
ENDBRANCH   7  10
TORSDOF 4
ENDMDL
MODEL      170
REMARK 921   NORMALIZED FREE ENERGY PREDICTED BY IDOCK:   -3.01 KCAL/MOL
REMARK 922        TOTAL FREE ENERGY PREDICTED BY IDOCK:   -5.12 KCAL/MOL
REMARK 923 INTER-LIGAND FREE ENERGY PREDICTED BY IDOCK:   -4.12 KCAL/MOL
REMARK 924 INTRA-LIGAND FREE ENERGY PREDICTED BY IDOCK:   -1.00 KCAL/MOL
REMARK 927      BINDING AFFINITY PREDICTED BY RF-SCORE:    0.00 PKD
ROOT
HETATM    1  C   UNL     1     -13.338  14.159  70.342  1.00  0.00     0.296 C  
HETATM    2  C   UNL     1     -13.695  15.579  70.791  1.00  0.00    -0.050 C  
HETATM    3  C   UNL     1     -12.661  15.912  71.866  1.00  0.00    -0.502 C  
HETATM    4  C   UNL     1     -11.787  14.657  71.955  1.00  0.00    -0.189 C  
HETATM    5  N   UNL     1     -12.744  13.619  71.568  1.00  0.00    -0.348 NA 
HETATM    6  C   UNL     1     -10.592  14.754  70.999  1.00  0.00     0.556 C  
HETATM    7  C   UNL     1     -10.940  14.699  69.494  1.00  0.00    -0.245 C  
HETATM    8  C   UNL     1     -12.207  12.272  71.469  1.00  0.00     0.413 C  
HETATM    9  C   UNL     1     -12.351  14.159  69.166  1.00  0.00    -0.173 C  
ENDROOT
BRANCH   7  10
HETATM   10  O   UNL     1     -10.801  15.961  68.823  1.00  0.00    -0.251 OA 
BRANCH  10  11
HETATM   11  C   UNL     1      -9.542  16.639  68.984  1.00  0.00    -0.246 C  
BRANCH  11  12
HETATM   12  C   UNL     1      -9.545  17.911  68.145  1.00  0.00    -0.306 A  
HETATM   13  C   UNL     1      -8.725  19.006  68.449  1.00  0.00    -0.381 A  
HETATM   14  C   UNL     1     -10.395  17.995  67.029  1.00  0.00    -0.377 A  
HETATM   15  C   UNL     1      -8.720  20.137  67.632  1.00  0.00    -0.380 A  
HETATM   16  C   UNL     1     -10.387  19.126  66.211  1.00  0.00    -0.553 A  
HETATM   17  C   UNL     1      -9.541  20.192  66.508  1.00  0.00    -0.529 A  
ENDBRANCH  11  12
BRANCH  11  18
HETATM   18  C   UNL     1      -8.317  15.774  68.721  1.00  0.00    -0.195 A  
HETATM   19  C   UNL     1      -6.151  14.884  69.369  1.00  0.00    -0.109 A  
HETATM   20  C   UNL     1      -7.224  15.749  69.598  1.00  0.00    -0.134 A  
HETATM   21  C   UNL     1      -7.215  14.075  67.361  1.00  0.00    -0.117 A  
HETATM   22  C   UNL     1      -6.151  14.041  68.257  1.00  0.00    -0.117 A  
HETATM   23  C   UNL     1      -8.290  14.936  67.589  1.00  0.00    -0.178 A  
ENDBRANCH  11  18
ENDBRANCH  10  11
ENDBRANCH   7  10
TORSDOF 4
ENDMDL
MODEL      171
REMARK 921   NORMALIZED FREE ENERGY PREDICTED BY IDOCK:   -2.95 KCAL/MOL
REMARK 922        TOTAL FREE ENERGY PREDICTED BY IDOCK:   -5.05 KCAL/MOL
REMARK 923 INTER-LIGAND FREE ENERGY PREDICTED BY IDOCK:   -5.13 KCAL/MOL
REMARK 924 INTRA-LIGAND FREE ENERGY PREDICTED BY IDOCK:    0.08 KCAL/MOL
REMARK 927      BINDING AFFINITY PREDICTED BY RF-SCORE:    0.00 PKD
ROOT
HETATM    1  C   UNL     1      -8.391  18.036  66.275  1.00  0.00    -0.197 C  
HETATM    2  C   UNL     1      -7.058  18.000  67.029  1.00  0.00    -0.218 C  
HETATM    3  C   UNL     1      -7.454  18.004  68.506  1.00  0.00    -0.283 C  
HETATM    4  C   UNL     1      -8.985  18.043  68.488  1.00  0.00    -0.289 C  
HETATM    5  N   UNL     1      -9.235  18.753  67.233  1.00  0.00    -0.284 NA 
HETATM    6  C   UNL     1      -9.568  16.625  68.500  1.00  0.00    -0.241 C  
HETATM    7  C   UNL     1      -9.334  15.802  67.213  1.00  0.00    -0.211 C  
HETATM    8  C   UNL     1     -10.632  18.897  66.858  1.00  0.00    -0.421 C  
HETATM    9  C   UNL     1      -8.918  16.626  65.973  1.00  0.00    -0.248 C  
ENDROOT
BRANCH   7  10
HETATM   10  O   UNL     1      -8.369  14.750  67.368  1.00  0.00    -0.172 OA 
BRANCH  10  11
HETATM   11  C   UNL     1      -8.480  13.638  66.463  1.00  0.00     0.327 C  
BRANCH  11  12
HETATM   12  C   UNL     1      -9.921  13.526  65.979  1.00  0.00    -0.308 A  
HETATM   13  C   UNL     1     -11.012  13.755  66.826  1.00  0.00    -0.307 A  
HETATM   14  C   UNL     1     -10.169  13.182  64.638  1.00  0.00    -0.327 A  
HETATM   15  C   UNL     1     -12.317  13.689  66.337  1.00  0.00    -0.441 A  
HETATM   16  C   UNL     1     -11.475  13.119  64.150  1.00  0.00    -0.449 A  
HETATM   17  C   UNL     1     -12.547  13.383  64.998  1.00  0.00    -0.459 A  
ENDBRANCH  11  12
BRANCH  11  18
HETATM   18  C   UNL     1      -7.947  12.320  67.007  1.00  0.00    -0.123 A  
HETATM   19  C   UNL     1      -7.640   9.914  66.856  1.00  0.00    -0.095 A  
HETATM   20  C   UNL     1      -8.211  11.096  66.377  1.00  0.00    -0.164 A  
HETATM   21  C   UNL     1      -6.560  11.140  68.630  1.00  0.00    -0.059 A  
HETATM   22  C   UNL     1      -6.809   9.938  67.976  1.00  0.00    -0.072 A  
HETATM   23  C   UNL     1      -7.126  12.323  68.152  1.00  0.00    -0.091 A  
ENDBRANCH  11  18
ENDBRANCH  10  11
ENDBRANCH   7  10
TORSDOF 4
ENDMDL
MODEL      172
REMARK 921   NORMALIZED FREE ENERGY PREDICTED BY IDOCK:   -2.94 KCAL/MOL
REMARK 922        TOTAL FREE ENERGY PREDICTED BY IDOCK:   -5.03 KCAL/MOL
REMARK 923 INTER-LIGAND FREE ENERGY PREDICTED BY IDOCK:   -5.31 KCAL/MOL
REMARK 924 INTRA-LIGAND FREE ENERGY PREDICTED BY IDOCK:    0.28 KCAL/MOL
REMARK 927      BINDING AFFINITY PREDICTED BY RF-SCORE:    0.00 PKD
ROOT
HETATM    1  C   UNL     1     -11.414  13.498  66.487  1.00  0.00    -0.339 C  
HETATM    2  C   UNL     1     -10.897  12.651  65.321  1.00  0.00    -0.319 C  
HETATM    3  C   UNL     1      -9.426  12.400  65.652  1.00  0.00    -0.046 C  
HETATM    4  C   UNL     1      -9.209  13.124  66.985  1.00  0.00    -0.233 C  
HETATM    5  N   UNL     1     -10.192  14.203  66.884  1.00  0.00    -0.264 NA 
HETATM    6  C   UNL     1      -9.471  12.183  68.167  1.00  0.00    -0.205 C  
HETATM    7  C   UNL     1     -10.945  11.759  68.362  1.00  0.00    -0.231 C  
HETATM    8  C   UNL     1     -10.309  15.059  68.052  1.00  0.00    -0.236 C  
HETATM    9  C   UNL     1     -11.983  12.632  67.620  1.00  0.00    -0.309 C  
ENDROOT
BRANCH   7  10
HETATM   10  O   UNL     1     -11.204  10.393  68.004  1.00  0.00    -0.298 OA 
BRANCH  10  11
HETATM   11  C   UNL     1     -10.815   9.393  68.963  1.00  0.00    -0.136 C  
BRANCH  11  12
HETATM   12  C   UNL     1     -11.660   9.549  70.222  1.00  0.00    -0.219 A  
HETATM   13  C   UNL     1     -11.979   8.461  71.045  1.00  0.00    -0.255 A  
HETATM   14  C   UNL     1     -12.135  10.823  70.576  1.00  0.00    -0.459 A  
HETATM   15  C   UNL     1     -12.716   8.648  72.215  1.00  0.00    -0.450 A  
HETATM   16  C   UNL     1     -12.870  11.009  71.748  1.00  0.00    -0.496 A  
HETATM   17  C   UNL     1     -13.151   9.923  72.572  1.00  0.00    -0.135 A  
ENDBRANCH  11  12
BRANCH  11  18
HETATM   18  C   UNL     1      -9.324   9.351  69.267  1.00  0.00    -0.167 A  
HETATM   19  C   UNL     1      -7.448   9.573  70.796  1.00  0.00    -0.099 A  
HETATM   20  C   UNL     1      -8.812   9.700  70.525  1.00  0.00    -0.169 A  
HETATM   21  C   UNL     1      -7.063   8.783  68.549  1.00  0.00    -0.073 A  
HETATM   22  C   UNL     1      -6.576   9.106  69.812  1.00  0.00    -0.046 A  
HETATM   23  C   UNL     1      -8.426   8.906  68.277  1.00  0.00    -0.130 A  
ENDBRANCH  11  18
ENDBRANCH  10  11
ENDBRANCH   7  10
TORSDOF 4
ENDMDL
MODEL      173
REMARK 921   NORMALIZED FREE ENERGY PREDICTED BY IDOCK:   -2.91 KCAL/MOL
REMARK 922        TOTAL FREE ENERGY PREDICTED BY IDOCK:   -5.00 KCAL/MOL
REMARK 923 INTER-LIGAND FREE ENERGY PREDICTED BY IDOCK:   -4.17 KCAL/MOL
REMARK 924 INTRA-LIGAND FREE ENERGY PREDICTED BY IDOCK:   -0.84 KCAL/MOL
REMARK 927      BINDING AFFINITY PREDICTED BY RF-SCORE:    0.00 PKD
ROOT
HETATM    1  C   UNL     1     -13.636  14.301  70.787  1.00  0.00     0.067 C  
HETATM    2  C   UNL     1     -14.108  15.696  71.207  1.00  0.00    -0.141 C  
HETATM    3  C   UNL     1     -13.249  16.040  72.424  1.00  0.00    -0.357 C  
HETATM    4  C   UNL     1     -12.348  14.815  72.611  1.00  0.00    -0.287 C  
HETATM    5  N   UNL     1     -13.200  13.753  72.074  1.00  0.00    -0.400 NA 
HETATM    6  C   UNL     1     -11.035  14.978  71.837  1.00  0.00     0.241 C  
HETATM    7  C   UNL     1     -11.166  14.946  70.297  1.00  0.00    -0.231 C  
HETATM    8  C   UNL     1     -12.603  12.429  72.026  1.00  0.00     0.171 C  
HETATM    9  C   UNL     1     -12.494  14.364  69.762  1.00  0.00    -0.262 C  
ENDROOT
BRANCH   7  10
HETATM   10  O   UNL     1     -10.983  16.229  69.676  1.00  0.00    -0.312 OA 
BRANCH  10  11
HETATM   11  C   UNL     1     -10.136  16.264  68.513  1.00  0.00    -0.239 C  
BRANCH  11  12
HETATM   12  C   UNL     1      -8.683  16.112  68.945  1.00  0.00    -0.248 A  
HETATM   13  C   UNL     1      -8.104  14.859  69.186  1.00  0.00    -0.160 A  
HETATM   14  C   UNL     1      -7.892  17.262  69.107  1.00  0.00    -0.050 A  
HETATM   15  C   UNL     1      -6.757  14.755  69.535  1.00  0.00    -0.160 A  
HETATM   16  C   UNL     1      -6.544  17.157  69.454  1.00  0.00    -0.220 A  
HETATM   17  C   UNL     1      -5.975  15.902  69.657  1.00  0.00    -0.154 A  
ENDBRANCH  11  12
BRANCH  11  18
HETATM   18  C   UNL     1     -10.349  17.469  67.608  1.00  0.00    -0.360 A  
HETATM   19  C   UNL     1     -10.554  18.479  65.407  1.00  0.00     0.216 A  
HETATM   20  C   UNL     1     -10.273  17.371  66.212  1.00  0.00    -0.344 A  
HETATM   21  C   UNL     1     -10.953  19.821  67.372  1.00  0.00    -0.325 A  
HETATM   22  C   UNL     1     -10.902  19.699  65.986  1.00  0.00    -0.425 A  
HETATM   23  C   UNL     1     -10.677  18.715  68.178  1.00  0.00    -0.185 A  
ENDBRANCH  11  18
ENDBRANCH  10  11
ENDBRANCH   7  10
TORSDOF 4
ENDMDL
MODEL      174
REMARK 921   NORMALIZED FREE ENERGY PREDICTED BY IDOCK:   -2.89 KCAL/MOL
REMARK 922        TOTAL FREE ENERGY PREDICTED BY IDOCK:   -4.98 KCAL/MOL
REMARK 923 INTER-LIGAND FREE ENERGY PREDICTED BY IDOCK:   -4.59 KCAL/MOL
REMARK 924 INTRA-LIGAND FREE ENERGY PREDICTED BY IDOCK:   -0.38 KCAL/MOL
REMARK 927      BINDING AFFINITY PREDICTED BY RF-SCORE:    0.00 PKD
ROOT
HETATM    1  C   UNL     1      -9.413   6.403  72.037  1.00  0.00    -0.151 C  
HETATM    2  C   UNL     1     -10.749   5.668  71.889  1.00  0.00    -0.299 C  
HETATM    3  C   UNL     1     -11.788   6.650  72.431  1.00  0.00    -0.226 C  
HETATM    4  C   UNL     1     -10.969   7.875  72.852  1.00  0.00    -0.388 C  
HETATM    5  N   UNL     1      -9.690   7.254  73.197  1.00  0.00    -0.188 NA 
HETATM    6  C   UNL     1     -10.856   8.879  71.698  1.00  0.00    -0.420 C  
HETATM    7  C   UNL     1      -9.997   8.416  70.500  1.00  0.00    -0.185 C  
HETATM    8  C   UNL     1      -8.627   8.171  73.574  1.00  0.00    -0.246 C  
HETATM    9  C   UNL     1      -9.063   7.218  70.784  1.00  0.00    -0.152 C  
ENDROOT
BRANCH   7  10
HETATM   10  O   UNL     1     -10.766   8.088  69.332  1.00  0.00    -0.224 OA 
BRANCH  10  11
HETATM   11  C   UNL     1     -10.326   8.666  68.090  1.00  0.00    -0.216 C  
BRANCH  11  12
HETATM   12  C   UNL     1      -9.747   7.571  67.202  1.00  0.00    -0.228 A  
HETATM   13  C   UNL     1      -8.751   7.830  66.251  1.00  0.00    -0.174 A  
HETATM   14  C   UNL     1     -10.223   6.255  67.338  1.00  0.00    -0.223 A  
HETATM   15  C   UNL     1      -8.211   6.794  65.489  1.00  0.00    -0.131 A  
HETATM   16  C   UNL     1      -9.680   5.220  66.576  1.00  0.00    -0.180 A  
HETATM   17  C   UNL     1      -8.667   5.489  65.659  1.00  0.00    -0.153 A  
ENDBRANCH  11  12
BRANCH  11  18
HETATM   18  C   UNL     1      -9.381   9.850  68.240  1.00  0.00    -0.136 A  
HETATM   19  C   UNL     1      -8.919  12.235  68.184  1.00  0.00    -0.192 A  
HETATM   20  C   UNL     1      -9.785  11.163  67.959  1.00  0.00    -0.183 A  
HETATM   21  C   UNL     1      -7.208  10.711  68.939  1.00  0.00    -0.090 A  
HETATM   22  C   UNL     1      -7.635  12.010  68.683  1.00  0.00    -0.112 A  
HETATM   23  C   UNL     1      -8.073   9.638  68.718  1.00  0.00    -0.097 A  
ENDBRANCH  11  18
ENDBRANCH  10  11
ENDBRANCH   7  10
TORSDOF 4
ENDMDL
MODEL      175
REMARK 921   NORMALIZED FREE ENERGY PREDICTED BY IDOCK:   -2.82 KCAL/MOL
REMARK 922        TOTAL FREE ENERGY PREDICTED BY IDOCK:   -4.89 KCAL/MOL
REMARK 923 INTER-LIGAND FREE ENERGY PREDICTED BY IDOCK:   -3.63 KCAL/MOL
REMARK 924 INTRA-LIGAND FREE ENERGY PREDICTED BY IDOCK:   -1.25 KCAL/MOL
REMARK 927      BINDING AFFINITY PREDICTED BY RF-SCORE:    0.00 PKD
ROOT
HETATM    1  C   UNL     1     -12.081  16.181  70.752  1.00  0.00    -0.115 C  
HETATM    2  C   UNL     1     -10.974  15.881  71.767  1.00  0.00     0.231 C  
HETATM    3  C   UNL     1     -11.298  14.480  72.284  1.00  0.00     0.745 C  
HETATM    4  C   UNL     1     -12.569  14.081  71.528  1.00  0.00    -0.349 C  
HETATM    5  N   UNL     1     -13.185  15.389  71.301  1.00  0.00    -0.484 NA 
HETATM    6  C   UNL     1     -12.223  13.348  70.227  1.00  0.00    -0.405 C  
HETATM    7  C   UNL     1     -11.557  14.215  69.134  1.00  0.00    -0.307 C  
HETATM    8  C   UNL     1     -14.407  15.381  70.515  1.00  0.00     0.921 C  
HETATM    9  C   UNL     1     -11.696  15.742  69.333  1.00  0.00    -0.379 C  
ENDROOT
BRANCH   7  10
HETATM   10  O   UNL     1     -10.160  13.936  68.948  1.00  0.00    -0.199 OA 
BRANCH  10  11
HETATM   11  C   UNL     1      -9.829  12.954  67.950  1.00  0.00    -0.227 C  
BRANCH  11  12
HETATM   12  C   UNL     1      -8.316  12.896  67.783  1.00  0.00    -0.178 A  
HETATM   13  C   UNL     1      -7.654  11.729  67.381  1.00  0.00    -0.143 A  
HETATM   14  C   UNL     1      -7.553  14.049  68.039  1.00  0.00    -0.143 A  
HETATM   15  C   UNL     1      -6.271  11.725  67.194  1.00  0.00    -0.147 A  
HETATM   16  C   UNL     1      -6.171  14.045  67.848  1.00  0.00    -0.164 A  
HETATM   17  C   UNL     1      -5.532  12.885  67.416  1.00  0.00    -0.006 A  
ENDBRANCH  11  12
BRANCH  11  18
HETATM   18  C   UNL     1     -10.553  13.129  66.622  1.00  0.00    -0.284 A  
HETATM   19  C   UNL     1     -10.942  14.325  64.543  1.00  0.00    -0.311 A  
HETATM   20  C   UNL     1     -10.322  14.235  65.792  1.00  0.00    -0.341 A  
HETATM   21  C   UNL     1     -12.069  12.229  64.937  1.00  0.00    -0.422 A  
HETATM   22  C   UNL     1     -11.807  13.319  64.112  1.00  0.00    -0.497 A  
HETATM   23  C   UNL     1     -11.449  12.135  66.184  1.00  0.00    -0.429 A  
ENDBRANCH  11  18
ENDBRANCH  10  11
ENDBRANCH   7  10
TORSDOF 4
ENDMDL
MODEL      176
REMARK 921   NORMALIZED FREE ENERGY PREDICTED BY IDOCK:   -2.63 KCAL/MOL
REMARK 922        TOTAL FREE ENERGY PREDICTED BY IDOCK:   -4.65 KCAL/MOL
REMARK 923 INTER-LIGAND FREE ENERGY PREDICTED BY IDOCK:   -4.50 KCAL/MOL
REMARK 924 INTRA-LIGAND FREE ENERGY PREDICTED BY IDOCK:   -0.15 KCAL/MOL
REMARK 927      BINDING AFFINITY PREDICTED BY RF-SCORE:    0.00 PKD
ROOT
HETATM    1  C   UNL     1     -11.437   9.171  70.928  1.00  0.00    -0.296 C  
HETATM    2  C   UNL     1     -12.815   8.709  71.413  1.00  0.00    -0.294 C  
HETATM    3  C   UNL     1     -12.936   7.270  70.911  1.00  0.00    -0.125 C  
HETATM    4  C   UNL     1     -11.617   7.014  70.174  1.00  0.00    -0.225 C  
HETATM    5  N   UNL     1     -11.283   8.363  69.716  1.00  0.00    -0.055 NA 
HETATM    6  C   UNL     1     -10.566   6.427  71.123  1.00  0.00    -0.282 C  
HETATM    7  C   UNL     1     -10.047   7.390  72.215  1.00  0.00    -0.196 C  
HETATM    8  C   UNL     1     -10.010   8.497  69.027  1.00  0.00    -0.193 C  
HETATM    9  C   UNL     1     -10.339   8.887  71.963  1.00  0.00    -0.378 C  
ENDROOT
BRANCH   7  10
HETATM   10  O   UNL     1     -10.525   7.079  73.533  1.00  0.00    -0.311 OA 
BRANCH  10  11
HETATM   11  C   UNL     1      -9.673   6.254  74.347  1.00  0.00    -0.278 C  
BRANCH  11  12
HETATM   12  C   UNL     1      -8.218   6.629  74.093  1.00  0.00    -0.141 A  
HETATM   13  C   UNL     1      -7.674   7.843  74.533  1.00  0.00    -0.254 A  
HETATM   14  C   UNL     1      -7.389   5.732  73.398  1.00  0.00    -0.091 A  
HETATM   15  C   UNL     1      -6.325   8.133  74.324  1.00  0.00    -0.130 A  
HETATM   16  C   UNL     1      -6.040   6.023  73.192  1.00  0.00    -0.053 A  
HETATM   17  C   UNL     1      -5.507   7.219  73.664  1.00  0.00    -0.046 A  
ENDBRANCH  11  12
BRANCH  11  18
HETATM   18  C   UNL     1      -9.918   4.758  74.209  1.00  0.00    -0.221 A  
HETATM   19  C   UNL     1     -11.292   2.871  73.531  1.00  0.00    -0.264 A  
HETATM   20  C   UNL     1     -11.129   4.246  73.722  1.00  0.00    -0.314 A  
HETATM   21  C   UNL     1      -9.056   2.480  74.348  1.00  0.00    -0.092 A  
HETATM   22  C   UNL     1     -10.254   1.991  73.835  1.00  0.00    -0.166 A  
HETATM   23  C   UNL     1      -8.889   3.853  74.536  1.00  0.00    -0.099 A  
ENDBRANCH  11  18
ENDBRANCH  10  11
ENDBRANCH   7  10
TORSDOF 4
ENDMDL
MODEL      177
REMARK 921   NORMALIZED FREE ENERGY PREDICTED BY IDOCK:   -2.56 KCAL/MOL
REMARK 922        TOTAL FREE ENERGY PREDICTED BY IDOCK:   -4.57 KCAL/MOL
REMARK 923 INTER-LIGAND FREE ENERGY PREDICTED BY IDOCK:   -3.29 KCAL/MOL
REMARK 924 INTRA-LIGAND FREE ENERGY PREDICTED BY IDOCK:   -1.28 KCAL/MOL
REMARK 927      BINDING AFFINITY PREDICTED BY RF-SCORE:    0.00 PKD
ROOT
HETATM    1  C   UNL     1      -7.926   6.537  72.472  1.00  0.00    -0.104 C  
HETATM    2  C   UNL     1      -8.740   5.367  71.912  1.00  0.00    -0.136 C  
HETATM    3  C   UNL     1     -10.193   5.730  72.216  1.00  0.00    -0.233 C  
HETATM    4  C   UNL     1     -10.104   7.083  72.930  1.00  0.00    -0.196 C  
HETATM    5  N   UNL     1      -8.791   6.980  73.568  1.00  0.00    -0.135 NA 
HETATM    6  C   UNL     1     -10.193   8.238  71.925  1.00  0.00    -0.314 C  
HETATM    7  C   UNL     1      -8.980   8.386  70.978  1.00  0.00    -0.165 C  
HETATM    8  C   UNL     1      -8.346   8.163  74.285  1.00  0.00    -0.190 C  
HETATM    9  C   UNL     1      -7.704   7.636  71.423  1.00  0.00    -0.081 C  
ENDROOT
BRANCH   7  10
HETATM   10  O   UNL     1      -9.254   7.992  69.624  1.00  0.00    -0.152 OA 
BRANCH  10  11
HETATM   11  C   UNL     1      -8.117   7.859  68.752  1.00  0.00    -0.126 C  
BRANCH  11  12
HETATM   12  C   UNL     1      -8.317   8.742  67.526  1.00  0.00    -0.109 A  
HETATM   13  C   UNL     1      -9.573   9.250  67.171  1.00  0.00    -0.208 A  
HETATM   14  C   UNL     1      -7.209   9.061  66.723  1.00  0.00    -0.086 A  
HETATM   15  C   UNL     1      -9.711  10.095  66.068  1.00  0.00    -0.285 A  
HETATM   16  C   UNL     1      -7.348   9.907  65.621  1.00  0.00    -0.116 A  
HETATM   17  C   UNL     1      -8.598  10.431  65.301  1.00  0.00    -0.184 A  
ENDBRANCH  11  12
BRANCH  11  18
HETATM   18  C   UNL     1      -7.765   6.425  68.383  1.00  0.00    -0.104 A  
HETATM   19  C   UNL     1      -6.363   4.450  68.582  1.00  0.00    -0.036 A  
HETATM   20  C   UNL     1      -6.615   5.792  68.876  1.00  0.00    -0.054 A  
HETATM   21  C   UNL     1      -8.380   4.347  67.262  1.00  0.00    -0.100 A  
HETATM   22  C   UNL     1      -7.249   3.726  67.784  1.00  0.00    -0.062 A  
HETATM   23  C   UNL     1      -8.636   5.687  67.557  1.00  0.00    -0.108 A  
ENDBRANCH  11  18
ENDBRANCH  10  11
ENDBRANCH   7  10
TORSDOF 4
ENDMDL
MODEL      178
REMARK 921   NORMALIZED FREE ENERGY PREDICTED BY IDOCK:   -2.56 KCAL/MOL
REMARK 922        TOTAL FREE ENERGY PREDICTED BY IDOCK:   -4.57 KCAL/MOL
REMARK 923 INTER-LIGAND FREE ENERGY PREDICTED BY IDOCK:   -5.60 KCAL/MOL
REMARK 924 INTRA-LIGAND FREE ENERGY PREDICTED BY IDOCK:    1.03 KCAL/MOL
REMARK 927      BINDING AFFINITY PREDICTED BY RF-SCORE:    0.00 PKD
ROOT
HETATM    1  C   UNL     1     -11.103  14.084  70.316  1.00  0.00     0.244 C  
HETATM    2  C   UNL     1     -10.938  12.835  69.445  1.00  0.00    -0.041 C  
HETATM    3  C   UNL     1     -11.860  13.076  68.250  1.00  0.00    -0.381 C  
HETATM    4  C   UNL     1     -12.487  14.447  68.525  1.00  0.00     0.201 C  
HETATM    5  N   UNL     1     -12.478  14.473  69.988  1.00  0.00    -0.325 NA 
HETATM    6  C   UNL     1     -11.648  15.567  67.901  1.00  0.00    -0.231 C  
HETATM    7  C   UNL     1     -10.265  15.801  68.552  1.00  0.00    -0.216 C  
HETATM    8  C   UNL     1     -12.947  15.705  70.599  1.00  0.00    -0.290 C  
HETATM    9  C   UNL     1     -10.086  15.176  69.954  1.00  0.00    -0.146 C  
ENDROOT
BRANCH   7  10
HETATM   10  O   UNL     1      -9.164  15.356  67.744  1.00  0.00    -0.182 OA 
BRANCH  10  11
HETATM   11  C   UNL     1      -9.118  15.851  66.394  1.00  0.00    -0.320 C  
BRANCH  11  12
HETATM   12  C   UNL     1      -9.122  17.375  66.418  1.00  0.00    -0.274 A  
HETATM   13  C   UNL     1     -10.294  18.121  66.239  1.00  0.00    -0.407 A  
HETATM   14  C   UNL     1      -7.912  18.061  66.626  1.00  0.00    -0.278 A  
HETATM   15  C   UNL     1     -10.268  19.514  66.313  1.00  0.00    -0.582 A  
HETATM   16  C   UNL     1      -7.888  19.454  66.703  1.00  0.00    -0.291 A  
HETATM   17  C   UNL     1      -9.068  20.179  66.556  1.00  0.00    -0.411 A  
ENDBRANCH  11  12
BRANCH  11  18
HETATM   18  C   UNL     1     -10.186  15.283  65.471  1.00  0.00    -0.417 A  
HETATM   19  C   UNL     1     -11.407  13.413  64.512  1.00  0.00    -0.391 A  
HETATM   20  C   UNL     1     -10.365  13.903  65.303  1.00  0.00    -0.396 A  
HETATM   21  C   UNL     1     -12.095  15.668  64.002  1.00  0.00     0.110 A  
HETATM   22  C   UNL     1     -12.276  14.295  63.870  1.00  0.00    -0.233 A  
HETATM   23  C   UNL     1     -11.057  16.160  64.795  1.00  0.00    -0.345 A  
ENDBRANCH  11  18
ENDBRANCH  10  11
ENDBRANCH   7  10
TORSDOF 4
ENDMDL
MODEL      179
REMARK 921   NORMALIZED FREE ENERGY PREDICTED BY IDOCK:   -2.51 KCAL/MOL
REMARK 922        TOTAL FREE ENERGY PREDICTED BY IDOCK:   -4.51 KCAL/MOL
REMARK 923 INTER-LIGAND FREE ENERGY PREDICTED BY IDOCK:   -4.10 KCAL/MOL
REMARK 924 INTRA-LIGAND FREE ENERGY PREDICTED BY IDOCK:   -0.41 KCAL/MOL
REMARK 927      BINDING AFFINITY PREDICTED BY RF-SCORE:    0.00 PKD
ROOT
HETATM    1  C   UNL     1      -7.509  14.641  69.450  1.00  0.00    -0.112 C  
HETATM    2  C   UNL     1      -8.199  15.998  69.623  1.00  0.00     0.140 C  
HETATM    3  C   UNL     1      -7.079  17.023  69.444  1.00  0.00    -0.113 C  
HETATM    4  C   UNL     1      -5.829  16.176  69.183  1.00  0.00    -0.123 C  
HETATM    5  N   UNL     1      -6.157  14.954  69.918  1.00  0.00    -0.130 NA 
HETATM    6  C   UNL     1      -5.634  15.938  67.681  1.00  0.00    -0.155 C  
HETATM    7  C   UNL     1      -6.687  15.023  67.014  1.00  0.00     0.510 C  
HETATM    8  C   UNL     1      -5.188  13.876  69.811  1.00  0.00    -0.092 C  
HETATM    9  C   UNL     1      -7.528  14.169  67.989  1.00  0.00    -0.141 C  
ENDROOT
BRANCH   7  10
HETATM   10  O   UNL     1      -7.606  15.727  66.164  1.00  0.00     0.237 OA 
BRANCH  10  11
HETATM   11  C   UNL     1      -8.956  15.854  66.645  1.00  0.00    -0.268 C  
BRANCH  11  12
HETATM   12  C   UNL     1      -9.892  15.073  65.731  1.00  0.00    -0.386 A  
HETATM   13  C   UNL     1      -9.894  13.673  65.686  1.00  0.00    -0.196 A  
HETATM   14  C   UNL     1     -10.786  15.774  64.903  1.00  0.00    -0.433 A  
HETATM   15  C   UNL     1     -10.797  12.989  64.871  1.00  0.00    -0.343 A  
HETATM   16  C   UNL     1     -11.690  15.090  64.090  1.00  0.00    -0.125 A  
HETATM   17  C   UNL     1     -11.702  13.697  64.082  1.00  0.00    -0.424 A  
ENDBRANCH  11  12
BRANCH  11  18
HETATM   18  C   UNL     1      -9.421  17.287  66.862  1.00  0.00    -0.264 A  
HETATM   19  C   UNL     1      -9.202  19.681  66.507  1.00  0.00    -0.449 A  
HETATM   20  C   UNL     1      -8.706  18.384  66.359  1.00  0.00    -0.263 A  
HETATM   21  C   UNL     1     -11.118  18.827  67.698  1.00  0.00    -0.067 A  
HETATM   22  C   UNL     1     -10.411  19.902  67.167  1.00  0.00    -0.566 A  
HETATM   23  C   UNL     1     -10.627  17.529  67.549  1.00  0.00    -0.333 A  
ENDBRANCH  11  18
ENDBRANCH  10  11
ENDBRANCH   7  10
TORSDOF 4
ENDMDL
MODEL      180
REMARK 921   NORMALIZED FREE ENERGY PREDICTED BY IDOCK:   -2.50 KCAL/MOL
REMARK 922        TOTAL FREE ENERGY PREDICTED BY IDOCK:   -4.49 KCAL/MOL
REMARK 923 INTER-LIGAND FREE ENERGY PREDICTED BY IDOCK:   -3.25 KCAL/MOL
REMARK 924 INTRA-LIGAND FREE ENERGY PREDICTED BY IDOCK:   -1.25 KCAL/MOL
REMARK 927      BINDING AFFINITY PREDICTED BY RF-SCORE:    0.00 PKD
ROOT
HETATM    1  C   UNL     1      -8.774  10.134  67.725  1.00  0.00    -0.121 C  
HETATM    2  C   UNL     1      -9.936   9.949  66.743  1.00  0.00    -0.272 C  
HETATM    3  C   UNL     1      -9.268   9.859  65.371  1.00  0.00    -0.264 C  
HETATM    4  C   UNL     1      -7.771  10.000  65.668  1.00  0.00    -0.136 C  
HETATM    5  N   UNL     1      -7.800  10.825  66.877  1.00  0.00    -0.124 NA 
HETATM    6  C   UNL     1      -7.127   8.627  65.896  1.00  0.00    -0.076 C  
HETATM    7  C   UNL     1      -7.560   7.898  67.188  1.00  0.00    -0.100 C  
HETATM    8  C   UNL     1      -6.508  11.091  67.488  1.00  0.00    -0.063 C  
HETATM    9  C   UNL     1      -8.245   8.791  68.248  1.00  0.00    -0.118 C  
ENDROOT
BRANCH   7  10
HETATM   10  O   UNL     1      -8.426   6.776  66.955  1.00  0.00    -0.112 OA 
BRANCH  10  11
HETATM   11  C   UNL     1      -8.020   5.522  67.531  1.00  0.00    -0.101 C  
BRANCH  11  12
HETATM   12  C   UNL     1      -8.161   4.420  66.487  1.00  0.00    -0.102 A  
HETATM   13  C   UNL     1      -7.305   3.312  66.453  1.00  0.00    -0.075 A  
HETATM   14  C   UNL     1      -9.183   4.513  65.526  1.00  0.00    -0.152 A  
HETATM   15  C   UNL     1      -7.494   2.298  65.512  1.00  0.00    -0.067 A  
HETATM   16  C   UNL     1      -9.371   3.498  64.587  1.00  0.00    -0.150 A  
HETATM   17  C   UNL     1      -8.533   2.387  64.588  1.00  0.00    -0.090 A  
ENDBRANCH  11  12
BRANCH  11  18
HETATM   18  C   UNL     1      -8.710   5.171  68.841  1.00  0.00    -0.096 A  
HETATM   19  C   UNL     1      -8.699   4.201  71.069  1.00  0.00    -0.125 A  
HETATM   20  C   UNL     1      -8.065   4.436  69.846  1.00  0.00    -0.064 A  
HETATM   21  C   UNL     1     -10.651   5.391  70.302  1.00  0.00    -0.329 A  
HETATM   22  C   UNL     1      -9.986   4.685  71.300  1.00  0.00    -0.268 A  
HETATM   23  C   UNL     1     -10.020   5.631  69.080  1.00  0.00    -0.244 A  
ENDBRANCH  11  18
ENDBRANCH  10  11
ENDBRANCH   7  10
TORSDOF 4
ENDMDL
MODEL      181
REMARK 921   NORMALIZED FREE ENERGY PREDICTED BY IDOCK:   -2.44 KCAL/MOL
REMARK 922        TOTAL FREE ENERGY PREDICTED BY IDOCK:   -4.42 KCAL/MOL
REMARK 923 INTER-LIGAND FREE ENERGY PREDICTED BY IDOCK:   -2.93 KCAL/MOL
REMARK 924 INTRA-LIGAND FREE ENERGY PREDICTED BY IDOCK:   -1.49 KCAL/MOL
REMARK 927      BINDING AFFINITY PREDICTED BY RF-SCORE:    0.00 PKD
ROOT
HETATM    1  C   UNL     1     -10.247   4.919  67.817  1.00  0.00    -0.059 C  
HETATM    2  C   UNL     1      -9.642   4.651  69.198  1.00  0.00    -0.245 C  
HETATM    3  C   UNL     1      -8.131   4.681  68.967  1.00  0.00    -0.077 C  
HETATM    4  C   UNL     1      -7.983   4.962  67.468  1.00  0.00    -0.095 C  
HETATM    5  N   UNL     1      -9.210   4.362  66.945  1.00  0.00    -0.130 NA 
HETATM    6  C   UNL     1      -7.893   6.470  67.201  1.00  0.00    -0.108 C  
HETATM    7  C   UNL     1      -9.189   7.268  67.468  1.00  0.00    -0.130 C  
HETATM    8  C   UNL     1      -9.432   4.525  65.518  1.00  0.00    -0.173 C  
HETATM    9  C   UNL     1     -10.475   6.417  67.570  1.00  0.00    -0.290 C  
ENDROOT
BRANCH   7  10
HETATM   10  O   UNL     1      -9.129   8.090  68.645  1.00  0.00    -0.140 OA 
BRANCH  10  11
HETATM   11  C   UNL     1      -7.962   8.919  68.789  1.00  0.00    -0.102 C  
BRANCH  11  12
HETATM   12  C   UNL     1      -7.453   8.827  70.222  1.00  0.00    -0.067 A  
HETATM   13  C   UNL     1      -6.192   9.307  70.598  1.00  0.00    -0.060 A  
HETATM   14  C   UNL     1      -8.272   8.242  71.204  1.00  0.00    -0.137 A  
HETATM   15  C   UNL     1      -5.778   9.248  71.930  1.00  0.00    -0.063 A  
HETATM   16  C   UNL     1      -7.857   8.186  72.536  1.00  0.00    -0.182 A  
HETATM   17  C   UNL     1      -6.615   8.698  72.899  1.00  0.00    -0.035 A  
ENDBRANCH  11  12
BRANCH  11  18
HETATM   18  C   UNL     1      -8.146  10.359  68.331  1.00  0.00    -0.112 A  
HETATM   19  C   UNL     1      -7.478  12.280  67.000  1.00  0.00    -0.063 A  
HETATM   20  C   UNL     1      -7.237  10.985  67.465  1.00  0.00    -0.096 A  
HETATM   21  C   UNL     1      -9.518  12.375  68.283  1.00  0.00    -0.203 A  
HETATM   22  C   UNL     1      -8.621  12.971  67.401  1.00  0.00    -0.199 A  
HETATM   23  C   UNL     1      -9.282  11.080  68.747  1.00  0.00    -0.167 A  
ENDBRANCH  11  18
ENDBRANCH  10  11
ENDBRANCH   7  10
TORSDOF 4
ENDMDL
MODEL      182
REMARK 921   NORMALIZED FREE ENERGY PREDICTED BY IDOCK:   -2.33 KCAL/MOL
REMARK 922        TOTAL FREE ENERGY PREDICTED BY IDOCK:   -4.28 KCAL/MOL
REMARK 923 INTER-LIGAND FREE ENERGY PREDICTED BY IDOCK:   -5.44 KCAL/MOL
REMARK 924 INTRA-LIGAND FREE ENERGY PREDICTED BY IDOCK:    1.16 KCAL/MOL
REMARK 927      BINDING AFFINITY PREDICTED BY RF-SCORE:    0.00 PKD
ROOT
HETATM    1  C   UNL     1     -10.967  14.128  64.342  1.00  0.00    -0.225 C  
HETATM    2  C   UNL     1     -12.187  14.946  64.777  1.00  0.00    -0.291 C  
HETATM    3  C   UNL     1     -13.220  13.899  65.196  1.00  0.00     0.060 C  
HETATM    4  C   UNL     1     -12.515  12.558  64.968  1.00  0.00    -0.420 C  
HETATM    5  N   UNL     1     -11.609  12.898  63.870  1.00  0.00    -0.420 NA 
HETATM    6  C   UNL     1     -11.778  12.106  66.234  1.00  0.00    -0.389 C  
HETATM    7  C   UNL     1     -10.550  12.958  66.626  1.00  0.00    -0.261 C  
HETATM    8  C   UNL     1     -10.709  11.839  63.445  1.00  0.00    -0.402 C  
HETATM    9  C   UNL     1     -10.001  13.872  65.507  1.00  0.00    -0.275 C  
ENDROOT
BRANCH   7  10
HETATM   10  O   UNL     1     -10.766  13.784  67.781  1.00  0.00    -0.242 OA 
BRANCH  10  11
HETATM   11  C   UNL     1      -9.616  14.478  68.298  1.00  0.00    -0.212 C  
BRANCH  11  12
HETATM   12  C   UNL     1      -9.509  15.842  67.628  1.00  0.00    -0.219 A  
HETATM   13  C   UNL     1      -8.527  16.128  66.671  1.00  0.00    -0.315 A  
HETATM   14  C   UNL     1     -10.424  16.851  67.976  1.00  0.00    -0.347 A  
HETATM   15  C   UNL     1      -8.488  17.374  66.043  1.00  0.00    -0.127 A  
HETATM   16  C   UNL     1     -10.386  18.096  67.346  1.00  0.00    -0.402 A  
HETATM   17  C   UNL     1      -9.424  18.352  66.373  1.00  0.00    -0.297 A  
ENDBRANCH  11  12
BRANCH  11  18
HETATM   18  C   UNL     1      -8.314  13.692  68.225  1.00  0.00    -0.165 A  
HETATM   19  C   UNL     1      -5.932  13.543  67.768  1.00  0.00    -0.135 A  
HETATM   20  C   UNL     1      -7.128  14.265  67.747  1.00  0.00    -0.190 A  
HETATM   21  C   UNL     1      -7.083  11.642  68.708  1.00  0.00    -0.106 A  
HETATM   22  C   UNL     1      -5.908  12.237  68.257  1.00  0.00    -0.057 A  
HETATM   23  C   UNL     1      -8.278  12.363  68.690  1.00  0.00    -0.002 A  
ENDBRANCH  11  18
ENDBRANCH  10  11
ENDBRANCH   7  10
TORSDOF 4
ENDMDL
MODEL      183
REMARK 921   NORMALIZED FREE ENERGY PREDICTED BY IDOCK:   -2.17 KCAL/MOL
REMARK 922        TOTAL FREE ENERGY PREDICTED BY IDOCK:   -4.09 KCAL/MOL
REMARK 923 INTER-LIGAND FREE ENERGY PREDICTED BY IDOCK:   -4.23 KCAL/MOL
REMARK 924 INTRA-LIGAND FREE ENERGY PREDICTED BY IDOCK:    0.14 KCAL/MOL
REMARK 927      BINDING AFFINITY PREDICTED BY RF-SCORE:    0.00 PKD
ROOT
HETATM    1  C   UNL     1      -7.962   8.718  62.634  1.00  0.00    -0.150 C  
HETATM    2  C   UNL     1      -8.118   7.461  63.496  1.00  0.00    -0.006 C  
HETATM    3  C   UNL     1      -7.223   7.715  64.709  1.00  0.00    -0.067 C  
HETATM    4  C   UNL     1      -6.619   9.099  64.451  1.00  0.00    -0.080 C  
HETATM    5  N   UNL     1      -6.602   9.132  62.988  1.00  0.00    -0.090 NA 
HETATM    6  C   UNL     1      -7.492  10.200  65.065  1.00  0.00    -0.140 C  
HETATM    7  C   UNL     1      -8.866  10.409  64.389  1.00  0.00    -0.206 C  
HETATM    8  C   UNL     1      -6.147  10.376  62.391  1.00  0.00    -0.128 C  
HETATM    9  C   UNL     1      -9.007   9.787  62.981  1.00  0.00    -0.271 C  
ENDROOT
BRANCH   7  10
HETATM   10  O   UNL     1      -9.973   9.938  65.175  1.00  0.00    -0.318 OA 
BRANCH  10  11
HETATM   11  C   UNL     1     -10.326  10.729  66.324  1.00  0.00    -0.244 C  
BRANCH  11  12
HETATM   12  C   UNL     1     -10.640  12.152  65.878  1.00  0.00    -0.293 A  
HETATM   13  C   UNL     1      -9.632  13.076  65.573  1.00  0.00     0.028 A  
HETATM   14  C   UNL     1     -11.981  12.556  65.766  1.00  0.00    -0.482 A  
HETATM   15  C   UNL     1      -9.956  14.357  65.123  1.00  0.00    -0.268 A  
HETATM   16  C   UNL     1     -12.304  13.836  65.313  1.00  0.00    -0.491 A  
HETATM   17  C   UNL     1     -11.291  14.732  64.982  1.00  0.00    -0.391 A  
ENDBRANCH  11  12
BRANCH  11  18
HETATM   18  C   UNL     1      -9.314  10.687  67.460  1.00  0.00    -0.158 A  
HETATM   19  C   UNL     1      -7.855  11.785  69.063  1.00  0.00     0.064 A  
HETATM   20  C   UNL     1      -8.719  11.850  67.967  1.00  0.00    -0.173 A  
HETATM   21  C   UNL     1      -8.125   9.389  69.149  1.00  0.00    -0.107 A  
HETATM   22  C   UNL     1      -7.566  10.557  69.659  1.00  0.00    -0.134 A  
HETATM   23  C   UNL     1      -8.991   9.452  68.056  1.00  0.00    -0.128 A  
ENDBRANCH  11  18
ENDBRANCH  10  11
ENDBRANCH   7  10
TORSDOF 4
ENDMDL
MODEL      184
REMARK 921   NORMALIZED FREE ENERGY PREDICTED BY IDOCK:   -2.01 KCAL/MOL
REMARK 922        TOTAL FREE ENERGY PREDICTED BY IDOCK:   -3.89 KCAL/MOL
REMARK 923 INTER-LIGAND FREE ENERGY PREDICTED BY IDOCK:   -2.71 KCAL/MOL
REMARK 924 INTRA-LIGAND FREE ENERGY PREDICTED BY IDOCK:   -1.18 KCAL/MOL
REMARK 927      BINDING AFFINITY PREDICTED BY RF-SCORE:    0.00 PKD
ROOT
HETATM    1  C   UNL     1     -12.144  16.191  70.330  1.00  0.00    -0.010 C  
HETATM    2  C   UNL     1     -10.920  16.181  71.251  1.00  0.00     0.140 C  
HETATM    3  C   UNL     1     -11.072  14.904  72.077  1.00  0.00     0.290 C  
HETATM    4  C   UNL     1     -12.374  14.276  71.568  1.00  0.00    -0.339 C  
HETATM    5  N   UNL     1     -13.117  15.466  71.152  1.00  0.00    -0.471 NA 
HETATM    6  C   UNL     1     -12.098  13.307  70.412  1.00  0.00    -0.401 C  
HETATM    7  C   UNL     1     -11.619  13.963  69.097  1.00  0.00    -0.313 C  
HETATM    8  C   UNL     1     -14.406  15.217  70.529  1.00  0.00     0.843 C  
HETATM    9  C   UNL     1     -11.865  15.486  68.996  1.00  0.00    -0.373 C  
ENDROOT
BRANCH   7  10
HETATM   10  O   UNL     1     -10.230  13.737  68.813  1.00  0.00    -0.226 OA 
BRANCH  10  11
HETATM   11  C   UNL     1      -9.764  14.155  67.517  1.00  0.00    -0.234 C  
BRANCH  11  12
HETATM   12  C   UNL     1      -9.653  12.938  66.607  1.00  0.00    -0.257 A  
HETATM   13  C   UNL     1     -10.770  12.373  65.978  1.00  0.00    -0.294 A  
HETATM   14  C   UNL     1      -8.391  12.359  66.386  1.00  0.00     0.208 A  
HETATM   15  C   UNL     1     -10.624  11.288  65.113  1.00  0.00    -0.343 A  
HETATM   16  C   UNL     1      -8.247  11.275  65.519  1.00  0.00     0.199 A  
HETATM   17  C   UNL     1      -9.363  10.747  64.876  1.00  0.00    -0.261 A  
ENDBRANCH  11  12
BRANCH  11  18
HETATM   18  C   UNL     1      -8.486  14.982  67.538  1.00  0.00    -0.188 A  
HETATM   19  C   UNL     1      -6.348  15.587  68.523  1.00  0.00    -0.100 A  
HETATM   20  C   UNL     1      -7.549  14.874  68.575  1.00  0.00    -0.121 A  
HETATM   21  C   UNL     1      -7.006  16.566  66.419  1.00  0.00     0.046 A  
HETATM   22  C   UNL     1      -6.074  16.424  67.442  1.00  0.00    -0.199 A  
HETATM   23  C   UNL     1      -8.205  15.852  66.466  1.00  0.00    -0.307 A  
ENDBRANCH  11  18
ENDBRANCH  10  11
ENDBRANCH   7  10
TORSDOF 4
ENDMDL
MODEL      185
REMARK 921   NORMALIZED FREE ENERGY PREDICTED BY IDOCK:   -2.01 KCAL/MOL
REMARK 922        TOTAL FREE ENERGY PREDICTED BY IDOCK:   -3.89 KCAL/MOL
REMARK 923 INTER-LIGAND FREE ENERGY PREDICTED BY IDOCK:   -2.51 KCAL/MOL
REMARK 924 INTRA-LIGAND FREE ENERGY PREDICTED BY IDOCK:   -1.37 KCAL/MOL
REMARK 927      BINDING AFFINITY PREDICTED BY RF-SCORE:    0.00 PKD
ROOT
HETATM    1  C   UNL     1      -6.595  16.486  69.747  1.00  0.00    -0.089 C  
HETATM    2  C   UNL     1      -7.995  16.756  69.186  1.00  0.00    -0.126 C  
HETATM    3  C   UNL     1      -8.128  18.278  69.203  1.00  0.00     0.037 C  
HETATM    4  C   UNL     1      -6.794  18.769  69.774  1.00  0.00     0.069 C  
HETATM    5  N   UNL     1      -6.421  17.642  70.630  1.00  0.00     0.982 NA 
HETATM    6  C   UNL     1      -5.782  19.029  68.652  1.00  0.00    -0.216 C  
HETATM    7  C   UNL     1      -5.276  17.770  67.911  1.00  0.00    -0.137 C  
HETATM    8  C   UNL     1      -5.126  17.749  71.283  1.00  0.00    -0.121 C  
HETATM    9  C   UNL     1      -5.533  16.432  68.640  1.00  0.00    -0.105 C  
ENDROOT
BRANCH   7  10
HETATM   10  O   UNL     1      -5.799  17.636  66.580  1.00  0.00    -0.158 OA 
BRANCH  10  11
HETATM   11  C   UNL     1      -6.603  18.725  66.093  1.00  0.00    -0.223 C  
BRANCH  11  12
HETATM   12  C   UNL     1      -8.053  18.268  65.980  1.00  0.00    -0.115 A  
HETATM   13  C   UNL     1      -8.400  16.917  65.847  1.00  0.00    -0.013 A  
HETATM   14  C   UNL     1      -9.079  19.228  66.009  1.00  0.00    -0.146 A  
HETATM   15  C   UNL     1      -9.740  16.531  65.792  1.00  0.00    -0.237 A  
HETATM   16  C   UNL     1     -10.418  18.840  65.957  1.00  0.00    -0.483 A  
HETATM   17  C   UNL     1     -10.748  17.491  65.859  1.00  0.00    -0.119 A  
ENDBRANCH  11  12
BRANCH  11  18
HETATM   18  C   UNL     1      -6.095  19.367  64.810  1.00  0.00    -0.310 A  
HETATM   19  C   UNL     1      -5.224  19.217  62.546  1.00  0.00    -0.324 A  
HETATM   20  C   UNL     1      -5.607  18.602  63.741  1.00  0.00     0.136 A  
HETATM   21  C   UNL     1      -5.767  21.378  63.470  1.00  0.00    -0.260 A  
HETATM   22  C   UNL     1      -5.312  20.602  62.408  1.00  0.00    -0.230 A  
HETATM   23  C   UNL     1      -6.153  20.766  64.663  1.00  0.00    -0.326 A  
ENDBRANCH  11  18
ENDBRANCH  10  11
ENDBRANCH   7  10
TORSDOF 4
ENDMDL
MODEL      186
REMARK 921   NORMALIZED FREE ENERGY PREDICTED BY IDOCK:   -1.90 KCAL/MOL
REMARK 922        TOTAL FREE ENERGY PREDICTED BY IDOCK:   -3.75 KCAL/MOL
REMARK 923 INTER-LIGAND FREE ENERGY PREDICTED BY IDOCK:   -4.82 KCAL/MOL
REMARK 924 INTRA-LIGAND FREE ENERGY PREDICTED BY IDOCK:    1.07 KCAL/MOL
REMARK 927      BINDING AFFINITY PREDICTED BY RF-SCORE:    0.00 PKD
ROOT
HETATM    1  C   UNL     1     -12.162  16.086  69.992  1.00  0.00    -0.051 C  
HETATM    2  C   UNL     1     -10.947  16.312  70.897  1.00  0.00    -0.025 C  
HETATM    3  C   UNL     1     -11.075  15.245  71.983  1.00  0.00    -0.173 C  
HETATM    4  C   UNL     1     -12.355  14.486  71.621  1.00  0.00    -0.350 C  
HETATM    5  N   UNL     1     -13.124  15.535  70.949  1.00  0.00    -0.489 NA 
HETATM    6  C   UNL     1     -12.045  13.294  70.709  1.00  0.00    -0.311 C  
HETATM    7  C   UNL     1     -11.570  13.656  69.283  1.00  0.00    -0.311 C  
HETATM    8  C   UNL     1     -14.401  15.121  70.392  1.00  0.00     1.179 C  
HETATM    9  C   UNL     1     -11.853  15.112  68.847  1.00  0.00    -0.337 C  
ENDROOT
BRANCH   7  10
HETATM   10  O   UNL     1     -10.172  13.410  69.061  1.00  0.00    -0.094 OA 
BRANCH  10  11
HETATM   11  C   UNL     1      -9.703  13.547  67.708  1.00  0.00    -0.226 C  
BRANCH  11  12
HETATM   12  C   UNL     1      -9.071  14.923  67.532  1.00  0.00    -0.186 A  
HETATM   13  C   UNL     1      -8.314  15.530  68.541  1.00  0.00    -0.161 A  
HETATM   14  C   UNL     1      -9.251  15.610  66.318  1.00  0.00    -0.365 A  
HETATM   15  C   UNL     1      -7.711  16.770  68.328  1.00  0.00    -0.187 A  
HETATM   16  C   UNL     1      -8.646  16.849  66.106  1.00  0.00    -0.277 A  
HETATM   17  C   UNL     1      -7.867  17.423  67.107  1.00  0.00    -0.226 A  
ENDBRANCH  11  12
BRANCH  11  18
HETATM   18  C   UNL     1     -10.746  13.247  66.641  1.00  0.00    -0.284 A  
HETATM   19  C   UNL     1     -12.607  13.911  65.226  1.00  0.00    -0.508 A  
HETATM   20  C   UNL     1     -11.716  14.188  66.265  1.00  0.00    -0.402 A  
HETATM   21  C   UNL     1     -11.613  11.732  64.937  1.00  0.00    -0.226 A  
HETATM   22  C   UNL     1     -12.550  12.689  64.557  1.00  0.00    -0.491 A  
HETATM   23  C   UNL     1     -10.719  12.008  65.972  1.00  0.00    -0.317 A  
ENDBRANCH  11  18
ENDBRANCH  10  11
ENDBRANCH   7  10
TORSDOF 4
ENDMDL
MODEL      187
REMARK 921   NORMALIZED FREE ENERGY PREDICTED BY IDOCK:   -1.78 KCAL/MOL
REMARK 922        TOTAL FREE ENERGY PREDICTED BY IDOCK:   -3.61 KCAL/MOL
REMARK 923 INTER-LIGAND FREE ENERGY PREDICTED BY IDOCK:   -2.52 KCAL/MOL
REMARK 924 INTRA-LIGAND FREE ENERGY PREDICTED BY IDOCK:   -1.09 KCAL/MOL
REMARK 927      BINDING AFFINITY PREDICTED BY RF-SCORE:    0.00 PKD
ROOT
HETATM    1  C   UNL     1      -7.893   9.648  68.652  1.00  0.00    -0.081 C  
HETATM    2  C   UNL     1      -8.921  10.081  67.601  1.00  0.00    -0.135 C  
HETATM    3  C   UNL     1      -8.104  10.275  66.324  1.00  0.00    -0.129 C  
HETATM    4  C   UNL     1      -6.668   9.940  66.737  1.00  0.00    -0.079 C  
HETATM    5  N   UNL     1      -6.687  10.313  68.152  1.00  0.00    -0.058 NA 
HETATM    6  C   UNL     1      -6.368   8.453  66.514  1.00  0.00    -0.055 C  
HETATM    7  C   UNL     1      -7.120   7.478  67.448  1.00  0.00    -0.085 C  
HETATM    8  C   UNL     1      -5.465  10.040  68.892  1.00  0.00    -0.035 C  
HETATM    9  C   UNL     1      -7.738   8.122  68.709  1.00  0.00    -0.107 C  
ENDROOT
BRANCH   7  10
HETATM   10  O   UNL     1      -8.164   6.740  66.792  1.00  0.00    -0.111 OA 
BRANCH  10  11
HETATM   11  C   UNL     1      -7.844   5.396  66.389  1.00  0.00    -0.100 C  
BRANCH  11  12
HETATM   12  C   UNL     1      -8.420   5.136  65.002  1.00  0.00    -0.148 A  
HETATM   13  C   UNL     1      -7.978   5.832  63.869  1.00  0.00    -0.121 A  
HETATM   14  C   UNL     1      -9.427   4.168  64.848  1.00  0.00    -0.171 A  
HETATM   15  C   UNL     1      -8.495   5.534  62.608  1.00  0.00    -0.075 A  
HETATM   16  C   UNL     1      -9.941   3.870  63.586  1.00  0.00    -0.175 A  
HETATM   17  C   UNL     1      -9.467   4.547  62.465  1.00  0.00    -0.094 A  
ENDBRANCH  11  12
BRANCH  11  18
HETATM   18  C   UNL     1      -8.240   4.322  67.392  1.00  0.00    -0.099 A  
HETATM   19  C   UNL     1      -7.874   2.185  68.490  1.00  0.00    -0.057 A  
HETATM   20  C   UNL     1      -7.534   3.115  67.505  1.00  0.00    -0.062 A  
HETATM   21  C   UNL     1      -9.657   3.620  69.249  1.00  0.00    -0.185 A  
HETATM   22  C   UNL     1      -8.928   2.441  69.367  1.00  0.00    -0.166 A  
HETATM   23  C   UNL     1      -9.318   4.553  68.268  1.00  0.00    -0.190 A  
ENDBRANCH  11  18
ENDBRANCH  10  11
ENDBRANCH   7  10
TORSDOF 4
ENDMDL
MODEL      188
REMARK 921   NORMALIZED FREE ENERGY PREDICTED BY IDOCK:   -1.77 KCAL/MOL
REMARK 922        TOTAL FREE ENERGY PREDICTED BY IDOCK:   -3.59 KCAL/MOL
REMARK 923 INTER-LIGAND FREE ENERGY PREDICTED BY IDOCK:   -2.38 KCAL/MOL
REMARK 924 INTRA-LIGAND FREE ENERGY PREDICTED BY IDOCK:   -1.22 KCAL/MOL
REMARK 927      BINDING AFFINITY PREDICTED BY RF-SCORE:    0.00 PKD
ROOT
HETATM    1  C   UNL     1      -9.965  10.850  67.500  1.00  0.00    -0.174 C  
HETATM    2  C   UNL     1     -10.748  10.433  66.251  1.00  0.00    -0.107 C  
HETATM    3  C   UNL     1      -9.799  10.727  65.089  1.00  0.00    -0.333 C  
HETATM    4  C   UNL     1      -8.543  11.292  65.758  1.00  0.00    -0.067 C  
HETATM    5  N   UNL     1      -9.114  11.911  66.955  1.00  0.00    -0.185 NA 
HETATM    6  C   UNL     1      -7.545  10.173  66.081  1.00  0.00    -0.114 C  
HETATM    7  C   UNL     1      -7.987   9.191  67.190  1.00  0.00    -0.106 C  
HETATM    8  C   UNL     1      -8.157  12.490  67.883  1.00  0.00    -0.163 C  
HETATM    9  C   UNL     1      -9.149   9.687  68.081  1.00  0.00    -0.123 C  
ENDROOT
BRANCH   7  10
HETATM   10  O   UNL     1      -8.353   7.892  66.698  1.00  0.00    -0.118 OA 
BRANCH  10  11
HETATM   11  C   UNL     1      -7.328   6.882  66.729  1.00  0.00    -0.078 C  
BRANCH  11  12
HETATM   12  C   UNL     1      -7.223   6.230  65.356  1.00  0.00    -0.070 A  
HETATM   13  C   UNL     1      -6.327   6.686  64.380  1.00  0.00    -0.038 A  
HETATM   14  C   UNL     1      -8.050   5.134  65.052  1.00  0.00    -0.117 A  
HETATM   15  C   UNL     1      -6.225   6.034  63.150  1.00  0.00    -0.022 A  
HETATM   16  C   UNL     1      -7.945   4.482  63.823  1.00  0.00    -0.093 A  
HETATM   17  C   UNL     1      -7.025   4.927  62.877  1.00  0.00    -0.034 A  
ENDBRANCH  11  12
BRANCH  11  18
HETATM   18  C   UNL     1      -7.478   5.860  67.847  1.00  0.00    -0.081 A  
HETATM   19  C   UNL     1      -8.819   4.661  69.480  1.00  0.00    -0.121 A  
HETATM   20  C   UNL     1      -8.694   5.663  68.515  1.00  0.00    -0.110 A  
HETATM   21  C   UNL     1      -6.506   4.052  69.166  1.00  0.00    -0.036 A  
HETATM   22  C   UNL     1      -7.729   3.851  69.798  1.00  0.00    -0.052 A  
HETATM   23  C   UNL     1      -6.380   5.051  68.198  1.00  0.00    -0.036 A  
ENDBRANCH  11  18
ENDBRANCH  10  11
ENDBRANCH   7  10
TORSDOF 4
ENDMDL
MODEL      189
REMARK 921   NORMALIZED FREE ENERGY PREDICTED BY IDOCK:   -0.89 KCAL/MOL
REMARK 922        TOTAL FREE ENERGY PREDICTED BY IDOCK:   -2.51 KCAL/MOL
REMARK 923 INTER-LIGAND FREE ENERGY PREDICTED BY IDOCK:   -2.45 KCAL/MOL
REMARK 924 INTRA-LIGAND FREE ENERGY PREDICTED BY IDOCK:   -0.05 KCAL/MOL
REMARK 927      BINDING AFFINITY PREDICTED BY RF-SCORE:    0.00 PKD
ROOT
HETATM    1  C   UNL     1      -6.987   6.100  73.285  1.00  0.00    -0.080 C  
HETATM    2  C   UNL     1      -7.681   4.755  73.052  1.00  0.00    -0.092 C  
HETATM    3  C   UNL     1      -9.174   5.081  73.103  1.00  0.00    -0.127 C  
HETATM    4  C   UNL     1      -9.224   6.590  73.363  1.00  0.00    -0.132 C  
HETATM    5  N   UNL     1      -7.982   6.789  74.110  1.00  0.00    -0.110 NA 
HETATM    6  C   UNL     1      -9.260   7.371  72.044  1.00  0.00    -0.155 C  
HETATM    7  C   UNL     1      -7.963   7.315  71.204  1.00  0.00    -0.101 C  
HETATM    8  C   UNL     1      -7.669   8.166  74.457  1.00  0.00    -0.235 C  
HETATM    9  C   UNL     1      -6.707   6.838  71.968  1.00  0.00    -0.058 C  
ENDROOT
BRANCH   7  10
HETATM   10  O   UNL     1      -8.075   6.505  70.023  1.00  0.00    -0.117 OA 
BRANCH  10  11
HETATM   11  C   UNL     1      -7.257   6.888  68.903  1.00  0.00    -0.091 C  
BRANCH  11  12
HETATM   12  C   UNL     1      -7.479   8.365  68.600  1.00  0.00    -0.093 A  
HETATM   13  C   UNL     1      -6.632   9.087  67.749  1.00  0.00    -0.061 A  
HETATM   14  C   UNL     1      -8.568   9.030  69.190  1.00  0.00    -0.133 A  
HETATM   15  C   UNL     1      -6.892  10.426  67.457  1.00  0.00    -0.075 A  
HETATM   16  C   UNL     1      -8.828  10.369  68.896  1.00  0.00    -0.161 A  
HETATM   17  C   UNL     1      -7.996  11.063  68.021  1.00  0.00    -0.115 A  
ENDBRANCH  11  12
BRANCH  11  18
HETATM   18  C   UNL     1      -7.420   6.012  67.669  1.00  0.00    -0.078 A  
HETATM   19  C   UNL     1      -8.269   5.618  65.426  1.00  0.00    -0.132 A  
HETATM   20  C   UNL     1      -8.205   6.408  66.576  1.00  0.00    -0.113 A  
HETATM   21  C   UNL     1      -6.800   3.997  66.443  1.00  0.00    -0.058 A  
HETATM   22  C   UNL     1      -7.560   4.419  65.356  1.00  0.00    -0.085 A  
HETATM   23  C   UNL     1      -6.732   4.786  67.592  1.00  0.00    -0.051 A  
ENDBRANCH  11  18
ENDBRANCH  10  11
ENDBRANCH   7  10
TORSDOF 4
ENDMDL
MODEL      190
REMARK 921   NORMALIZED FREE ENERGY PREDICTED BY IDOCK:    0.55 KCAL/MOL
REMARK 922        TOTAL FREE ENERGY PREDICTED BY IDOCK:   -0.73 KCAL/MOL
REMARK 923 INTER-LIGAND FREE ENERGY PREDICTED BY IDOCK:   -3.37 KCAL/MOL
REMARK 924 INTRA-LIGAND FREE ENERGY PREDICTED BY IDOCK:    2.64 KCAL/MOL
REMARK 927      BINDING AFFINITY PREDICTED BY RF-SCORE:    0.00 PKD
ROOT
HETATM    1  C   UNL     1      -9.281  12.146  69.194  1.00  0.00     0.577 C  
HETATM    2  C   UNL     1      -8.228  12.360  68.103  1.00  0.00    -0.173 C  
HETATM    3  C   UNL     1      -8.659  11.434  66.967  1.00  0.00    -0.157 C  
HETATM    4  C   UNL     1      -9.929  10.755  67.492  1.00  0.00    -0.174 C  
HETATM    5  N   UNL     1      -9.676  10.760  68.933  1.00  0.00    -0.195 NA 
HETATM    6  C   UNL     1     -11.177  11.555  67.101  1.00  0.00    -0.365 C  
HETATM    7  C   UNL     1     -11.332  12.926  67.799  1.00  0.00    -0.299 C  
HETATM    8  C   UNL     1     -10.752  10.243  69.763  1.00  0.00    -0.285 C  
HETATM    9  C   UNL     1     -10.457  13.124  69.058  1.00  0.00    -0.031 C  
ENDROOT
BRANCH   7  10
HETATM   10  O   UNL     1     -11.089  14.045  66.932  1.00  0.00    -0.294 OA 
BRANCH  10  11
HETATM   11  C   UNL     1     -11.000  15.336  67.561  1.00  0.00    -0.315 C  
BRANCH  11  12
HETATM   12  C   UNL     1      -9.579  15.869  67.416  1.00  0.00    -0.221 A  
HETATM   13  C   UNL     1      -8.909  16.501  68.471  1.00  0.00    -0.228 A  
HETATM   14  C   UNL     1      -8.914  15.723  66.186  1.00  0.00    -0.372 A  
HETATM   15  C   UNL     1      -7.592  16.935  68.317  1.00  0.00    -0.202 A  
HETATM   16  C   UNL     1      -7.596  16.156  66.034  1.00  0.00     0.753 A  
HETATM   17  C   UNL     1      -6.933  16.752  67.103  1.00  0.00    -0.226 A  
ENDBRANCH  11  12
BRANCH  11  18
HETATM   18  C   UNL     1     -11.490  15.376  69.001  1.00  0.00    -0.349 A  
HETATM   19  C   UNL     1     -11.125  15.765  71.372  1.00  0.00    -0.230 A  
HETATM   20  C   UNL     1     -10.628  15.656  70.071  1.00  0.00    -0.342 A  
HETATM   21  C   UNL     1     -13.350  15.279  70.576  1.00  0.00    -0.208 A  
HETATM   22  C   UNL     1     -12.485  15.586  71.623  1.00  0.00    -0.473 A  
HETATM   23  C   UNL     1     -12.857  15.172  69.275  1.00  0.00     0.441 A  
ENDBRANCH  11  18
ENDBRANCH  10  11
ENDBRANCH   7  10
TORSDOF 4
ENDMDL
MODEL      191
REMARK 921   NORMALIZED FREE ENERGY PREDICTED BY IDOCK:    2.61 KCAL/MOL
REMARK 922        TOTAL FREE ENERGY PREDICTED BY IDOCK:    1.81 KCAL/MOL
REMARK 923 INTER-LIGAND FREE ENERGY PREDICTED BY IDOCK:    2.88 KCAL/MOL
REMARK 924 INTRA-LIGAND FREE ENERGY PREDICTED BY IDOCK:   -1.07 KCAL/MOL
REMARK 927      BINDING AFFINITY PREDICTED BY RF-SCORE:    0.00 PKD
ROOT
HETATM    1  C   UNL     1      -7.488  15.580  70.900  1.00  0.00     1.961 C  
HETATM    2  C   UNL     1      -7.446  16.654  69.809  1.00  0.00     0.497 C  
HETATM    3  C   UNL     1      -6.065  16.499  69.171  1.00  0.00    -0.162 C  
HETATM    4  C   UNL     1      -5.417  15.347  69.945  1.00  0.00    -0.114 C  
HETATM    5  N   UNL     1      -6.068  15.481  71.249  1.00  0.00     0.518 NA 
HETATM    6  C   UNL     1      -5.706  14.002  69.268  1.00  0.00    -0.084 C  
HETATM    7  C   UNL     1      -7.178  13.533  69.328  1.00  0.00     0.095 C  
HETATM    8  C   UNL     1      -5.729  14.464  72.230  1.00  0.00     0.036 C  
HETATM    9  C   UNL     1      -8.054  14.252  70.378  1.00  0.00     1.827 C  
ENDROOT
BRANCH   7  10
HETATM   10  O   UNL     1      -7.864  13.623  68.069  1.00  0.00    -0.123 OA 
BRANCH  10  11
HETATM   11  C   UNL     1      -9.239  13.199  68.055  1.00  0.00    -0.211 C  
BRANCH  11  12
HETATM   12  C   UNL     1      -9.308  11.731  67.652  1.00  0.00    -0.180 A  
HETATM   13  C   UNL     1     -10.514  11.112  67.299  1.00  0.00    -0.263 A  
HETATM   14  C   UNL     1      -8.128  10.969  67.630  1.00  0.00    -0.116 A  
HETATM   15  C   UNL     1     -10.534   9.778  66.890  1.00  0.00    -0.281 A  
HETATM   16  C   UNL     1      -8.148   9.636  67.219  1.00  0.00    -0.110 A  
HETATM   17  C   UNL     1      -9.350   9.044  66.839  1.00  0.00    -0.203 A  
ENDBRANCH  11  12
BRANCH  11  18
HETATM   18  C   UNL     1     -10.165  14.074  67.222  1.00  0.00    -0.260 A  
HETATM   19  C   UNL     1     -12.095  15.533  66.995  1.00  0.00     0.681 A  
HETATM   20  C   UNL     1     -11.311  14.671  67.765  1.00  0.00    -0.338 A  
HETATM   21  C   UNL     1     -10.634  15.194  65.106  1.00  0.00    -0.447 A  
HETATM   22  C   UNL     1     -11.752  15.801  65.670  1.00  0.00     0.477 A  
HETATM   23  C   UNL     1      -9.846  14.334  65.874  1.00  0.00    -0.322 A  
ENDBRANCH  11  18
ENDBRANCH  10  11
ENDBRANCH   7  10
TORSDOF 4
ENDMDL
MODEL      192
REMARK 921   NORMALIZED FREE ENERGY PREDICTED BY IDOCK:    3.73 KCAL/MOL
REMARK 922        TOTAL FREE ENERGY PREDICTED BY IDOCK:    3.20 KCAL/MOL
REMARK 923 INTER-LIGAND FREE ENERGY PREDICTED BY IDOCK:    1.65 KCAL/MOL
REMARK 924 INTRA-LIGAND FREE ENERGY PREDICTED BY IDOCK:    1.54 KCAL/MOL
REMARK 927      BINDING AFFINITY PREDICTED BY RF-SCORE:    0.00 PKD
ROOT
HETATM    1  C   UNL     1      -5.912  16.765  67.494  1.00  0.00    -0.152 C  
HETATM    2  C   UNL     1      -5.445  15.771  68.562  1.00  0.00    -0.102 C  
HETATM    3  C   UNL     1      -6.697  15.484  69.391  1.00  0.00    -0.169 C  
HETATM    4  C   UNL     1      -7.788  16.337  68.738  1.00  0.00    -0.216 C  
HETATM    5  N   UNL     1      -6.998  17.447  68.203  1.00  0.00    -0.185 NA 
HETATM    6  C   UNL     1      -8.522  15.546  67.649  1.00  0.00    -0.177 C  
HETATM    7  C   UNL     1      -7.687  15.220  66.390  1.00  0.00     0.756 C  
HETATM    8  C   UNL     1      -7.736  18.431  67.429  1.00  0.00    -0.223 C  
HETATM    9  C   UNL     1      -6.398  16.057  66.222  1.00  0.00     1.661 C  
ENDROOT
BRANCH   7  10
HETATM   10  O   UNL     1      -7.312  13.837  66.288  1.00  0.00     1.531 OA 
BRANCH  10  11
HETATM   11  C   UNL     1      -8.359  12.912  65.945  1.00  0.00     1.369 C  
BRANCH  11  12
HETATM   12  C   UNL     1      -9.704  13.499  66.358  1.00  0.00    -0.296 A  
HETATM   13  C   UNL     1     -10.178  13.424  67.674  1.00  0.00    -0.228 A  
HETATM   14  C   UNL     1     -10.498  14.138  65.391  1.00  0.00    -0.372 A  
HETATM   15  C   UNL     1     -11.392  14.014  68.025  1.00  0.00    -0.320 A  
HETATM   16  C   UNL     1     -11.712  14.729  65.744  1.00  0.00    -0.252 A  
HETATM   17  C   UNL     1     -12.153  14.675  67.064  1.00  0.00    -0.214 A  
ENDBRANCH  11  12
BRANCH  11  18
HETATM   18  C   UNL     1      -8.156  11.499  66.474  1.00  0.00    -0.112 A  
HETATM   19  C   UNL     1      -6.853   9.830  67.667  1.00  0.00    -0.085 A  
HETATM   20  C   UNL     1      -6.975  11.111  67.122  1.00  0.00    -0.112 A  
HETATM   21  C   UNL     1      -9.071   9.277  66.896  1.00  0.00    -0.158 A  
HETATM   22  C   UNL     1      -7.903   8.918  67.562  1.00  0.00    -0.101 A  
HETATM   23  C   UNL     1      -9.197  10.557  66.353  1.00  0.00    -0.190 A  
ENDBRANCH  11  18
ENDBRANCH  10  11
ENDBRANCH   7  10
TORSDOF 4
ENDMDL
MODEL      193
REMARK 921   NORMALIZED FREE ENERGY PREDICTED BY IDOCK:    3.86 KCAL/MOL
REMARK 922        TOTAL FREE ENERGY PREDICTED BY IDOCK:    3.35 KCAL/MOL
REMARK 923 INTER-LIGAND FREE ENERGY PREDICTED BY IDOCK:    0.23 KCAL/MOL
REMARK 924 INTRA-LIGAND FREE ENERGY PREDICTED BY IDOCK:    3.12 KCAL/MOL
REMARK 927      BINDING AFFINITY PREDICTED BY RF-SCORE:    0.00 PKD
ROOT
HETATM    1  C   UNL     1      -9.741  11.995  68.924  1.00  0.00     0.088 C  
HETATM    2  C   UNL     1      -8.329  11.901  69.511  1.00  0.00     1.056 C  
HETATM    3  C   UNL     1      -7.423  11.697  68.298  1.00  0.00    -0.097 C  
HETATM    4  C   UNL     1      -8.383  11.688  67.104  1.00  0.00    -0.164 C  
HETATM    5  N   UNL     1      -9.601  11.165  67.725  1.00  0.00    -0.169 NA 
HETATM    6  C   UNL     1      -8.561  13.100  66.534  1.00  0.00     0.153 C  
HETATM    7  C   UNL     1      -9.321  14.091  67.445  1.00  0.00    -0.220 C  
HETATM    8  C   UNL     1     -10.769  11.099  66.863  1.00  0.00    -0.274 C  
HETATM    9  C   UNL     1     -10.130  13.442  68.591  1.00  0.00    -0.162 C  
ENDROOT
BRANCH   7  10
HETATM   10  O   UNL     1      -8.478  15.094  68.036  1.00  0.00    -0.143 OA 
BRANCH  10  11
HETATM   11  C   UNL     1      -9.140  16.251  68.577  1.00  0.00    -0.216 C  
BRANCH  11  12
HETATM   12  C   UNL     1     -10.312  15.801  69.442  1.00  0.00    -0.263 A  
HETATM   13  C   UNL     1     -11.625  16.222  69.196  1.00  0.00    -0.213 A  
HETATM   14  C   UNL     1     -10.073  14.935  70.523  1.00  0.00     0.494 A  
HETATM   15  C   UNL     1     -12.679  15.753  69.981  1.00  0.00     0.040 A  
HETATM   16  C   UNL     1     -11.128  14.465  71.305  1.00  0.00     0.710 A  
HETATM   17  C   UNL     1     -12.432  14.866  71.027  1.00  0.00    -0.396 A  
ENDBRANCH  11  12
BRANCH  11  18
HETATM   18  C   UNL     1      -9.549  17.291  67.543  1.00  0.00    -0.259 A  
HETATM   19  C   UNL     1     -10.412  19.482  66.942  1.00  0.00    -0.589 A  
HETATM   20  C   UNL     1     -10.123  18.516  67.909  1.00  0.00    -0.398 A  
HETATM   21  C   UNL     1      -9.601  18.008  65.212  1.00  0.00     1.530 A  
HETATM   22  C   UNL     1     -10.143  19.231  65.596  1.00  0.00    -0.040 A  
HETATM   23  C   UNL     1      -9.308  17.043  66.177  1.00  0.00    -0.245 A  
ENDBRANCH  11  18
ENDBRANCH  10  11
ENDBRANCH   7  10
TORSDOF 4
ENDMDL
MODEL      194
REMARK 921   NORMALIZED FREE ENERGY PREDICTED BY IDOCK:    9.19 KCAL/MOL
REMARK 922        TOTAL FREE ENERGY PREDICTED BY IDOCK:    9.93 KCAL/MOL
REMARK 923 INTER-LIGAND FREE ENERGY PREDICTED BY IDOCK:    5.02 KCAL/MOL
REMARK 924 INTRA-LIGAND FREE ENERGY PREDICTED BY IDOCK:    4.91 KCAL/MOL
REMARK 927      BINDING AFFINITY PREDICTED BY RF-SCORE:    0.00 PKD
ROOT
HETATM    1  C   UNL     1      -6.339  12.580  68.785  1.00  0.00    -0.079 C  
HETATM    2  C   UNL     1      -5.853  13.327  67.540  1.00  0.00    -0.050 C  
HETATM    3  C   UNL     1      -7.054  14.167  67.104  1.00  0.00     0.277 C  
HETATM    4  C   UNL     1      -8.141  13.837  68.133  1.00  0.00    -0.155 C  
HETATM    5  N   UNL     1      -7.773  12.470  68.504  1.00  0.00    -0.129 NA 
HETATM    6  C   UNL     1      -8.089  14.813  69.315  1.00  0.00    -0.088 C  
HETATM    7  C   UNL     1      -6.848  14.683  70.227  1.00  0.00     0.025 C  
HETATM    8  C   UNL     1      -8.577  11.864  69.552  1.00  0.00     1.210 C  
HETATM    9  C   UNL     1      -6.056  13.364  70.074  1.00  0.00    -0.125 C  
ENDROOT
BRANCH   7  10
HETATM   10  O   UNL     1      -5.910  15.761  70.083  1.00  0.00    -0.157 OA 
BRANCH  10  11
HETATM   11  C   UNL     1      -6.427  16.994  69.551  1.00  0.00    -0.219 C  
BRANCH  11  12
HETATM   12  C   UNL     1      -6.046  17.107  68.080  1.00  0.00    -0.128 A  
HETATM   13  C   UNL     1      -6.017  18.337  67.410  1.00  0.00    -0.165 A  
HETATM   14  C   UNL     1      -5.709  15.943  67.368  1.00  0.00    -0.089 A  
HETATM   15  C   UNL     1      -5.617  18.408  66.075  1.00  0.00    -0.208 A  
HETATM   16  C   UNL     1      -5.308  16.016  66.033  1.00  0.00     2.793 A  
HETATM   17  C   UNL     1      -5.252  17.251  65.391  1.00  0.00     0.800 A  
ENDBRANCH  11  12
BRANCH  11  18
HETATM   18  C   UNL     1      -6.049  18.236  70.346  1.00  0.00     0.118 A  
HETATM   19  C   UNL     1      -5.620  19.381  72.446  1.00  0.00     0.672 A  
HETATM   20  C   UNL     1      -6.050  18.250  71.747  1.00  0.00     1.598 A  
HETATM   21  C   UNL     1      -5.215  20.529  70.363  1.00  0.00    -0.329 A  
HETATM   22  C   UNL     1      -5.194  20.515  71.755  1.00  0.00    -0.312 A  
HETATM   23  C   UNL     1      -5.641  19.399  69.663  1.00  0.00    -0.242 A  
ENDBRANCH  11  18
ENDBRANCH  10  11
ENDBRANCH   7  10
TORSDOF 4
ENDMDL
MODEL      195
REMARK 921   NORMALIZED FREE ENERGY PREDICTED BY IDOCK:    9.30 KCAL/MOL
REMARK 922        TOTAL FREE ENERGY PREDICTED BY IDOCK:   10.06 KCAL/MOL
REMARK 923 INTER-LIGAND FREE ENERGY PREDICTED BY IDOCK:   -2.70 KCAL/MOL
REMARK 924 INTRA-LIGAND FREE ENERGY PREDICTED BY IDOCK:   12.77 KCAL/MOL
REMARK 927      BINDING AFFINITY PREDICTED BY RF-SCORE:    0.00 PKD
ROOT
HETATM    1  C   UNL     1      -8.229  18.963  66.567  1.00  0.00    -0.297 C  
HETATM    2  C   UNL     1      -6.927  19.156  65.782  1.00  0.00    -0.306 C  
HETATM    3  C   UNL     1      -6.225  20.318  66.483  1.00  0.00    -0.216 C  
HETATM    4  C   UNL     1      -7.177  20.707  67.619  1.00  0.00    -0.308 C  
HETATM    5  N   UNL     1      -8.469  20.327  67.046  1.00  0.00    -0.331 NA 
HETATM    6  C   UNL     1      -6.841  19.938  68.902  1.00  0.00    -0.359 C  
HETATM    7  C   UNL     1      -7.128  18.419  68.858  1.00  0.00    -0.276 C  
HETATM    8  C   UNL     1      -9.619  20.494  67.920  1.00  0.00    -0.195 C  
HETATM    9  C   UNL     1      -8.063  17.960  67.717  1.00  0.00    -0.231 C  
ENDROOT
BRANCH   7  10
HETATM   10  O   UNL     1      -5.943  17.611  68.788  1.00  0.00    -0.168 OA 
BRANCH  10  11
HETATM   11  C   UNL     1      -6.111  16.267  68.303  1.00  0.00    -0.114 C  
BRANCH  11  12
HETATM   12  C   UNL     1      -7.457  16.151  67.599  1.00  0.00    -0.166 A  
HETATM   13  C   UNL     1      -8.629  16.701  68.135  1.00  0.00    -0.200 A  
HETATM   14  C   UNL     1      -7.533  15.473  66.370  1.00  0.00     0.778 A  
HETATM   15  C   UNL     1      -9.836  16.616  67.440  1.00  0.00    -0.254 A  
HETATM   16  C   UNL     1      -8.740  15.391  65.674  1.00  0.00     0.846 A  
HETATM   17  C   UNL     1      -9.888  15.972  66.205  1.00  0.00    -0.331 A  
ENDBRANCH  11  12
BRANCH  11  18
HETATM   18  C   UNL     1      -5.911  15.183  69.353  1.00  0.00    -0.104 A  
HETATM   19  C   UNL     1      -5.242  14.457  71.573  1.00  0.00    -0.159 A  
HETATM   20  C   UNL     1      -5.337  15.457  70.602  1.00  0.00    -0.138 A  
HETATM   21  C   UNL     1      -6.253  12.873  70.060  1.00  0.00    -0.058 A  
HETATM   22  C   UNL     1      -5.707  13.170  71.306  1.00  0.00    -0.008 A  
HETATM   23  C   UNL     1      -6.352  13.871  69.089  1.00  0.00    -0.107 A  
ENDBRANCH  11  18
ENDBRANCH  10  11
ENDBRANCH   7  10
TORSDOF 4
ENDMDL
MODEL      196
REMARK 921   NORMALIZED FREE ENERGY PREDICTED BY IDOCK:   10.15 KCAL/MOL
REMARK 922        TOTAL FREE ENERGY PREDICTED BY IDOCK:   11.12 KCAL/MOL
REMARK 923 INTER-LIGAND FREE ENERGY PREDICTED BY IDOCK:    6.94 KCAL/MOL
REMARK 924 INTRA-LIGAND FREE ENERGY PREDICTED BY IDOCK:    4.17 KCAL/MOL
REMARK 927      BINDING AFFINITY PREDICTED BY RF-SCORE:    0.00 PKD
ROOT
HETATM    1  C   UNL     1     -10.587   6.518  67.169  1.00  0.00    -0.328 C  
HETATM    2  C   UNL     1      -9.350   5.714  67.579  1.00  0.00    -0.109 C  
HETATM    3  C   UNL     1      -8.188   6.411  66.871  1.00  0.00    -0.110 C  
HETATM    4  C   UNL     1      -8.847   7.563  66.105  1.00  0.00    -0.159 C  
HETATM    5  N   UNL     1     -10.177   7.009  65.850  1.00  0.00     0.697 NA 
HETATM    6  C   UNL     1      -8.882   8.836  66.958  1.00  0.00    -0.139 C  
HETATM    7  C   UNL     1      -9.828   8.789  68.180  1.00  0.00    -0.168 C  
HETATM    8  C   UNL     1     -11.115   7.901  65.190  1.00  0.00     8.052 C  
HETATM    9  C   UNL     1     -10.883   7.660  68.151  1.00  0.00    -0.040 C  
ENDROOT
BRANCH   7  10
HETATM   10  O   UNL     1      -9.140   8.696  69.438  1.00  0.00    -0.147 OA 
BRANCH  10  11
HETATM   11  C   UNL     1      -8.046   9.608  69.640  1.00  0.00    -0.141 C  
BRANCH  11  12
HETATM   12  C   UNL     1      -7.194   9.660  68.378  1.00  0.00    -0.074 A  
HETATM   13  C   UNL     1      -6.075   8.836  68.200  1.00  0.00    -0.051 A  
HETATM   14  C   UNL     1      -7.538  10.560  67.354  1.00  0.00    -0.094 A  
HETATM   15  C   UNL     1      -5.345   8.877  67.011  1.00  0.00    -0.040 A  
HETATM   16  C   UNL     1      -6.809  10.598  66.165  1.00  0.00    -0.135 A  
HETATM   17  C   UNL     1      -5.719   9.749  65.990  1.00  0.00    -0.057 A  
ENDBRANCH  11  12
BRANCH  11  18
HETATM   18  C   UNL     1      -7.217   9.339  70.888  1.00  0.00    -0.113 A  
HETATM   19  C   UNL     1      -6.587   7.943  72.775  1.00  0.00    -0.076 A  
HETATM   20  C   UNL     1      -7.419   8.202  71.683  1.00  0.00    -0.092 A  
HETATM   21  C   UNL     1      -5.357   9.971  72.335  1.00  0.00     0.112 A  
HETATM   22  C   UNL     1      -5.553   8.822  73.096  1.00  0.00    -0.084 A  
HETATM   23  C   UNL     1      -6.185  10.230  71.241  1.00  0.00     0.237 A  
ENDBRANCH  11  18
ENDBRANCH  10  11
ENDBRANCH   7  10
TORSDOF 4
ENDMDL
MODEL      197
REMARK 921   NORMALIZED FREE ENERGY PREDICTED BY IDOCK:   10.38 KCAL/MOL
REMARK 922        TOTAL FREE ENERGY PREDICTED BY IDOCK:   11.40 KCAL/MOL
REMARK 923 INTER-LIGAND FREE ENERGY PREDICTED BY IDOCK:   10.09 KCAL/MOL
REMARK 924 INTRA-LIGAND FREE ENERGY PREDICTED BY IDOCK:    1.30 KCAL/MOL
REMARK 927      BINDING AFFINITY PREDICTED BY RF-SCORE:    0.00 PKD
ROOT
HETATM    1  C   UNL     1      -9.416  17.836  66.500  1.00  0.00    -0.290 C  
HETATM    2  C   UNL     1      -7.892  17.969  66.410  1.00  0.00    -0.304 C  
HETATM    3  C   UNL     1      -7.568  19.221  67.224  1.00  0.00    -0.256 C  
HETATM    4  C   UNL     1      -8.931  19.715  67.720  1.00  0.00    -0.322 C  
HETATM    5  N   UNL     1      -9.810  19.239  66.651  1.00  0.00    -0.341 NA 
HETATM    6  C   UNL     1      -9.268  19.107  69.087  1.00  0.00    -0.202 C  
HETATM    7  C   UNL     1      -9.550  17.587  69.084  1.00  0.00    -0.050 C  
HETATM    8  C   UNL     1     -11.229  19.478  66.850  1.00  0.00     0.063 C  
HETATM    9  C   UNL     1      -9.848  16.976  67.696  1.00  0.00    -0.257 C  
ENDROOT
BRANCH   7  10
HETATM   10  O   UNL     1      -8.500  16.805  69.676  1.00  0.00     0.257 OA 
BRANCH  10  11
HETATM   11  C   UNL     1      -8.908  15.648  70.428  1.00  0.00     1.256 C  
BRANCH  11  12
HETATM   12  C   UNL     1      -7.737  14.679  70.534  1.00  0.00     1.167 A  
HETATM   13  C   UNL     1      -6.497  14.939  69.937  1.00  0.00    -0.171 A  
HETATM   14  C   UNL     1      -7.900  13.482  71.254  1.00  0.00     6.481 A  
HETATM   15  C   UNL     1      -5.432  14.051  70.094  1.00  0.00    -0.109 A  
HETATM   16  C   UNL     1      -6.834  12.596  71.412  1.00  0.00     4.111 A  
HETATM   17  C   UNL     1      -5.598  12.886  70.841  1.00  0.00    -0.170 A  
ENDBRANCH  11  12
BRANCH  11  18
HETATM   18  C   UNL     1     -10.175  14.974  69.920  1.00  0.00    -0.101 A  
HETATM   19  C   UNL     1     -11.533  14.051  68.129  1.00  0.00    -0.341 A  
HETATM   20  C   UNL     1     -10.397  14.745  68.555  1.00  0.00    -0.237 A  
HETATM   21  C   UNL     1     -12.273  13.833  70.414  1.00  0.00    -0.433 A  
HETATM   22  C   UNL     1     -12.465  13.588  69.057  1.00  0.00     0.170 A  
HETATM   23  C   UNL     1     -11.138  14.523  70.843  1.00  0.00     0.173 A  
ENDBRANCH  11  18
ENDBRANCH  10  11
ENDBRANCH   7  10
TORSDOF 4
ENDMDL
MODEL      198
REMARK 921   NORMALIZED FREE ENERGY PREDICTED BY IDOCK:   19.22 KCAL/MOL
REMARK 922        TOTAL FREE ENERGY PREDICTED BY IDOCK:   22.31 KCAL/MOL
REMARK 923 INTER-LIGAND FREE ENERGY PREDICTED BY IDOCK:   23.65 KCAL/MOL
REMARK 924 INTRA-LIGAND FREE ENERGY PREDICTED BY IDOCK:   -1.34 KCAL/MOL
REMARK 927      BINDING AFFINITY PREDICTED BY RF-SCORE:    0.00 PKD
ROOT
HETATM    1  C   UNL     1      -7.640  15.554  71.601  1.00  0.00     4.406 C  
HETATM    2  C   UNL     1      -7.418  15.882  70.122  1.00  0.00     0.661 C  
HETATM    3  C   UNL     1      -5.899  15.852  69.947  1.00  0.00    -0.159 C  
HETATM    4  C   UNL     1      -5.364  15.510  71.341  1.00  0.00     0.028 C  
HETATM    5  N   UNL     1      -6.408  16.081  72.192  1.00  0.00     2.554 NA 
HETATM    6  C   UNL     1      -5.214  13.994  71.512  1.00  0.00    -0.180 C  
HETATM    7  C   UNL     1      -6.538  13.199  71.563  1.00  0.00     2.631 C  
HETATM    8  C   UNL     1      -6.248  15.859  73.620  1.00  0.00     3.684 C  
HETATM    9  C   UNL     1      -7.802  14.045  71.837  1.00  0.00     6.520 C  
ENDROOT
BRANCH   7  10
HETATM   10  O   UNL     1      -6.793  12.427  70.379  1.00  0.00     0.396 OA 
BRANCH  10  11
HETATM   11  C   UNL     1      -8.031  11.694  70.345  1.00  0.00     3.416 C  
BRANCH  11  12
HETATM   12  C   UNL     1      -7.741  10.209  70.533  1.00  0.00     0.307 A  
HETATM   13  C   UNL     1      -8.755   9.243  70.515  1.00  0.00    -0.276 A  
HETATM   14  C   UNL     1      -6.414   9.789  70.732  1.00  0.00    -0.097 A  
HETATM   15  C   UNL     1      -8.448   7.888  70.644  1.00  0.00    -0.125 A  
HETATM   16  C   UNL     1      -6.108   8.434  70.859  1.00  0.00    -0.034 A  
HETATM   17  C   UNL     1      -7.125   7.484  70.805  1.00  0.00    -0.059 A  
ENDBRANCH  11  12
BRANCH  11  18
HETATM   18  C   UNL     1      -8.896  11.964  69.122  1.00  0.00     0.469 A  
HETATM   19  C   UNL     1     -10.924  12.811  68.085  1.00  0.00    -0.273 A  
HETATM   20  C   UNL     1     -10.187  12.499  69.231  1.00  0.00     0.373 A  
HETATM   21  C   UNL     1      -9.118  12.025  66.694  1.00  0.00    -0.205 A  
HETATM   22  C   UNL     1     -10.387  12.583  66.819  1.00  0.00    -0.241 A  
HETATM   23  C   UNL     1      -8.378  11.715  67.836  1.00  0.00    -0.143 A  
ENDBRANCH  11  18
ENDBRANCH  10  11
ENDBRANCH   7  10
TORSDOF 4
ENDMDL
MODEL      199
REMARK 921   NORMALIZED FREE ENERGY PREDICTED BY IDOCK:   24.23 KCAL/MOL
REMARK 922        TOTAL FREE ENERGY PREDICTED BY IDOCK:   28.48 KCAL/MOL
REMARK 923 INTER-LIGAND FREE ENERGY PREDICTED BY IDOCK:   19.83 KCAL/MOL
REMARK 924 INTRA-LIGAND FREE ENERGY PREDICTED BY IDOCK:    8.65 KCAL/MOL
REMARK 927      BINDING AFFINITY PREDICTED BY RF-SCORE:    0.00 PKD
ROOT
HETATM    1  C   UNL     1      -9.808  10.565  65.823  1.00  0.00    -0.237 C  
HETATM    2  C   UNL     1     -10.016  11.749  64.874  1.00  0.00    -0.280 C  
HETATM    3  C   UNL     1     -10.797  12.770  65.702  1.00  0.00    -0.300 C  
HETATM    4  C   UNL     1     -10.978  12.095  67.065  1.00  0.00    -0.271 C  
HETATM    5  N   UNL     1     -10.990  10.682  66.681  1.00  0.00    -0.140 NA 
HETATM    6  C   UNL     1      -9.823  12.449  68.009  1.00  0.00    -0.205 C  
HETATM    7  C   UNL     1      -8.449  11.853  67.627  1.00  0.00    -0.156 C  
HETATM    8  C   UNL     1     -11.070   9.732  67.777  1.00  0.00    -0.075 C  
HETATM    9  C   UNL     1      -8.498  10.686  66.614  1.00  0.00    -0.137 C  
ENDROOT
BRANCH   7  10
HETATM   10  O   UNL     1      -7.522  12.823  67.114  1.00  0.00    -0.126 OA 
BRANCH  10  11
HETATM   11  C   UNL     1      -7.640  14.160  67.633  1.00  0.00    -0.180 C  
BRANCH  11  12
HETATM   12  C   UNL     1      -8.534  14.144  68.867  1.00  0.00     0.002 A  
HETATM   13  C   UNL     1      -9.875  13.742  68.810  1.00  0.00    -0.093 A  
HETATM   14  C   UNL     1      -8.001  14.543  70.105  1.00  0.00     0.818 A  
HETATM   15  C   UNL     1     -10.651  13.695  69.969  1.00  0.00     0.849 A  
HETATM   16  C   UNL     1      -8.778  14.493  71.263  1.00  0.00     4.359 A  
HETATM   17  C   UNL     1     -10.099  14.059  71.196  1.00  0.00     4.089 A  
ENDBRANCH  11  12
BRANCH  11  18
HETATM   18  C   UNL     1      -8.078  15.201  66.612  1.00  0.00     0.002 A  
HETATM   19  C   UNL     1      -9.016  15.817  64.457  1.00  0.00     5.333 A  
HETATM   20  C   UNL     1      -8.545  14.842  65.340  1.00  0.00     2.443 A  
HETATM   21  C   UNL     1      -8.530  17.537  66.076  1.00  0.00    -0.099 A  
HETATM   22  C   UNL     1      -9.017  17.161  64.828  1.00  0.00     4.467 A  
HETATM   23  C   UNL     1      -8.062  16.565  66.962  1.00  0.00    -0.235 A  
ENDBRANCH  11  18
ENDBRANCH  10  11
ENDBRANCH   7  10
TORSDOF 4
ENDMDL
MODEL      200
REMARK 921   NORMALIZED FREE ENERGY PREDICTED BY IDOCK:   31.21 KCAL/MOL
REMARK 922        TOTAL FREE ENERGY PREDICTED BY IDOCK:   37.09 KCAL/MOL
REMARK 923 INTER-LIGAND FREE ENERGY PREDICTED BY IDOCK:   38.44 KCAL/MOL
REMARK 924 INTRA-LIGAND FREE ENERGY PREDICTED BY IDOCK:   -1.34 KCAL/MOL
REMARK 927      BINDING AFFINITY PREDICTED BY RF-SCORE:    0.00 PKD
ROOT
HETATM    1  C   UNL     1      -7.485  15.555  72.101  1.00  0.00     5.757 C  
HETATM    2  C   UNL     1      -6.650  16.218  71.002  1.00  0.00     1.871 C  
HETATM    3  C   UNL     1      -5.225  16.226  71.555  1.00  0.00     0.098 C  
HETATM    4  C   UNL     1      -5.349  15.567  72.932  1.00  0.00     0.782 C  
HETATM    5  N   UNL     1      -6.720  15.927  73.295  1.00  0.00     5.218 NA 
HETATM    6  C   UNL     1      -5.133  14.052  72.835  1.00  0.00    -0.253 C  
HETATM    7  C   UNL     1      -6.243  13.271  72.095  1.00  0.00     1.880 C  
HETATM    8  C   UNL     1      -7.205  15.377  74.550  1.00  0.00     7.863 C  
HETATM    9  C   UNL     1      -7.575  14.034  71.916  1.00  0.00     5.504 C  
ENDROOT
BRANCH   7  10
HETATM   10  O   UNL     1      -5.847  12.796  70.798  1.00  0.00    -0.215 OA 
BRANCH  10  11
HETATM   11  C   UNL     1      -6.896  12.294  69.951  1.00  0.00     0.340 C  
BRANCH  11  12
HETATM   12  C   UNL     1      -6.926  10.773  70.036  1.00  0.00    -0.091 A  
HETATM   13  C   UNL     1      -7.818  10.001  69.280  1.00  0.00    -0.125 A  
HETATM   14  C   UNL     1      -6.030  10.116  70.897  1.00  0.00    -0.070 A  
HETATM   15  C   UNL     1      -7.785   8.608  69.348  1.00  0.00    -0.091 A  
HETATM   16  C   UNL     1      -5.996   8.723  70.962  1.00  0.00    -0.041 A  
HETATM   17  C   UNL     1      -6.867   7.970  70.180  1.00  0.00    -0.041 A  
ENDBRANCH  11  12
BRANCH  11  18
HETATM   18  C   UNL     1      -6.847  12.794  68.514  1.00  0.00    -0.094 A  
HETATM   19  C   UNL     1      -5.795  12.907  66.327  1.00  0.00     2.873 A  
HETATM   20  C   UNL     1      -5.772  12.501  67.663  1.00  0.00    -0.131 A  
HETATM   21  C   UNL     1      -7.947  13.944  66.665  1.00  0.00     0.615 A  
HETATM   22  C   UNL     1      -6.885  13.619  65.826  1.00  0.00     6.944 A  
HETATM   23  C   UNL     1      -7.928  13.537  68.001  1.00  0.00    -0.151 A  
ENDBRANCH  11  18
ENDBRANCH  10  11
ENDBRANCH   7  10
TORSDOF 4
ENDMDL
MODEL      201
REMARK 921   NORMALIZED FREE ENERGY PREDICTED BY IDOCK:   44.24 KCAL/MOL
REMARK 922        TOTAL FREE ENERGY PREDICTED BY IDOCK:   53.17 KCAL/MOL
REMARK 923 INTER-LIGAND FREE ENERGY PREDICTED BY IDOCK:   52.78 KCAL/MOL
REMARK 924 INTRA-LIGAND FREE ENERGY PREDICTED BY IDOCK:    0.39 KCAL/MOL
REMARK 927      BINDING AFFINITY PREDICTED BY RF-SCORE:    0.00 PKD
ROOT
HETATM    1  C   UNL     1      -9.416  17.836  66.500  1.00  0.00    -0.290 C  
HETATM    2  C   UNL     1      -7.892  17.969  66.410  1.00  0.00    -0.304 C  
HETATM    3  C   UNL     1      -7.568  19.221  67.224  1.00  0.00    -0.256 C  
HETATM    4  C   UNL     1      -8.931  19.715  67.720  1.00  0.00    -0.322 C  
HETATM    5  N   UNL     1      -9.810  19.239  66.651  1.00  0.00    -0.341 NA 
HETATM    6  C   UNL     1      -9.268  19.107  69.087  1.00  0.00    -0.202 C  
HETATM    7  C   UNL     1      -9.550  17.587  69.084  1.00  0.00    -0.050 C  
HETATM    8  C   UNL     1     -11.229  19.478  66.850  1.00  0.00     0.063 C  
HETATM    9  C   UNL     1      -9.848  16.976  67.696  1.00  0.00    -0.257 C  
ENDROOT
BRANCH   7  10
HETATM   10  O   UNL     1      -8.500  16.805  69.676  1.00  0.00     0.257 OA 
BRANCH  10  11
HETATM   11  C   UNL     1      -7.833  17.381  70.813  1.00  0.00     4.930 C  
BRANCH  11  12
HETATM   12  C   UNL     1      -7.155  16.275  71.612  1.00  0.00     5.110 A  
HETATM   13  C   UNL     1      -7.241  14.927  71.241  1.00  0.00     1.752 A  
HETATM   14  C   UNL     1      -6.416  16.612  72.759  1.00  0.00     5.322 A  
HETATM   15  C   UNL     1      -6.568  13.946  71.970  1.00  0.00     1.995 A  
HETATM   16  C   UNL     1      -5.742  15.630  73.486  1.00  0.00     1.806 A  
HETATM   17  C   UNL     1      -5.810  14.299  73.084  1.00  0.00     0.137 A  
ENDBRANCH  11  12
BRANCH  11  18
HETATM   18  C   UNL     1      -8.713  18.269  71.682  1.00  0.00    10.746 A  
HETATM   19  C   UNL     1     -10.766  18.696  72.909  1.00  0.00     3.177 A  
HETATM   20  C   UNL     1     -10.015  17.897  72.044  1.00  0.00     6.896 A  
HETATM   21  C   UNL     1      -8.951  20.280  73.042  1.00  0.00     3.835 A  
HETATM   22  C   UNL     1     -10.232  19.881  73.415  1.00  0.00     4.261 A  
HETATM   23  C   UNL     1      -8.197  19.481  72.181  1.00  0.00     4.517 A  
ENDBRANCH  11  18
ENDBRANCH  10  11
ENDBRANCH   7  10
TORSDOF 4
ENDMDL
