MODEL        1
REMARK 921   NORMALIZED FREE ENERGY PREDICTED BY IDOCK:   -5.99 KCAL/MOL
REMARK 922        TOTAL FREE ENERGY PREDICTED BY IDOCK:   -7.90 KCAL/MOL
REMARK 923 INTER-LIGAND FREE ENERGY PREDICTED BY IDOCK:   -7.39 KCAL/MOL
REMARK 924 INTRA-LIGAND FREE ENERGY PREDICTED BY IDOCK:   -0.51 KCAL/MOL
REMARK 927      BINDING AFFINITY PREDICTED BY RF-SCORE:    0.00 PKD
ROOT
HETATM    1  O   UNL     1     -11.380  13.592  68.820  1.00  0.00    -0.254 OA 
HETATM    2  C   UNL     1     -11.721  14.676  69.270  1.00  0.00    -0.312 C  
ENDROOT
BRANCH   2   3
HETATM    3  O   UNL     1     -11.759  15.844  68.588  1.00  0.00    -0.387 OA 
BRANCH   3   4
HETATM    4  C   UNL     1     -10.711  16.048  67.630  1.00  0.00    -0.320 C  
BRANCH   4   5
HETATM    5  C   UNL     1     -10.405  17.522  67.566  1.00  0.00    -0.356 A  
HETATM    6  C   UNL     1     -10.048  19.551  66.281  1.00  0.00    -0.560 A  
HETATM    7  C   UNL     1      -9.755  20.248  67.451  1.00  0.00    -0.584 A  
HETATM    8  C   UNL     1     -10.369  18.194  66.336  1.00  0.00    -0.404 A  
HETATM    9  C   UNL     1      -9.788  19.590  68.680  1.00  0.00    -0.530 A  
HETATM   10  C   UNL     1     -10.108  18.234  68.738  1.00  0.00    -0.393 A  
ENDBRANCH   4   5
ENDBRANCH   3   4
ENDBRANCH   2   3
BRANCH   2  11
HETATM   11  C   UNL     1     -12.151  14.864  70.683  1.00  0.00    -0.366 A  
HETATM   12  C   UNL     1     -12.870  15.312  73.356  1.00  0.00    -0.667 A  
HETATM   13  C   UNL     1     -11.677  15.992  71.369  1.00  0.00    -0.536 A  
HETATM   14  C   UNL     1     -12.034  16.214  72.701  1.00  0.00    -0.653 A  
HETATM   15  C   UNL     1     -12.996  13.964  71.347  1.00  0.00    -0.430 A  
HETATM   16  C   UNL     1     -13.353  14.191  72.680  1.00  0.00    -0.638 A  
ENDBRANCH   2  11
TORSDOF 4
ENDMDL
MODEL        2
REMARK 921   NORMALIZED FREE ENERGY PREDICTED BY IDOCK:   -5.96 KCAL/MOL
REMARK 922        TOTAL FREE ENERGY PREDICTED BY IDOCK:   -7.86 KCAL/MOL
REMARK 923 INTER-LIGAND FREE ENERGY PREDICTED BY IDOCK:   -7.28 KCAL/MOL
REMARK 924 INTRA-LIGAND FREE ENERGY PREDICTED BY IDOCK:   -0.58 KCAL/MOL
REMARK 927      BINDING AFFINITY PREDICTED BY RF-SCORE:    0.00 PKD
ROOT
HETATM    1  O   UNL     1     -12.167  11.534  68.057  1.00  0.00    -0.582 OA 
HETATM    2  C   UNL     1     -11.807  11.740  69.207  1.00  0.00    -0.326 C  
ENDROOT
BRANCH   2   3
HETATM    3  O   UNL     1     -11.302  12.900  69.687  1.00  0.00    -0.201 OA 
BRANCH   3   4
HETATM    4  C   UNL     1     -12.044  14.087  69.373  1.00  0.00    -0.340 C  
BRANCH   4   5
HETATM    5  C   UNL     1     -12.484  14.729  70.664  1.00  0.00    -0.407 A  
HETATM    6  C   UNL     1     -12.031  16.161  72.572  1.00  0.00    -0.660 A  
HETATM    7  C   UNL     1     -13.281  15.853  73.106  1.00  0.00    -0.692 A  
HETATM    8  C   UNL     1     -11.632  15.601  71.357  1.00  0.00    -0.499 A  
HETATM    9  C   UNL     1     -14.135  14.987  72.426  1.00  0.00    -0.574 A  
HETATM   10  C   UNL     1     -13.739  14.425  71.212  1.00  0.00    -0.364 A  
ENDBRANCH   4   5
ENDBRANCH   3   4
ENDBRANCH   2   3
BRANCH   2  11
HETATM   11  C   UNL     1     -11.874  10.702  70.272  1.00  0.00    -0.430 A  
HETATM   12  C   UNL     1     -12.113   8.800  72.318  1.00  0.00    -0.423 A  
HETATM   13  C   UNL     1     -13.080  10.560  70.975  1.00  0.00    -0.419 A  
HETATM   14  C   UNL     1     -13.198   9.613  71.995  1.00  0.00    -0.546 A  
HETATM   15  C   UNL     1     -10.789   9.877  70.600  1.00  0.00    -0.400 A  
HETATM   16  C   UNL     1     -10.912   8.929  71.620  1.00  0.00    -0.415 A  
ENDBRANCH   2  11
TORSDOF 4
ENDMDL
MODEL        3
REMARK 921   NORMALIZED FREE ENERGY PREDICTED BY IDOCK:   -5.94 KCAL/MOL
REMARK 922        TOTAL FREE ENERGY PREDICTED BY IDOCK:   -7.83 KCAL/MOL
REMARK 923 INTER-LIGAND FREE ENERGY PREDICTED BY IDOCK:   -7.12 KCAL/MOL
REMARK 924 INTRA-LIGAND FREE ENERGY PREDICTED BY IDOCK:   -0.72 KCAL/MOL
REMARK 927      BINDING AFFINITY PREDICTED BY RF-SCORE:    0.00 PKD
ROOT
HETATM    1  O   UNL     1     -12.148  12.103  67.754  1.00  0.00    -0.508 OA 
HETATM    2  C   UNL     1     -11.744  12.257  68.898  1.00  0.00    -0.328 C  
ENDROOT
BRANCH   2   3
HETATM    3  O   UNL     1     -11.173  13.378  69.396  1.00  0.00    -0.244 OA 
BRANCH   3   4
HETATM    4  C   UNL     1     -11.951  14.579  69.293  1.00  0.00    -0.319 C  
BRANCH   4   5
HETATM    5  C   UNL     1     -12.419  14.964  70.673  1.00  0.00    -0.411 A  
HETATM    6  C   UNL     1     -14.212  15.409  72.247  1.00  0.00    -0.639 A  
HETATM    7  C   UNL     1     -13.279  15.760  73.221  1.00  0.00    -0.687 A  
HETATM    8  C   UNL     1     -13.786  15.015  70.978  1.00  0.00    -0.417 A  
HETATM    9  C   UNL     1     -11.917  15.713  72.928  1.00  0.00    -0.588 A  
HETATM   10  C   UNL     1     -11.488  15.320  71.660  1.00  0.00    -0.471 A  
ENDBRANCH   4   5
ENDBRANCH   3   4
ENDBRANCH   2   3
BRANCH   2  11
HETATM   11  C   UNL     1     -11.825  11.190  69.933  1.00  0.00    -0.439 A  
HETATM   12  C   UNL     1     -12.059   9.257  71.951  1.00  0.00    -0.440 A  
HETATM   13  C   UNL     1     -12.815  11.306  70.920  1.00  0.00    -0.343 A  
HETATM   14  C   UNL     1     -12.931  10.344  71.926  1.00  0.00    -0.555 A  
HETATM   15  C   UNL     1     -10.955  10.091  69.962  1.00  0.00    -0.352 A  
HETATM   16  C   UNL     1     -11.075   9.129  70.970  1.00  0.00    -0.374 A  
ENDBRANCH   2  11
TORSDOF 4
ENDMDL
MODEL        4
REMARK 921   NORMALIZED FREE ENERGY PREDICTED BY IDOCK:   -5.93 KCAL/MOL
REMARK 922        TOTAL FREE ENERGY PREDICTED BY IDOCK:   -7.82 KCAL/MOL
REMARK 923 INTER-LIGAND FREE ENERGY PREDICTED BY IDOCK:   -7.30 KCAL/MOL
REMARK 924 INTRA-LIGAND FREE ENERGY PREDICTED BY IDOCK:   -0.52 KCAL/MOL
REMARK 927      BINDING AFFINITY PREDICTED BY RF-SCORE:    0.00 PKD
ROOT
HETATM    1  O   UNL     1     -11.102  13.588  68.914  1.00  0.00    -0.252 OA 
HETATM    2  C   UNL     1     -11.592  14.641  69.295  1.00  0.00    -0.302 C  
ENDROOT
BRANCH   2   3
HETATM    3  O   UNL     1     -11.724  15.769  68.559  1.00  0.00    -0.383 OA 
BRANCH   3   4
HETATM    4  C   UNL     1     -10.676  16.030  67.614  1.00  0.00    -0.320 C  
BRANCH   4   5
HETATM    5  C   UNL     1     -10.398  17.510  67.609  1.00  0.00    -0.360 A  
HETATM    6  C   UNL     1      -9.963  19.582  68.800  1.00  0.00    -0.547 A  
HETATM    7  C   UNL     1      -9.961  20.281  67.594  1.00  0.00    -0.551 A  
HETATM    8  C   UNL     1     -10.182  18.203  68.809  1.00  0.00    -0.353 A  
HETATM    9  C   UNL     1     -10.175  19.602  66.395  1.00  0.00    -0.592 A  
HETATM   10  C   UNL     1     -10.395  18.225  66.402  1.00  0.00    -0.418 A  
ENDBRANCH   4   5
ENDBRANCH   3   4
ENDBRANCH   2   3
BRANCH   2  11
HETATM   11  C   UNL     1     -12.125  14.832  70.672  1.00  0.00    -0.374 A  
HETATM   12  C   UNL     1     -13.030  15.274  73.289  1.00  0.00    -0.645 A  
HETATM   13  C   UNL     1     -11.597  15.880  71.440  1.00  0.00    -0.529 A  
HETATM   14  C   UNL     1     -12.047  16.100  72.744  1.00  0.00    -0.653 A  
HETATM   15  C   UNL     1     -13.116  14.010  71.224  1.00  0.00    -0.399 A  
HETATM   16  C   UNL     1     -13.566  14.233  72.530  1.00  0.00    -0.620 A  
ENDBRANCH   2  11
TORSDOF 4
ENDMDL
MODEL        5
REMARK 921   NORMALIZED FREE ENERGY PREDICTED BY IDOCK:   -5.93 KCAL/MOL
REMARK 922        TOTAL FREE ENERGY PREDICTED BY IDOCK:   -7.82 KCAL/MOL
REMARK 923 INTER-LIGAND FREE ENERGY PREDICTED BY IDOCK:   -7.33 KCAL/MOL
REMARK 924 INTRA-LIGAND FREE ENERGY PREDICTED BY IDOCK:   -0.49 KCAL/MOL
REMARK 927      BINDING AFFINITY PREDICTED BY RF-SCORE:    0.00 PKD
ROOT
HETATM    1  O   UNL     1     -10.167  15.230  67.003  1.00  0.00    -0.252 OA 
HETATM    2  C   UNL     1     -10.753  16.108  67.619  1.00  0.00    -0.318 C  
ENDROOT
BRANCH   2   3
HETATM    3  O   UNL     1     -11.781  15.925  68.480  1.00  0.00    -0.383 OA 
BRANCH   3   4
HETATM    4  C   UNL     1     -11.671  14.799  69.362  1.00  0.00    -0.323 C  
BRANCH   4   5
HETATM    5  C   UNL     1     -12.267  15.176  70.693  1.00  0.00    -0.401 A  
HETATM    6  C   UNL     1     -12.110  16.318  72.831  1.00  0.00    -0.625 A  
HETATM    7  C   UNL     1     -13.352  15.806  73.202  1.00  0.00    -0.685 A  
HETATM    8  C   UNL     1     -11.568  16.003  71.583  1.00  0.00    -0.538 A  
HETATM    9  C   UNL     1     -14.056  14.982  72.325  1.00  0.00    -0.612 A  
HETATM   10  C   UNL     1     -13.516  14.666  71.078  1.00  0.00    -0.375 A  
ENDBRANCH   4   5
ENDBRANCH   3   4
ENDBRANCH   2   3
BRANCH   2  11
HETATM   11  C   UNL     1     -10.405  17.551  67.496  1.00  0.00    -0.356 A  
HETATM   12  C   UNL     1      -9.759  20.277  67.395  1.00  0.00    -0.584 A  
HETATM   13  C   UNL     1     -10.075  18.248  68.667  1.00  0.00    -0.407 A  
HETATM   14  C   UNL     1      -9.754  19.606  68.617  1.00  0.00    -0.486 A  
HETATM   15  C   UNL     1     -10.403  18.230  66.270  1.00  0.00    -0.422 A  
HETATM   16  C   UNL     1     -10.080  19.590  66.223  1.00  0.00    -0.560 A  
ENDBRANCH   2  11
TORSDOF 4
ENDMDL
MODEL        6
REMARK 921   NORMALIZED FREE ENERGY PREDICTED BY IDOCK:   -5.93 KCAL/MOL
REMARK 922        TOTAL FREE ENERGY PREDICTED BY IDOCK:   -7.82 KCAL/MOL
REMARK 923 INTER-LIGAND FREE ENERGY PREDICTED BY IDOCK:   -7.19 KCAL/MOL
REMARK 924 INTRA-LIGAND FREE ENERGY PREDICTED BY IDOCK:   -0.63 KCAL/MOL
REMARK 927      BINDING AFFINITY PREDICTED BY RF-SCORE:    0.00 PKD
ROOT
HETATM    1  O   UNL     1     -12.047  11.355  67.911  1.00  0.00    -0.646 OA 
HETATM    2  C   UNL     1     -11.752  11.597  69.072  1.00  0.00    -0.324 C  
ENDROOT
BRANCH   2   3
HETATM    3  O   UNL     1     -11.251  12.765  69.539  1.00  0.00    -0.188 OA 
BRANCH   3   4
HETATM    4  C   UNL     1     -12.090  13.918  69.378  1.00  0.00    -0.337 C  
BRANCH   4   5
HETATM    5  C   UNL     1     -12.315  14.535  70.734  1.00  0.00    -0.410 A  
HETATM    6  C   UNL     1     -11.814  16.241  72.388  1.00  0.00    -0.606 A  
HETATM    7  C   UNL     1     -12.680  15.629  73.291  1.00  0.00    -0.626 A  
HETATM    8  C   UNL     1     -11.629  15.697  71.116  1.00  0.00    -0.462 A  
HETATM    9  C   UNL     1     -13.366  14.472  72.923  1.00  0.00    -0.579 A  
HETATM   10  C   UNL     1     -13.183  13.926  71.652  1.00  0.00    -0.446 A  
ENDBRANCH   4   5
ENDBRANCH   3   4
ENDBRANCH   2   3
BRANCH   2  11
HETATM   11  C   UNL     1     -11.904  10.601  70.168  1.00  0.00    -0.421 A  
HETATM   12  C   UNL     1     -12.076   8.676  72.199  1.00  0.00    -0.451 A  
HETATM   13  C   UNL     1     -10.783   9.836  70.521  1.00  0.00    -0.381 A  
HETATM   14  C   UNL     1     -10.869   8.876  71.531  1.00  0.00    -0.396 A  
HETATM   15  C   UNL     1     -13.114  10.398  70.847  1.00  0.00    -0.412 A  
HETATM   16  C   UNL     1     -13.196   9.437  71.860  1.00  0.00    -0.507 A  
ENDBRANCH   2  11
TORSDOF 4
ENDMDL
MODEL        7
REMARK 921   NORMALIZED FREE ENERGY PREDICTED BY IDOCK:   -5.91 KCAL/MOL
REMARK 922        TOTAL FREE ENERGY PREDICTED BY IDOCK:   -7.80 KCAL/MOL
REMARK 923 INTER-LIGAND FREE ENERGY PREDICTED BY IDOCK:   -7.22 KCAL/MOL
REMARK 924 INTRA-LIGAND FREE ENERGY PREDICTED BY IDOCK:   -0.57 KCAL/MOL
REMARK 927      BINDING AFFINITY PREDICTED BY RF-SCORE:    0.00 PKD
ROOT
HETATM    1  O   UNL     1     -12.117  11.801  67.901  1.00  0.00    -0.592 OA 
HETATM    2  C   UNL     1     -11.772  12.022  69.053  1.00  0.00    -0.325 C  
ENDROOT
BRANCH   2   3
HETATM    3  O   UNL     1     -11.347  13.211  69.542  1.00  0.00    -0.234 OA 
BRANCH   3   4
HETATM    4  C   UNL     1     -12.257  14.311  69.398  1.00  0.00    -0.278 C  
BRANCH   4   5
HETATM    5  C   UNL     1     -12.555  14.863  70.768  1.00  0.00    -0.414 A  
HETATM    6  C   UNL     1     -14.144  15.467  72.502  1.00  0.00    -0.595 A  
HETATM    7  C   UNL     1     -13.107  15.969  73.286  1.00  0.00    -0.658 A  
HETATM    8  C   UNL     1     -13.871  14.919  71.248  1.00  0.00    -0.500 A  
HETATM    9  C   UNL     1     -11.794  15.919  72.818  1.00  0.00    -0.583 A  
HETATM   10  C   UNL     1     -11.519  15.372  71.565  1.00  0.00    -0.478 A  
ENDBRANCH   4   5
ENDBRANCH   3   4
ENDBRANCH   2   3
BRANCH   2  11
HETATM   11  C   UNL     1     -11.767  10.974  70.110  1.00  0.00    -0.442 A  
HETATM   12  C   UNL     1     -11.663   8.939  72.037  1.00  0.00    -0.438 A  
HETATM   13  C   UNL     1     -10.699  10.066  70.130  1.00  0.00    -0.361 A  
HETATM   14  C   UNL     1     -10.647   9.052  71.089  1.00  0.00    -0.361 A  
HETATM   15  C   UNL     1     -12.783  10.858  71.069  1.00  0.00    -0.505 A  
HETATM   16  C   UNL     1     -12.728   9.842  72.029  1.00  0.00    -0.463 A  
ENDBRANCH   2  11
TORSDOF 4
ENDMDL
MODEL        8
REMARK 921   NORMALIZED FREE ENERGY PREDICTED BY IDOCK:   -5.77 KCAL/MOL
REMARK 922        TOTAL FREE ENERGY PREDICTED BY IDOCK:   -7.63 KCAL/MOL
REMARK 923 INTER-LIGAND FREE ENERGY PREDICTED BY IDOCK:   -7.00 KCAL/MOL
REMARK 924 INTRA-LIGAND FREE ENERGY PREDICTED BY IDOCK:   -0.63 KCAL/MOL
REMARK 927      BINDING AFFINITY PREDICTED BY RF-SCORE:    0.00 PKD
ROOT
HETATM    1  O   UNL     1     -11.801  15.432  68.402  1.00  0.00    -0.347 OA 
HETATM    2  C   UNL     1     -11.750  14.744  69.411  1.00  0.00    -0.323 C  
ENDROOT
BRANCH   2   3
HETATM    3  O   UNL     1     -11.140  13.542  69.526  1.00  0.00    -0.175 OA 
BRANCH   3   4
HETATM    4  C   UNL     1     -11.852  12.421  68.983  1.00  0.00    -0.300 C  
BRANCH   4   5
HETATM    5  C   UNL     1     -11.809  11.299  69.987  1.00  0.00    -0.448 A  
HETATM    6  C   UNL     1     -10.781   9.276  70.851  1.00  0.00    -0.371 A  
HETATM    7  C   UNL     1     -11.785   9.168  71.811  1.00  0.00    -0.456 A  
HETATM    8  C   UNL     1     -10.792  10.334  69.942  1.00  0.00    -0.355 A  
HETATM    9  C   UNL     1     -12.801  10.120  71.865  1.00  0.00    -0.526 A  
HETATM   10  C   UNL     1     -12.816  11.179  70.957  1.00  0.00    -0.424 A  
ENDBRANCH   4   5
ENDBRANCH   3   4
ENDBRANCH   2   3
BRANCH   2  11
HETATM   11  C   UNL     1     -12.381  15.152  70.697  1.00  0.00    -0.420 A  
HETATM   12  C   UNL     1     -13.449  15.936  73.168  1.00  0.00    -0.650 A  
HETATM   13  C   UNL     1     -11.563  15.744  71.671  1.00  0.00    -0.537 A  
HETATM   14  C   UNL     1     -12.095  16.133  72.902  1.00  0.00    -0.643 A  
HETATM   15  C   UNL     1     -13.743  14.962  70.970  1.00  0.00    -0.367 A  
HETATM   16  C   UNL     1     -14.272  15.354  72.204  1.00  0.00    -0.660 A  
ENDBRANCH   2  11
TORSDOF 4
ENDMDL
MODEL        9
REMARK 921   NORMALIZED FREE ENERGY PREDICTED BY IDOCK:   -5.74 KCAL/MOL
REMARK 922        TOTAL FREE ENERGY PREDICTED BY IDOCK:   -7.59 KCAL/MOL
REMARK 923 INTER-LIGAND FREE ENERGY PREDICTED BY IDOCK:   -7.28 KCAL/MOL
REMARK 924 INTRA-LIGAND FREE ENERGY PREDICTED BY IDOCK:   -0.31 KCAL/MOL
REMARK 927      BINDING AFFINITY PREDICTED BY RF-SCORE:    0.00 PKD
ROOT
HETATM    1  O   UNL     1     -12.056  11.217  68.157  1.00  0.00    -0.635 OA 
HETATM    2  C   UNL     1     -11.894  12.222  67.480  1.00  0.00    -0.261 C  
ENDROOT
BRANCH   2   3
HETATM    3  O   UNL     1     -11.974  13.499  67.919  1.00  0.00    -0.357 OA 
BRANCH   3   4
HETATM    4  C   UNL     1     -11.215  13.809  69.096  1.00  0.00    -0.262 C  
BRANCH   4   5
HETATM    5  C   UNL     1     -12.173  14.012  70.240  1.00  0.00    -0.430 A  
HETATM    6  C   UNL     1     -13.470  13.127  72.092  1.00  0.00    -0.653 A  
HETATM    7  C   UNL     1     -14.021  14.387  72.317  1.00  0.00    -0.610 A  
HETATM    8  C   UNL     1     -12.552  12.938  71.058  1.00  0.00    -0.376 A  
HETATM    9  C   UNL     1     -13.652  15.462  71.510  1.00  0.00    -0.604 A  
HETATM   10  C   UNL     1     -12.735  15.276  70.475  1.00  0.00    -0.440 A  
ENDBRANCH   4   5
ENDBRANCH   3   4
ENDBRANCH   2   3
BRANCH   2  11
HETATM   11  C   UNL     1     -11.580  12.172  66.025  1.00  0.00    -0.420 A  
HETATM   12  C   UNL     1     -11.094  12.149  63.264  1.00  0.00    -0.408 A  
HETATM   13  C   UNL     1     -12.290  13.026  65.170  1.00  0.00    -0.536 A  
HETATM   14  C   UNL     1     -12.049  13.014  63.794  1.00  0.00    -0.574 A  
HETATM   15  C   UNL     1     -10.616  11.308  65.485  1.00  0.00    -0.306 A  
HETATM   16  C   UNL     1     -10.376  11.300  64.107  1.00  0.00    -0.410 A  
ENDBRANCH   2  11
TORSDOF 4
ENDMDL
MODEL       10
REMARK 921   NORMALIZED FREE ENERGY PREDICTED BY IDOCK:   -5.73 KCAL/MOL
REMARK 922        TOTAL FREE ENERGY PREDICTED BY IDOCK:   -7.58 KCAL/MOL
REMARK 923 INTER-LIGAND FREE ENERGY PREDICTED BY IDOCK:   -7.05 KCAL/MOL
REMARK 924 INTRA-LIGAND FREE ENERGY PREDICTED BY IDOCK:   -0.53 KCAL/MOL
REMARK 927      BINDING AFFINITY PREDICTED BY RF-SCORE:    0.00 PKD
ROOT
HETATM    1  O   UNL     1     -11.312  16.884  64.156  1.00  0.00    -1.208 OA 
HETATM    2  C   UNL     1     -10.837  16.663  65.260  1.00  0.00    -0.183 C  
ENDROOT
BRANCH   2   3
HETATM    3  O   UNL     1     -10.535  15.445  65.767  1.00  0.00    -0.309 OA 
BRANCH   3   4
HETATM    4  C   UNL     1     -11.552  14.442  65.641  1.00  0.00    -0.347 C  
BRANCH   4   5
HETATM    5  C   UNL     1     -11.578  13.628  66.908  1.00  0.00    -0.397 A  
HETATM    6  C   UNL     1     -11.656  13.494  69.332  1.00  0.00    -0.369 A  
HETATM    7  C   UNL     1     -11.542  12.107  69.265  1.00  0.00    -0.377 A  
HETATM    8  C   UNL     1     -11.672  14.252  68.160  1.00  0.00    -0.385 A  
HETATM    9  C   UNL     1     -11.447  11.475  68.026  1.00  0.00    -0.381 A  
HETATM   10  C   UNL     1     -11.462  12.231  66.853  1.00  0.00    -0.418 A  
ENDBRANCH   4   5
ENDBRANCH   3   4
ENDBRANCH   2   3
BRANCH   2  11
HETATM   11  C   UNL     1     -10.519  17.744  66.234  1.00  0.00    -0.307 A  
HETATM   12  C   UNL     1      -9.926  19.691  68.162  1.00  0.00    -0.547 A  
HETATM   13  C   UNL     1     -10.162  17.370  67.537  1.00  0.00    -0.332 A  
HETATM   14  C   UNL     1      -9.867  18.340  68.498  1.00  0.00    -0.400 A  
HETATM   15  C   UNL     1     -10.571  19.105  65.902  1.00  0.00    -0.495 A  
HETATM   16  C   UNL     1     -10.274  20.074  66.866  1.00  0.00    -0.595 A  
ENDBRANCH   2  11
TORSDOF 4
ENDMDL
MODEL       11
REMARK 921   NORMALIZED FREE ENERGY PREDICTED BY IDOCK:   -5.68 KCAL/MOL
REMARK 922        TOTAL FREE ENERGY PREDICTED BY IDOCK:   -7.52 KCAL/MOL
REMARK 923 INTER-LIGAND FREE ENERGY PREDICTED BY IDOCK:   -7.18 KCAL/MOL
REMARK 924 INTRA-LIGAND FREE ENERGY PREDICTED BY IDOCK:   -0.34 KCAL/MOL
REMARK 927      BINDING AFFINITY PREDICTED BY RF-SCORE:    0.00 PKD
ROOT
HETATM    1  O   UNL     1     -11.139  11.842  68.438  1.00  0.00    -0.211 OA 
HETATM    2  C   UNL     1     -11.671  12.794  67.885  1.00  0.00    -0.357 C  
ENDROOT
BRANCH   2   3
HETATM    3  O   UNL     1     -12.229  13.862  68.501  1.00  0.00    -0.342 OA 
BRANCH   3   4
HETATM    4  C   UNL     1     -11.340  14.668  69.289  1.00  0.00    -0.286 C  
BRANCH   4   5
HETATM    5  C   UNL     1     -11.925  14.809  70.670  1.00  0.00    -0.371 A  
HETATM    6  C   UNL     1     -12.099  16.002  72.778  1.00  0.00    -0.635 A  
HETATM    7  C   UNL     1     -12.955  15.019  73.271  1.00  0.00    -0.642 A  
HETATM    8  C   UNL     1     -11.584  15.898  71.485  1.00  0.00    -0.537 A  
HETATM    9  C   UNL     1     -13.301  13.932  72.469  1.00  0.00    -0.656 A  
HETATM   10  C   UNL     1     -12.787  13.825  71.177  1.00  0.00    -0.409 A  
ENDBRANCH   4   5
ENDBRANCH   3   4
ENDBRANCH   2   3
BRANCH   2  11
HETATM   11  C   UNL     1     -11.786  12.908  66.405  1.00  0.00    -0.454 A  
HETATM   12  C   UNL     1     -11.921  13.019  63.607  1.00  0.00    -0.608 A  
HETATM   13  C   UNL     1     -11.302  11.847  65.626  1.00  0.00    -0.339 A  
HETATM   14  C   UNL     1     -11.369  11.903  64.232  1.00  0.00    -0.425 A  
HETATM   15  C   UNL     1     -12.345  14.025  65.769  1.00  0.00    -0.506 A  
HETATM   16  C   UNL     1     -12.411  14.077  64.373  1.00  0.00    -0.401 A  
ENDBRANCH   2  11
TORSDOF 4
ENDMDL
MODEL       12
REMARK 921   NORMALIZED FREE ENERGY PREDICTED BY IDOCK:   -5.68 KCAL/MOL
REMARK 922        TOTAL FREE ENERGY PREDICTED BY IDOCK:   -7.51 KCAL/MOL
REMARK 923 INTER-LIGAND FREE ENERGY PREDICTED BY IDOCK:   -6.86 KCAL/MOL
REMARK 924 INTRA-LIGAND FREE ENERGY PREDICTED BY IDOCK:   -0.65 KCAL/MOL
REMARK 927      BINDING AFFINITY PREDICTED BY RF-SCORE:    0.00 PKD
ROOT
HETATM    1  O   UNL     1     -10.950  14.699  68.917  1.00  0.00    -0.235 OA 
HETATM    2  C   UNL     1     -11.718  14.099  69.655  1.00  0.00    -0.316 C  
ENDROOT
BRANCH   2   3
HETATM    3  O   UNL     1     -12.206  12.854  69.451  1.00  0.00    -0.221 OA 
BRANCH   3   4
HETATM    4  C   UNL     1     -11.241  11.792  69.446  1.00  0.00    -0.234 C  
BRANCH   4   5
HETATM    5  C   UNL     1     -11.685  10.741  70.429  1.00  0.00    -0.445 A  
HETATM    6  C   UNL     1     -13.275   9.922  72.073  1.00  0.00    -0.555 A  
HETATM    7  C   UNL     1     -12.461   8.818  72.318  1.00  0.00    -0.455 A  
HETATM    8  C   UNL     1     -12.889  10.881  71.135  1.00  0.00    -0.508 A  
HETATM    9  C   UNL     1     -11.262   8.668  71.623  1.00  0.00    -0.379 A  
HETATM   10  C   UNL     1     -10.874   9.625  70.686  1.00  0.00    -0.386 A  
ENDBRANCH   4   5
ENDBRANCH   3   4
ENDBRANCH   2   3
BRANCH   2  11
HETATM   11  C   UNL     1     -12.241  14.681  70.922  1.00  0.00    -0.391 A  
HETATM   12  C   UNL     1     -13.346  15.750  73.265  1.00  0.00    -0.649 A  
HETATM   13  C   UNL     1     -13.594  14.477  71.228  1.00  0.00    -0.423 A  
HETATM   14  C   UNL     1     -14.145  15.011  72.395  1.00  0.00    -0.574 A  
HETATM   15  C   UNL     1     -11.442  15.421  71.805  1.00  0.00    -0.497 A  
HETATM   16  C   UNL     1     -11.997  15.953  72.973  1.00  0.00    -0.596 A  
ENDBRANCH   2  11
TORSDOF 4
ENDMDL
MODEL       13
REMARK 921   NORMALIZED FREE ENERGY PREDICTED BY IDOCK:   -5.66 KCAL/MOL
REMARK 922        TOTAL FREE ENERGY PREDICTED BY IDOCK:   -7.49 KCAL/MOL
REMARK 923 INTER-LIGAND FREE ENERGY PREDICTED BY IDOCK:   -6.99 KCAL/MOL
REMARK 924 INTRA-LIGAND FREE ENERGY PREDICTED BY IDOCK:   -0.50 KCAL/MOL
REMARK 927      BINDING AFFINITY PREDICTED BY RF-SCORE:    0.00 PKD
ROOT
HETATM    1  O   UNL     1     -11.168  10.755  70.344  1.00  0.00    -0.292 OA 
HETATM    2  C   UNL     1     -11.794  11.640  69.779  1.00  0.00    -0.357 C  
ENDROOT
BRANCH   2   3
HETATM    3  O   UNL     1     -12.092  11.687  68.460  1.00  0.00    -0.491 OA 
BRANCH   3   4
HETATM    4  C   UNL     1     -11.002  11.444  67.560  1.00  0.00    -0.260 C  
BRANCH   4   5
HETATM    5  C   UNL     1     -11.310  12.116  66.248  1.00  0.00    -0.411 A  
HETATM    6  C   UNL     1     -12.454  13.837  64.973  1.00  0.00    -0.449 A  
HETATM    7  C   UNL     1     -11.941  13.311  63.790  1.00  0.00    -0.551 A  
HETATM    8  C   UNL     1     -12.143  13.243  66.197  1.00  0.00    -0.477 A  
HETATM    9  C   UNL     1     -11.112  12.190  63.828  1.00  0.00    -0.505 A  
HETATM   10  C   UNL     1     -10.800  11.594  65.050  1.00  0.00    -0.346 A  
ENDBRANCH   4   5
ENDBRANCH   3   4
ENDBRANCH   2   3
BRANCH   2  11
HETATM   11  C   UNL     1     -12.328  12.833  70.494  1.00  0.00    -0.355 A  
HETATM   12  C   UNL     1     -13.406  14.998  71.912  1.00  0.00    -0.475 A  
HETATM   13  C   UNL     1     -13.054  12.620  71.675  1.00  0.00    -0.421 A  
HETATM   14  C   UNL     1     -13.592  13.698  72.380  1.00  0.00    -0.703 A  
HETATM   15  C   UNL     1     -12.141  14.143  70.031  1.00  0.00    -0.409 A  
HETATM   16  C   UNL     1     -12.680  15.221  70.741  1.00  0.00    -0.491 A  
ENDBRANCH   2  11
TORSDOF 4
ENDMDL
MODEL       14
REMARK 921   NORMALIZED FREE ENERGY PREDICTED BY IDOCK:   -5.63 KCAL/MOL
REMARK 922        TOTAL FREE ENERGY PREDICTED BY IDOCK:   -7.45 KCAL/MOL
REMARK 923 INTER-LIGAND FREE ENERGY PREDICTED BY IDOCK:   -7.13 KCAL/MOL
REMARK 924 INTRA-LIGAND FREE ENERGY PREDICTED BY IDOCK:   -0.32 KCAL/MOL
REMARK 927      BINDING AFFINITY PREDICTED BY RF-SCORE:    0.00 PKD
ROOT
HETATM    1  O   UNL     1     -10.250  14.767  68.840  1.00  0.00    -0.227 OA 
HETATM    2  C   UNL     1     -11.360  14.404  69.204  1.00  0.00    -0.277 C  
ENDROOT
BRANCH   2   3
HETATM    3  O   UNL     1     -12.238  13.677  68.475  1.00  0.00    -0.342 OA 
BRANCH   3   4
HETATM    4  C   UNL     1     -11.705  12.513  67.827  1.00  0.00    -0.359 C  
BRANCH   4   5
HETATM    5  C   UNL     1     -11.766  12.728  66.337  1.00  0.00    -0.464 A  
HETATM    6  C   UNL     1     -12.377  14.093  64.424  1.00  0.00    -0.410 A  
HETATM    7  C   UNL     1     -11.950  13.085  63.561  1.00  0.00    -0.615 A  
HETATM    8  C   UNL     1     -12.288  13.916  65.805  1.00  0.00    -0.518 A  
HETATM    9  C   UNL     1     -11.430  11.900  64.079  1.00  0.00    -0.480 A  
HETATM   10  C   UNL     1     -11.341  11.720  65.459  1.00  0.00    -0.283 A  
ENDBRANCH   4   5
ENDBRANCH   3   4
ENDBRANCH   2   3
BRANCH   2  11
HETATM   11  C   UNL     1     -11.915  14.729  70.547  1.00  0.00    -0.373 A  
HETATM   12  C   UNL     1     -13.045  15.242  73.061  1.00  0.00    -0.612 A  
HETATM   13  C   UNL     1     -12.778  13.798  71.143  1.00  0.00    -0.438 A  
HETATM   14  C   UNL     1     -13.342  14.054  72.395  1.00  0.00    -0.617 A  
HETATM   15  C   UNL     1     -11.617  15.918  71.225  1.00  0.00    -0.509 A  
HETATM   16  C   UNL     1     -12.181  16.171  72.480  1.00  0.00    -0.609 A  
ENDBRANCH   2  11
TORSDOF 4
ENDMDL
MODEL       15
REMARK 921   NORMALIZED FREE ENERGY PREDICTED BY IDOCK:   -5.58 KCAL/MOL
REMARK 922        TOTAL FREE ENERGY PREDICTED BY IDOCK:   -7.40 KCAL/MOL
REMARK 923 INTER-LIGAND FREE ENERGY PREDICTED BY IDOCK:   -6.87 KCAL/MOL
REMARK 924 INTRA-LIGAND FREE ENERGY PREDICTED BY IDOCK:   -0.52 KCAL/MOL
REMARK 927      BINDING AFFINITY PREDICTED BY RF-SCORE:    0.00 PKD
ROOT
HETATM    1  O   UNL     1     -11.278  10.803  70.448  1.00  0.00    -0.292 OA 
HETATM    2  C   UNL     1     -11.924  11.682  69.896  1.00  0.00    -0.340 C  
ENDROOT
BRANCH   2   3
HETATM    3  O   UNL     1     -12.269  11.714  68.587  1.00  0.00    -0.455 OA 
BRANCH   3   4
HETATM    4  C   UNL     1     -11.216  11.438  67.652  1.00  0.00    -0.283 C  
BRANCH   4   5
HETATM    5  C   UNL     1     -11.526  12.153  66.363  1.00  0.00    -0.430 A  
HETATM    6  C   UNL     1     -11.354  12.320  63.946  1.00  0.00    -0.501 A  
HETATM    7  C   UNL     1     -12.038  13.534  63.976  1.00  0.00    -0.494 A  
HETATM    8  C   UNL     1     -11.097  11.633  65.134  1.00  0.00    -0.300 A  
HETATM    9  C   UNL     1     -12.469  14.061  65.192  1.00  0.00    -0.472 A  
HETATM   10  C   UNL     1     -12.213  13.376  66.380  1.00  0.00    -0.435 A  
ENDBRANCH   4   5
ENDBRANCH   3   4
ENDBRANCH   2   3
BRANCH   2  11
HETATM   11  C   UNL     1     -12.433  12.883  70.614  1.00  0.00    -0.333 A  
HETATM   12  C   UNL     1     -13.312  15.218  71.894  1.00  0.00    -0.524 A  
HETATM   13  C   UNL     1     -12.127  14.144  70.083  1.00  0.00    -0.411 A  
HETATM   14  C   UNL     1     -12.563  15.308  70.722  1.00  0.00    -0.474 A  
HETATM   15  C   UNL     1     -13.190  12.801  71.791  1.00  0.00    -0.471 A  
HETATM   16  C   UNL     1     -13.628  13.967  72.427  1.00  0.00    -0.658 A  
ENDBRANCH   2  11
TORSDOF 4
ENDMDL
MODEL       16
REMARK 921   NORMALIZED FREE ENERGY PREDICTED BY IDOCK:   -5.57 KCAL/MOL
REMARK 922        TOTAL FREE ENERGY PREDICTED BY IDOCK:   -7.38 KCAL/MOL
REMARK 923 INTER-LIGAND FREE ENERGY PREDICTED BY IDOCK:   -7.03 KCAL/MOL
REMARK 924 INTRA-LIGAND FREE ENERGY PREDICTED BY IDOCK:   -0.34 KCAL/MOL
REMARK 927      BINDING AFFINITY PREDICTED BY RF-SCORE:    0.00 PKD
ROOT
HETATM    1  O   UNL     1     -10.097  14.410  69.053  1.00  0.00    -0.221 OA 
HETATM    2  C   UNL     1     -11.284  14.191  69.248  1.00  0.00    -0.269 C  
ENDROOT
BRANCH   2   3
HETATM    3  O   UNL     1     -12.157  13.679  68.350  1.00  0.00    -0.361 OA 
BRANCH   3   4
HETATM    4  C   UNL     1     -11.721  12.507  67.647  1.00  0.00    -0.361 C  
BRANCH   4   5
HETATM    5  C   UNL     1     -11.852  12.763  66.168  1.00  0.00    -0.484 A  
HETATM    6  C   UNL     1     -11.559  12.048  63.866  1.00  0.00    -0.536 A  
HETATM    7  C   UNL     1     -12.025  13.282  63.417  1.00  0.00    -0.491 A  
HETATM    8  C   UNL     1     -11.471  11.789  65.235  1.00  0.00    -0.250 A  
HETATM    9  C   UNL     1     -12.407  14.258  64.336  1.00  0.00    -0.417 A  
HETATM   10  C   UNL     1     -12.319  14.002  65.705  1.00  0.00    -0.502 A  
ENDBRANCH   4   5
ENDBRANCH   3   4
ENDBRANCH   2   3
BRANCH   2  11
HETATM   11  C   UNL     1     -11.953  14.473  70.548  1.00  0.00    -0.387 A  
HETATM   12  C   UNL     1     -13.128  15.100  73.015  1.00  0.00    -0.605 A  
HETATM   13  C   UNL     1     -11.626  15.665  71.210  1.00  0.00    -0.485 A  
HETATM   14  C   UNL     1     -12.211  15.977  72.440  1.00  0.00    -0.603 A  
HETATM   15  C   UNL     1     -12.881  13.598  71.131  1.00  0.00    -0.399 A  
HETATM   16  C   UNL     1     -13.466  13.914  72.361  1.00  0.00    -0.661 A  
ENDBRANCH   2  11
TORSDOF 4
ENDMDL
MODEL       17
REMARK 921   NORMALIZED FREE ENERGY PREDICTED BY IDOCK:   -5.56 KCAL/MOL
REMARK 922        TOTAL FREE ENERGY PREDICTED BY IDOCK:   -7.37 KCAL/MOL
REMARK 923 INTER-LIGAND FREE ENERGY PREDICTED BY IDOCK:   -7.01 KCAL/MOL
REMARK 924 INTRA-LIGAND FREE ENERGY PREDICTED BY IDOCK:   -0.36 KCAL/MOL
REMARK 927      BINDING AFFINITY PREDICTED BY RF-SCORE:    0.00 PKD
ROOT
HETATM    1  O   UNL     1     -11.345  16.117  68.692  1.00  0.00    -0.354 OA 
HETATM    2  C   UNL     1     -11.805  15.127  69.242  1.00  0.00    -0.320 C  
ENDROOT
BRANCH   2   3
HETATM    3  O   UNL     1     -12.038  13.928  68.660  1.00  0.00    -0.358 OA 
BRANCH   3   4
HETATM    4  C   UNL     1     -10.888  13.251  68.131  1.00  0.00    -0.251 C  
BRANCH   4   5
HETATM    5  C   UNL     1     -11.191  12.834  66.716  1.00  0.00    -0.338 A  
HETATM    6  C   UNL     1     -10.662  11.524  64.740  1.00  0.00    -0.366 A  
HETATM    7  C   UNL     1     -11.715  12.124  64.053  1.00  0.00    -0.515 A  
HETATM    8  C   UNL     1     -10.399  11.878  66.065  1.00  0.00    -0.268 A  
HETATM    9  C   UNL     1     -12.509  13.077  64.690  1.00  0.00    -0.460 A  
HETATM   10  C   UNL     1     -12.248  13.432  66.013  1.00  0.00    -0.491 A  
ENDBRANCH   4   5
ENDBRANCH   3   4
ENDBRANCH   2   3
BRANCH   2  11
HETATM   11  C   UNL     1     -12.188  15.109  70.681  1.00  0.00    -0.401 A  
HETATM   12  C   UNL     1     -12.999  14.983  73.362  1.00  0.00    -0.622 A  
HETATM   13  C   UNL     1     -13.013  14.066  71.127  1.00  0.00    -0.402 A  
HETATM   14  C   UNL     1     -13.418  14.004  72.463  1.00  0.00    -0.661 A  
HETATM   15  C   UNL     1     -11.767  16.087  71.593  1.00  0.00    -0.583 A  
HETATM   16  C   UNL     1     -12.173  16.021  72.929  1.00  0.00    -0.621 A  
ENDBRANCH   2  11
TORSDOF 4
ENDMDL
MODEL       18
REMARK 921   NORMALIZED FREE ENERGY PREDICTED BY IDOCK:   -5.55 KCAL/MOL
REMARK 922        TOTAL FREE ENERGY PREDICTED BY IDOCK:   -7.36 KCAL/MOL
REMARK 923 INTER-LIGAND FREE ENERGY PREDICTED BY IDOCK:   -6.82 KCAL/MOL
REMARK 924 INTRA-LIGAND FREE ENERGY PREDICTED BY IDOCK:   -0.54 KCAL/MOL
REMARK 927      BINDING AFFINITY PREDICTED BY RF-SCORE:    0.00 PKD
ROOT
HETATM    1  O   UNL     1     -10.429  10.560  67.747  1.00  0.00    -0.194 OA 
HETATM    2  C   UNL     1     -11.328  11.380  67.633  1.00  0.00    -0.290 C  
ENDROOT
BRANCH   2   3
HETATM    3  O   UNL     1     -12.235  11.705  68.583  1.00  0.00    -0.455 OA 
BRANCH   3   4
HETATM    4  C   UNL     1     -11.724  11.854  69.916  1.00  0.00    -0.308 C  
BRANCH   4   5
HETATM    5  C   UNL     1     -12.405  13.035  70.557  1.00  0.00    -0.365 A  
HETATM    6  C   UNL     1     -12.838  15.422  70.663  1.00  0.00    -0.484 A  
HETATM    7  C   UNL     1     -13.610  15.237  71.808  1.00  0.00    -0.581 A  
HETATM    8  C   UNL     1     -12.235  14.327  70.041  1.00  0.00    -0.417 A  
HETATM    9  C   UNL     1     -13.785  13.956  72.331  1.00  0.00    -0.678 A  
HETATM   10  C   UNL     1     -13.183  12.861  71.711  1.00  0.00    -0.479 A  
ENDBRANCH   4   5
ENDBRANCH   3   4
ENDBRANCH   2   3
BRANCH   2  11
HETATM   11  C   UNL     1     -11.557  12.158  66.384  1.00  0.00    -0.429 A  
HETATM   12  C   UNL     1     -11.900  13.547  63.973  1.00  0.00    -0.476 A  
HETATM   13  C   UNL     1     -11.037  11.646  65.187  1.00  0.00    -0.300 A  
HETATM   14  C   UNL     1     -11.207  12.338  63.986  1.00  0.00    -0.456 A  
HETATM   15  C   UNL     1     -12.258  13.372  66.362  1.00  0.00    -0.435 A  
HETATM   16  C   UNL     1     -12.428  14.062  65.158  1.00  0.00    -0.472 A  
ENDBRANCH   2  11
TORSDOF 4
ENDMDL
MODEL       19
REMARK 921   NORMALIZED FREE ENERGY PREDICTED BY IDOCK:   -5.54 KCAL/MOL
REMARK 922        TOTAL FREE ENERGY PREDICTED BY IDOCK:   -7.34 KCAL/MOL
REMARK 923 INTER-LIGAND FREE ENERGY PREDICTED BY IDOCK:   -7.17 KCAL/MOL
REMARK 924 INTRA-LIGAND FREE ENERGY PREDICTED BY IDOCK:   -0.17 KCAL/MOL
REMARK 927      BINDING AFFINITY PREDICTED BY RF-SCORE:    0.00 PKD
ROOT
HETATM    1  O   UNL     1     -11.838  16.426  63.842  1.00  0.00    -1.034 OA 
HETATM    2  C   UNL     1     -11.134  15.658  64.481  1.00  0.00    -0.286 C  
ENDROOT
BRANCH   2   3
HETATM    3  O   UNL     1     -10.199  16.009  65.395  1.00  0.00    -0.437 OA 
BRANCH   3   4
HETATM    4  C   UNL     1     -10.687  16.312  66.710  1.00  0.00    -0.204 C  
BRANCH   4   5
HETATM    5  C   UNL     1     -10.391  17.760  67.005  1.00  0.00    -0.344 A  
HETATM    6  C   UNL     1      -9.811  19.520  68.574  1.00  0.00    -0.518 A  
HETATM    7  C   UNL     1      -9.922  20.469  67.560  1.00  0.00    -0.497 A  
HETATM    8  C   UNL     1     -10.047  18.172  68.300  1.00  0.00    -0.398 A  
HETATM    9  C   UNL     1     -10.264  20.071  66.268  1.00  0.00    -0.595 A  
HETATM   10  C   UNL     1     -10.500  18.724  65.992  1.00  0.00    -0.483 A  
ENDBRANCH   4   5
ENDBRANCH   3   4
ENDBRANCH   2   3
BRANCH   2  11
HETATM   11  C   UNL     1     -11.211  14.179  64.332  1.00  0.00    -0.290 A  
HETATM   12  C   UNL     1     -11.231  11.386  64.089  1.00  0.00    -0.327 A  
HETATM   13  C   UNL     1     -10.162  13.411  64.858  1.00  0.00    -0.339 A  
HETATM   14  C   UNL     1     -10.171  12.019  64.736  1.00  0.00    -0.311 A  
HETATM   15  C   UNL     1     -12.276  13.534  63.688  1.00  0.00    -0.438 A  
HETATM   16  C   UNL     1     -12.283  12.140  63.568  1.00  0.00    -0.670 A  
ENDBRANCH   2  11
TORSDOF 4
ENDMDL
MODEL       20
REMARK 921   NORMALIZED FREE ENERGY PREDICTED BY IDOCK:   -5.53 KCAL/MOL
REMARK 922        TOTAL FREE ENERGY PREDICTED BY IDOCK:   -7.33 KCAL/MOL
REMARK 923 INTER-LIGAND FREE ENERGY PREDICTED BY IDOCK:   -7.02 KCAL/MOL
REMARK 924 INTRA-LIGAND FREE ENERGY PREDICTED BY IDOCK:   -0.31 KCAL/MOL
REMARK 927      BINDING AFFINITY PREDICTED BY RF-SCORE:    0.00 PKD
ROOT
HETATM    1  O   UNL     1     -11.918  14.254  67.633  1.00  0.00    -0.383 OA 
HETATM    2  C   UNL     1     -11.899  13.057  67.385  1.00  0.00    -0.357 C  
ENDROOT
BRANCH   2   3
HETATM    3  O   UNL     1     -12.048  12.056  68.283  1.00  0.00    -0.447 OA 
BRANCH   3   4
HETATM    4  C   UNL     1     -11.787  12.395  69.653  1.00  0.00    -0.311 C  
BRANCH   4   5
HETATM    5  C   UNL     1     -11.927  11.148  70.487  1.00  0.00    -0.475 A  
HETATM    6  C   UNL     1     -11.152   8.938  71.129  1.00  0.00    -0.354 A  
HETATM    7  C   UNL     1     -12.243   8.797  71.984  1.00  0.00    -0.447 A  
HETATM    8  C   UNL     1     -10.994  10.107  70.382  1.00  0.00    -0.386 A  
HETATM    9  C   UNL     1     -13.177   9.826  72.096  1.00  0.00    -0.530 A  
HETATM   10  C   UNL     1     -13.022  10.995  71.350  1.00  0.00    -0.517 A  
ENDBRANCH   4   5
ENDBRANCH   3   4
ENDBRANCH   2   3
BRANCH   2  11
HETATM   11  C   UNL     1     -11.697  12.521  66.011  1.00  0.00    -0.472 A  
HETATM   12  C   UNL     1     -11.199  11.471  63.459  1.00  0.00    -0.412 A  
HETATM   13  C   UNL     1     -10.601  11.675  65.791  1.00  0.00    -0.320 A  
HETATM   14  C   UNL     1     -10.352  11.153  64.519  1.00  0.00    -0.400 A  
HETATM   15  C   UNL     1     -12.548  12.832  64.941  1.00  0.00    -0.541 A  
HETATM   16  C   UNL     1     -12.297  12.306  63.670  1.00  0.00    -0.664 A  
ENDBRANCH   2  11
TORSDOF 4
ENDMDL
MODEL       21
REMARK 921   NORMALIZED FREE ENERGY PREDICTED BY IDOCK:   -5.52 KCAL/MOL
REMARK 922        TOTAL FREE ENERGY PREDICTED BY IDOCK:   -7.32 KCAL/MOL
REMARK 923 INTER-LIGAND FREE ENERGY PREDICTED BY IDOCK:   -6.83 KCAL/MOL
REMARK 924 INTRA-LIGAND FREE ENERGY PREDICTED BY IDOCK:   -0.50 KCAL/MOL
REMARK 927      BINDING AFFINITY PREDICTED BY RF-SCORE:    0.00 PKD
ROOT
HETATM    1  O   UNL     1      -9.944  10.712  67.634  1.00  0.00    -0.164 OA 
HETATM    2  C   UNL     1     -11.013  11.276  67.450  1.00  0.00    -0.282 C  
ENDROOT
BRANCH   2   3
HETATM    3  O   UNL     1     -12.043  11.334  68.325  1.00  0.00    -0.619 OA 
BRANCH   3   4
HETATM    4  C   UNL     1     -11.701  11.190  69.710  1.00  0.00    -0.345 C  
BRANCH   4   5
HETATM    5  C   UNL     1     -12.283  12.355  70.468  1.00  0.00    -0.382 A  
HETATM    6  C   UNL     1     -13.623  13.230  72.294  1.00  0.00    -0.703 A  
HETATM    7  C   UNL     1     -13.431  14.527  71.823  1.00  0.00    -0.458 A  
HETATM    8  C   UNL     1     -13.055  12.148  71.620  1.00  0.00    -0.413 A  
HETATM    9  C   UNL     1     -12.666  14.745  70.678  1.00  0.00    -0.415 A  
HETATM   10  C   UNL     1     -12.097  13.665  70.002  1.00  0.00    -0.417 A  
ENDBRANCH   4   5
ENDBRANCH   3   4
ENDBRANCH   2   3
BRANCH   2  11
HETATM   11  C   UNL     1     -11.337  11.999  66.188  1.00  0.00    -0.407 A  
HETATM   12  C   UNL     1     -11.867  13.279  63.751  1.00  0.00    -0.522 A  
HETATM   13  C   UNL     1     -10.923  11.425  64.978  1.00  0.00    -0.271 A  
HETATM   14  C   UNL     1     -11.186  12.063  63.764  1.00  0.00    -0.516 A  
HETATM   15  C   UNL     1     -12.027  13.219  66.167  1.00  0.00    -0.470 A  
HETATM   16  C   UNL     1     -12.290  13.855  64.950  1.00  0.00    -0.445 A  
ENDBRANCH   2  11
TORSDOF 4
ENDMDL
MODEL       22
REMARK 921   NORMALIZED FREE ENERGY PREDICTED BY IDOCK:   -5.51 KCAL/MOL
REMARK 922        TOTAL FREE ENERGY PREDICTED BY IDOCK:   -7.30 KCAL/MOL
REMARK 923 INTER-LIGAND FREE ENERGY PREDICTED BY IDOCK:   -6.95 KCAL/MOL
REMARK 924 INTRA-LIGAND FREE ENERGY PREDICTED BY IDOCK:   -0.36 KCAL/MOL
REMARK 927      BINDING AFFINITY PREDICTED BY RF-SCORE:    0.00 PKD
ROOT
HETATM    1  O   UNL     1     -10.682  16.384  66.873  1.00  0.00    -0.296 OA 
HETATM    2  C   UNL     1     -11.084  15.243  67.050  1.00  0.00    -0.305 C  
ENDROOT
BRANCH   2   3
HETATM    3  O   UNL     1     -11.414  14.691  68.240  1.00  0.00    -0.284 OA 
BRANCH   3   4
HETATM    4  C   UNL     1     -11.863  15.602  69.254  1.00  0.00    -0.363 C  
BRANCH   4   5
HETATM    5  C   UNL     1     -12.511  14.806  70.356  1.00  0.00    -0.405 A  
HETATM    6  C   UNL     1     -12.807  12.719  71.562  1.00  0.00    -0.369 A  
HETATM    7  C   UNL     1     -13.784  13.311  72.359  1.00  0.00    -0.678 A  
HETATM    8  C   UNL     1     -12.174  13.461  70.563  1.00  0.00    -0.425 A  
HETATM    9  C   UNL     1     -14.128  14.648  72.162  1.00  0.00    -0.604 A  
HETATM   10  C   UNL     1     -13.497  15.391  71.164  1.00  0.00    -0.565 A  
ENDBRANCH   4   5
ENDBRANCH   3   4
ENDBRANCH   2   3
BRANCH   2  11
HETATM   11  C   UNL     1     -11.266  14.270  65.937  1.00  0.00    -0.319 A  
HETATM   12  C   UNL     1     -11.727  12.411  63.890  1.00  0.00    -0.529 A  
HETATM   13  C   UNL     1     -12.550  13.748  65.725  1.00  0.00    -0.525 A  
HETATM   14  C   UNL     1     -12.780  12.821  64.706  1.00  0.00    -0.469 A  
HETATM   15  C   UNL     1     -10.214  13.857  65.109  1.00  0.00    -0.382 A  
HETATM   16  C   UNL     1     -10.447  12.929  64.088  1.00  0.00    -0.429 A  
ENDBRANCH   2  11
TORSDOF 4
ENDMDL
MODEL       23
REMARK 921   NORMALIZED FREE ENERGY PREDICTED BY IDOCK:   -5.49 KCAL/MOL
REMARK 922        TOTAL FREE ENERGY PREDICTED BY IDOCK:   -7.28 KCAL/MOL
REMARK 923 INTER-LIGAND FREE ENERGY PREDICTED BY IDOCK:   -6.97 KCAL/MOL
REMARK 924 INTRA-LIGAND FREE ENERGY PREDICTED BY IDOCK:   -0.31 KCAL/MOL
REMARK 927      BINDING AFFINITY PREDICTED BY RF-SCORE:    0.00 PKD
ROOT
HETATM    1  O   UNL     1     -11.707  12.792  69.643  1.00  0.00    -0.304 OA 
HETATM    2  C   UNL     1     -11.836  11.602  69.395  1.00  0.00    -0.342 C  
ENDROOT
BRANCH   2   3
HETATM    3  O   UNL     1     -11.901  11.048  68.162  1.00  0.00    -0.573 OA 
BRANCH   3   4
HETATM    4  C   UNL     1     -10.725  11.178  67.351  1.00  0.00    -0.250 C  
BRANCH   4   5
HETATM    5  C   UNL     1     -11.126  11.761  66.021  1.00  0.00    -0.363 A  
HETATM    6  C   UNL     1     -10.934  11.832  63.601  1.00  0.00    -0.513 A  
HETATM    7  C   UNL     1     -11.818  12.909  63.556  1.00  0.00    -0.605 A  
HETATM    8  C   UNL     1     -10.587  11.261  64.827  1.00  0.00    -0.376 A  
HETATM    9  C   UNL     1     -12.359  13.414  64.737  1.00  0.00    -0.444 A  
HETATM   10  C   UNL     1     -12.014  12.846  65.964  1.00  0.00    -0.505 A  
ENDBRANCH   4   5
ENDBRANCH   3   4
ENDBRANCH   2   3
BRANCH   2  11
HETATM   11  C   UNL     1     -11.946  10.563  70.456  1.00  0.00    -0.436 A  
HETATM   12  C   UNL     1     -12.043   8.557  72.412  1.00  0.00    -0.436 A  
HETATM   13  C   UNL     1     -10.822   9.766  70.715  1.00  0.00    -0.403 A  
HETATM   14  C   UNL     1     -10.870   8.766  71.689  1.00  0.00    -0.399 A  
HETATM   15  C   UNL     1     -13.121  10.350  71.192  1.00  0.00    -0.474 A  
HETATM   16  C   UNL     1     -13.165   9.349  72.167  1.00  0.00    -0.541 A  
ENDBRANCH   2  11
TORSDOF 4
ENDMDL
MODEL       24
REMARK 921   NORMALIZED FREE ENERGY PREDICTED BY IDOCK:   -5.47 KCAL/MOL
REMARK 922        TOTAL FREE ENERGY PREDICTED BY IDOCK:   -7.26 KCAL/MOL
REMARK 923 INTER-LIGAND FREE ENERGY PREDICTED BY IDOCK:   -6.72 KCAL/MOL
REMARK 924 INTRA-LIGAND FREE ENERGY PREDICTED BY IDOCK:   -0.54 KCAL/MOL
REMARK 927      BINDING AFFINITY PREDICTED BY RF-SCORE:    0.00 PKD
ROOT
HETATM    1  O   UNL     1     -10.094  17.168  67.267  1.00  0.00    -0.278 OA 
HETATM    2  C   UNL     1     -10.876  16.267  67.534  1.00  0.00    -0.268 C  
ENDROOT
BRANCH   2   3
HETATM    3  O   UNL     1     -11.643  16.183  68.646  1.00  0.00    -0.376 OA 
BRANCH   3   4
HETATM    4  C   UNL     1     -10.939  16.173  69.896  1.00  0.00    -0.362 C  
BRANCH   4   5
HETATM    5  C   UNL     1     -11.769  15.420  70.904  1.00  0.00    -0.395 A  
HETATM    6  C   UNL     1     -13.014  13.441  71.558  1.00  0.00    -0.429 A  
HETATM    7  C   UNL     1     -13.381  14.060  72.751  1.00  0.00    -0.603 A  
HETATM    8  C   UNL     1     -12.214  14.118  70.636  1.00  0.00    -0.432 A  
HETATM    9  C   UNL     1     -12.945  15.355  73.027  1.00  0.00    -0.598 A  
HETATM   10  C   UNL     1     -12.145  16.033  72.108  1.00  0.00    -0.611 A  
ENDBRANCH   4   5
ENDBRANCH   3   4
ENDBRANCH   2   3
BRANCH   2  11
HETATM   11  C   UNL     1     -11.095  15.096  66.641  1.00  0.00    -0.308 A  
HETATM   12  C   UNL     1     -11.425  12.945  64.874  1.00  0.00    -0.351 A  
HETATM   13  C   UNL     1     -10.231  14.933  65.549  1.00  0.00    -0.401 A  
HETATM   14  C   UNL     1     -10.396  13.862  64.668  1.00  0.00    -0.366 A  
HETATM   15  C   UNL     1     -12.124  14.166  66.846  1.00  0.00    -0.466 A  
HETATM   16  C   UNL     1     -12.286  13.094  65.962  1.00  0.00    -0.478 A  
ENDBRANCH   2  11
TORSDOF 4
ENDMDL
MODEL       25
REMARK 921   NORMALIZED FREE ENERGY PREDICTED BY IDOCK:   -5.47 KCAL/MOL
REMARK 922        TOTAL FREE ENERGY PREDICTED BY IDOCK:   -7.25 KCAL/MOL
REMARK 923 INTER-LIGAND FREE ENERGY PREDICTED BY IDOCK:   -6.96 KCAL/MOL
REMARK 924 INTRA-LIGAND FREE ENERGY PREDICTED BY IDOCK:   -0.29 KCAL/MOL
REMARK 927      BINDING AFFINITY PREDICTED BY RF-SCORE:    0.00 PKD
ROOT
HETATM    1  O   UNL     1     -11.273  16.904  64.448  1.00  0.00    -1.159 OA 
HETATM    2  C   UNL     1     -10.748  16.701  65.533  1.00  0.00    -0.223 C  
ENDROOT
BRANCH   2   3
HETATM    3  O   UNL     1     -10.330  15.503  66.002  1.00  0.00    -0.289 OA 
BRANCH   3   4
HETATM    4  C   UNL     1     -11.361  14.564  66.338  1.00  0.00    -0.349 C  
BRANCH   4   5
HETATM    5  C   UNL     1     -11.249  13.382  65.411  1.00  0.00    -0.303 A  
HETATM    6  C   UNL     1      -9.925  11.633  64.368  1.00  0.00    -0.298 A  
HETATM    7  C   UNL     1     -11.031  11.234  63.620  1.00  0.00    -0.369 A  
HETATM    8  C   UNL     1     -10.031  12.704  65.258  1.00  0.00    -0.215 A  
HETATM    9  C   UNL     1     -12.246  11.901  63.764  1.00  0.00    -0.549 A  
HETATM   10  C   UNL     1     -12.355  12.971  64.653  1.00  0.00    -0.480 A  
ENDBRANCH   4   5
ENDBRANCH   3   4
ENDBRANCH   2   3
BRANCH   2  11
HETATM   11  C   UNL     1     -10.495  17.784  66.523  1.00  0.00    -0.297 A  
HETATM   12  C   UNL     1      -9.996  19.906  68.286  1.00  0.00    -0.552 A  
HETATM   13  C   UNL     1     -10.438  19.104  66.051  1.00  0.00    -0.546 A  
HETATM   14  C   UNL     1     -10.188  20.160  66.930  1.00  0.00    -0.566 A  
HETATM   15  C   UNL     1     -10.306  17.536  67.889  1.00  0.00    -0.371 A  
HETATM   16  C   UNL     1     -10.057  18.597  68.766  1.00  0.00    -0.398 A  
ENDBRANCH   2  11
TORSDOF 4
ENDMDL
MODEL       26
REMARK 921   NORMALIZED FREE ENERGY PREDICTED BY IDOCK:   -5.46 KCAL/MOL
REMARK 922        TOTAL FREE ENERGY PREDICTED BY IDOCK:   -7.25 KCAL/MOL
REMARK 923 INTER-LIGAND FREE ENERGY PREDICTED BY IDOCK:   -6.91 KCAL/MOL
REMARK 924 INTRA-LIGAND FREE ENERGY PREDICTED BY IDOCK:   -0.34 KCAL/MOL
REMARK 927      BINDING AFFINITY PREDICTED BY RF-SCORE:    0.00 PKD
ROOT
HETATM    1  O   UNL     1     -11.744  12.735  69.623  1.00  0.00    -0.304 OA 
HETATM    2  C   UNL     1     -11.808  11.543  69.358  1.00  0.00    -0.350 C  
ENDROOT
BRANCH   2   3
HETATM    3  O   UNL     1     -11.870  11.006  68.118  1.00  0.00    -0.573 OA 
BRANCH   3   4
HETATM    4  C   UNL     1     -10.694  11.153  67.309  1.00  0.00    -0.258 C  
BRANCH   4   5
HETATM    5  C   UNL     1     -11.109  11.666  65.954  1.00  0.00    -0.320 A  
HETATM    6  C   UNL     1     -10.948  11.605  63.532  1.00  0.00    -0.485 A  
HETATM    7  C   UNL     1     -11.827  12.683  63.441  1.00  0.00    -0.594 A  
HETATM    8  C   UNL     1     -10.588  11.100  64.782  1.00  0.00    -0.371 A  
HETATM    9  C   UNL     1     -12.351  13.254  64.600  1.00  0.00    -0.447 A  
HETATM   10  C   UNL     1     -11.993  12.751  65.850  1.00  0.00    -0.506 A  
ENDBRANCH   4   5
ENDBRANCH   3   4
ENDBRANCH   2   3
BRANCH   2  11
HETATM   11  C   UNL     1     -11.831  10.484  70.404  1.00  0.00    -0.431 A  
HETATM   12  C   UNL     1     -11.987   8.537  72.415  1.00  0.00    -0.434 A  
HETATM   13  C   UNL     1     -13.026  10.284  71.110  1.00  0.00    -0.503 A  
HETATM   14  C   UNL     1     -13.103   9.315  72.113  1.00  0.00    -0.520 A  
HETATM   15  C   UNL     1     -10.714   9.694  70.710  1.00  0.00    -0.401 A  
HETATM   16  C   UNL     1     -10.796   8.723  71.714  1.00  0.00    -0.416 A  
ENDBRANCH   2  11
TORSDOF 4
ENDMDL
MODEL       27
REMARK 921   NORMALIZED FREE ENERGY PREDICTED BY IDOCK:   -5.44 KCAL/MOL
REMARK 922        TOTAL FREE ENERGY PREDICTED BY IDOCK:   -7.22 KCAL/MOL
REMARK 923 INTER-LIGAND FREE ENERGY PREDICTED BY IDOCK:   -6.91 KCAL/MOL
REMARK 924 INTRA-LIGAND FREE ENERGY PREDICTED BY IDOCK:   -0.32 KCAL/MOL
REMARK 927      BINDING AFFINITY PREDICTED BY RF-SCORE:    0.00 PKD
ROOT
HETATM    1  O   UNL     1     -11.926  12.821  69.756  1.00  0.00    -0.314 OA 
HETATM    2  C   UNL     1     -11.966  11.639  69.446  1.00  0.00    -0.316 C  
ENDROOT
BRANCH   2   3
HETATM    3  O   UNL     1     -12.013  11.148  68.186  1.00  0.00    -0.615 OA 
BRANCH   3   4
HETATM    4  C   UNL     1     -10.795  11.231  67.432  1.00  0.00    -0.262 C  
BRANCH   4   5
HETATM    5  C   UNL     1     -11.124  11.732  66.050  1.00  0.00    -0.363 A  
HETATM    6  C   UNL     1     -12.383  13.199  64.579  1.00  0.00    -0.447 A  
HETATM    7  C   UNL     1     -11.790  12.602  63.468  1.00  0.00    -0.619 A  
HETATM    8  C   UNL     1     -12.054  12.765  65.865  1.00  0.00    -0.485 A  
HETATM    9  C   UNL     1     -10.864  11.574  63.641  1.00  0.00    -0.488 A  
HETATM   10  C   UNL     1     -10.535  11.139  64.924  1.00  0.00    -0.372 A  
ENDBRANCH   4   5
ENDBRANCH   3   4
ENDBRANCH   2   3
BRANCH   2  11
HETATM   11  C   UNL     1     -11.972  10.541  70.452  1.00  0.00    -0.425 A  
HETATM   12  C   UNL     1     -12.099   8.517  72.387  1.00  0.00    -0.436 A  
HETATM   13  C   UNL     1     -13.168  10.286  71.138  1.00  0.00    -0.429 A  
HETATM   14  C   UNL     1     -13.230   9.279  72.104  1.00  0.00    -0.535 A  
HETATM   15  C   UNL     1     -10.839   9.767  70.739  1.00  0.00    -0.403 A  
HETATM   16  C   UNL     1     -10.905   8.758  71.705  1.00  0.00    -0.399 A  
ENDBRANCH   2  11
TORSDOF 4
ENDMDL
MODEL       28
REMARK 921   NORMALIZED FREE ENERGY PREDICTED BY IDOCK:   -5.43 KCAL/MOL
REMARK 922        TOTAL FREE ENERGY PREDICTED BY IDOCK:   -7.21 KCAL/MOL
REMARK 923 INTER-LIGAND FREE ENERGY PREDICTED BY IDOCK:   -6.87 KCAL/MOL
REMARK 924 INTRA-LIGAND FREE ENERGY PREDICTED BY IDOCK:   -0.34 KCAL/MOL
REMARK 927      BINDING AFFINITY PREDICTED BY RF-SCORE:    0.00 PKD
ROOT
HETATM    1  O   UNL     1     -12.152  14.251  67.432  1.00  0.00    -0.400 OA 
HETATM    2  C   UNL     1     -12.012  13.049  67.259  1.00  0.00    -0.321 C  
ENDROOT
BRANCH   2   3
HETATM    3  O   UNL     1     -12.210  12.083  68.187  1.00  0.00    -0.428 OA 
BRANCH   3   4
HETATM    4  C   UNL     1     -11.782  12.396  69.520  1.00  0.00    -0.322 C  
BRANCH   4   5
HETATM    5  C   UNL     1     -11.869  11.143  70.353  1.00  0.00    -0.462 A  
HETATM    6  C   UNL     1     -11.065   8.923  70.918  1.00  0.00    -0.328 A  
HETATM    7  C   UNL     1     -12.089   8.783  71.853  1.00  0.00    -0.433 A  
HETATM    8  C   UNL     1     -10.955  10.096  70.170  1.00  0.00    -0.376 A  
HETATM    9  C   UNL     1     -13.004   9.818  72.043  1.00  0.00    -0.515 A  
HETATM   10  C   UNL     1     -12.896  10.992  71.296  1.00  0.00    -0.528 A  
ENDBRANCH   4   5
ENDBRANCH   3   4
ENDBRANCH   2   3
BRANCH   2  11
HETATM   11  C   UNL     1     -11.586  12.464  65.958  1.00  0.00    -0.455 A  
HETATM   12  C   UNL     1     -10.902  11.389  63.460  1.00  0.00    -0.430 A  
HETATM   13  C   UNL     1     -12.415  12.666  64.845  1.00  0.00    -0.564 A  
HETATM   14  C   UNL     1     -12.075  12.129  63.601  1.00  0.00    -0.648 A  
HETATM   15  C   UNL     1     -10.406  11.723  65.808  1.00  0.00    -0.293 A  
HETATM   16  C   UNL     1     -10.068  11.188  64.560  1.00  0.00    -0.364 A  
ENDBRANCH   2  11
TORSDOF 4
ENDMDL
MODEL       29
REMARK 921   NORMALIZED FREE ENERGY PREDICTED BY IDOCK:   -5.42 KCAL/MOL
REMARK 922        TOTAL FREE ENERGY PREDICTED BY IDOCK:   -7.19 KCAL/MOL
REMARK 923 INTER-LIGAND FREE ENERGY PREDICTED BY IDOCK:   -6.42 KCAL/MOL
REMARK 924 INTRA-LIGAND FREE ENERGY PREDICTED BY IDOCK:   -0.77 KCAL/MOL
REMARK 927      BINDING AFFINITY PREDICTED BY RF-SCORE:    0.00 PKD
ROOT
HETATM    1  O   UNL     1     -11.289  16.759  64.133  1.00  0.00    -1.194 OA 
HETATM    2  C   UNL     1     -10.819  15.992  64.960  1.00  0.00    -0.404 C  
ENDROOT
BRANCH   2   3
HETATM    3  O   UNL     1     -10.950  14.645  64.962  1.00  0.00    -0.356 OA 
BRANCH   3   4
HETATM    4  C   UNL     1     -12.206  14.136  65.432  1.00  0.00    -0.433 C  
BRANCH   4   5
HETATM    5  C   UNL     1     -11.978  13.455  66.756  1.00  0.00    -0.447 A  
HETATM    6  C   UNL     1     -11.846  13.538  69.180  1.00  0.00    -0.386 A  
HETATM    7  C   UNL     1     -11.471  12.196  69.211  1.00  0.00    -0.363 A  
HETATM    8  C   UNL     1     -12.097  14.166  67.959  1.00  0.00    -0.303 A  
HETATM    9  C   UNL     1     -11.349  11.479  68.022  1.00  0.00    -0.368 A  
HETATM   10  C   UNL     1     -11.599  12.105  66.800  1.00  0.00    -0.412 A  
ENDBRANCH   4   5
ENDBRANCH   3   4
ENDBRANCH   2   3
BRANCH   2  11
HETATM   11  C   UNL     1     -10.012  16.455  66.123  1.00  0.00    -0.360 A  
HETATM   12  C   UNL     1      -8.588  17.413  68.340  1.00  0.00    -0.270 A  
HETATM   13  C   UNL     1     -10.636  17.284  67.066  1.00  0.00    -0.231 A  
HETATM   14  C   UNL     1      -9.926  17.763  68.170  1.00  0.00    -0.342 A  
HETATM   15  C   UNL     1      -8.667  16.104  66.303  1.00  0.00    -0.373 A  
HETATM   16  C   UNL     1      -7.959  16.583  67.410  1.00  0.00    -0.175 A  
ENDBRANCH   2  11
TORSDOF 4
ENDMDL
MODEL       30
REMARK 921   NORMALIZED FREE ENERGY PREDICTED BY IDOCK:   -5.41 KCAL/MOL
REMARK 922        TOTAL FREE ENERGY PREDICTED BY IDOCK:   -7.18 KCAL/MOL
REMARK 923 INTER-LIGAND FREE ENERGY PREDICTED BY IDOCK:   -6.46 KCAL/MOL
REMARK 924 INTRA-LIGAND FREE ENERGY PREDICTED BY IDOCK:   -0.73 KCAL/MOL
REMARK 927      BINDING AFFINITY PREDICTED BY RF-SCORE:    0.00 PKD
ROOT
HETATM    1  O   UNL     1     -12.254  13.838  67.033  1.00  0.00    -0.401 OA 
HETATM    2  C   UNL     1     -11.736  13.705  68.132  1.00  0.00    -0.357 C  
ENDROOT
BRANCH   2   3
HETATM    3  O   UNL     1     -11.190  14.692  68.879  1.00  0.00    -0.242 OA 
BRANCH   3   4
HETATM    4  C   UNL     1     -12.063  15.777  69.224  1.00  0.00    -0.207 C  
BRANCH   4   5
HETATM    5  C   UNL     1     -12.483  15.612  70.661  1.00  0.00    -0.463 A  
HETATM    6  C   UNL     1     -11.959  15.648  73.032  1.00  0.00    -0.590 A  
HETATM    7  C   UNL     1     -13.252  15.223  73.330  1.00  0.00    -0.531 A  
HETATM    8  C   UNL     1     -11.574  15.840  71.704  1.00  0.00    -0.537 A  
HETATM    9  C   UNL     1     -14.164  14.993  72.301  1.00  0.00    -0.594 A  
HETATM   10  C   UNL     1     -13.782  15.184  70.973  1.00  0.00    -0.450 A  
ENDBRANCH   4   5
ENDBRANCH   3   4
ENDBRANCH   2   3
BRANCH   2  11
HETATM   11  C   UNL     1     -11.629  12.389  68.820  1.00  0.00    -0.373 A  
HETATM   12  C   UNL     1     -11.404   9.855  70.000  1.00  0.00    -0.303 A  
HETATM   13  C   UNL     1     -11.110  11.308  68.093  1.00  0.00    -0.319 A  
HETATM   14  C   UNL     1     -10.999  10.046  68.680  1.00  0.00    -0.247 A  
HETATM   15  C   UNL     1     -12.029  12.191  70.149  1.00  0.00    -0.394 A  
HETATM   16  C   UNL     1     -11.915  10.926  70.735  1.00  0.00    -0.449 A  
ENDBRANCH   2  11
TORSDOF 4
ENDMDL
MODEL       31
REMARK 921   NORMALIZED FREE ENERGY PREDICTED BY IDOCK:   -5.41 KCAL/MOL
REMARK 922        TOTAL FREE ENERGY PREDICTED BY IDOCK:   -7.18 KCAL/MOL
REMARK 923 INTER-LIGAND FREE ENERGY PREDICTED BY IDOCK:   -6.84 KCAL/MOL
REMARK 924 INTRA-LIGAND FREE ENERGY PREDICTED BY IDOCK:   -0.34 KCAL/MOL
REMARK 927      BINDING AFFINITY PREDICTED BY RF-SCORE:    0.00 PKD
ROOT
HETATM    1  O   UNL     1      -9.712  10.868  67.645  1.00  0.00    -0.168 OA 
HETATM    2  C   UNL     1     -10.837  11.253  67.362  1.00  0.00    -0.262 C  
ENDROOT
BRANCH   2   3
HETATM    3  O   UNL     1     -11.911  11.244  68.185  1.00  0.00    -0.610 OA 
BRANCH   3   4
HETATM    4  C   UNL     1     -11.688  11.729  69.517  1.00  0.00    -0.343 C  
BRANCH   4   5
HETATM    5  C   UNL     1     -11.798  10.568  70.471  1.00  0.00    -0.442 A  
HETATM    6  C   UNL     1     -13.107   9.198  71.989  1.00  0.00    -0.497 A  
HETATM    7  C   UNL     1     -11.972   8.456  72.307  1.00  0.00    -0.455 A  
HETATM    8  C   UNL     1     -13.022  10.251  71.077  1.00  0.00    -0.488 A  
HETATM    9  C   UNL     1     -10.750   8.762  71.711  1.00  0.00    -0.413 A  
HETATM   10  C   UNL     1     -10.661   9.814  70.799  1.00  0.00    -0.393 A  
ENDBRANCH   4   5
ENDBRANCH   3   4
ENDBRANCH   2   3
BRANCH   2  11
HETATM   11  C   UNL     1     -11.190  11.802  66.024  1.00  0.00    -0.352 A  
HETATM   12  C   UNL     1     -11.943  12.911  63.561  1.00  0.00    -0.629 A  
HETATM   13  C   UNL     1     -11.991  12.952  65.976  1.00  0.00    -0.505 A  
HETATM   14  C   UNL     1     -12.368  13.504  64.749  1.00  0.00    -0.435 A  
HETATM   15  C   UNL     1     -10.763  11.215  64.825  1.00  0.00    -0.334 A  
HETATM   16  C   UNL     1     -11.140  11.771  63.598  1.00  0.00    -0.518 A  
ENDBRANCH   2  11
TORSDOF 4
ENDMDL
MODEL       32
REMARK 921   NORMALIZED FREE ENERGY PREDICTED BY IDOCK:   -5.41 KCAL/MOL
REMARK 922        TOTAL FREE ENERGY PREDICTED BY IDOCK:   -7.18 KCAL/MOL
REMARK 923 INTER-LIGAND FREE ENERGY PREDICTED BY IDOCK:   -6.69 KCAL/MOL
REMARK 924 INTRA-LIGAND FREE ENERGY PREDICTED BY IDOCK:   -0.49 KCAL/MOL
REMARK 927      BINDING AFFINITY PREDICTED BY RF-SCORE:    0.00 PKD
ROOT
HETATM    1  O   UNL     1     -11.779  15.698  69.565  1.00  0.00    -0.328 OA 
HETATM    2  C   UNL     1     -11.753  14.525  69.221  1.00  0.00    -0.310 C  
ENDROOT
BRANCH   2   3
HETATM    3  O   UNL     1     -11.328  14.056  68.025  1.00  0.00    -0.266 OA 
BRANCH   3   4
HETATM    4  C   UNL     1     -12.275  14.124  66.950  1.00  0.00    -0.365 C  
BRANCH   4   5
HETATM    5  C   UNL     1     -11.783  13.250  65.826  1.00  0.00    -0.395 A  
HETATM    6  C   UNL     1     -11.724  12.675  63.467  1.00  0.00    -0.604 A  
HETATM    7  C   UNL     1     -10.926  11.568  63.751  1.00  0.00    -0.485 A  
HETATM    8  C   UNL     1     -12.153  13.511  64.499  1.00  0.00    -0.460 A  
HETATM    9  C   UNL     1     -10.552  11.299  65.066  1.00  0.00    -0.353 A  
HETATM   10  C   UNL     1     -10.979  12.133  66.099  1.00  0.00    -0.335 A  
ENDBRANCH   4   5
ENDBRANCH   3   4
ENDBRANCH   2   3
BRANCH   2  11
HETATM   11  C   UNL     1     -12.207  13.415  70.103  1.00  0.00    -0.385 A  
HETATM   12  C   UNL     1     -13.099  11.414  71.853  1.00  0.00    -0.505 A  
HETATM   13  C   UNL     1     -12.997  13.741  71.215  1.00  0.00    -0.409 A  
HETATM   14  C   UNL     1     -13.441  12.745  72.087  1.00  0.00    -0.591 A  
HETATM   15  C   UNL     1     -11.872  12.074  69.871  1.00  0.00    -0.405 A  
HETATM   16  C   UNL     1     -12.319  11.078  70.745  1.00  0.00    -0.496 A  
ENDBRANCH   2  11
TORSDOF 4
ENDMDL
MODEL       33
REMARK 921   NORMALIZED FREE ENERGY PREDICTED BY IDOCK:   -5.35 KCAL/MOL
REMARK 922        TOTAL FREE ENERGY PREDICTED BY IDOCK:   -7.11 KCAL/MOL
REMARK 923 INTER-LIGAND FREE ENERGY PREDICTED BY IDOCK:   -6.72 KCAL/MOL
REMARK 924 INTRA-LIGAND FREE ENERGY PREDICTED BY IDOCK:   -0.39 KCAL/MOL
REMARK 927      BINDING AFFINITY PREDICTED BY RF-SCORE:    0.00 PKD
ROOT
HETATM    1  O   UNL     1     -11.296  16.753  64.250  1.00  0.00    -1.170 OA 
HETATM    2  C   UNL     1     -10.785  16.601  65.351  1.00  0.00    -0.215 C  
ENDROOT
BRANCH   2   3
HETATM    3  O   UNL     1     -10.386  15.425  65.887  1.00  0.00    -0.297 OA 
BRANCH   3   4
HETATM    4  C   UNL     1     -10.418  14.290  65.010  1.00  0.00    -0.435 C  
BRANCH   4   5
HETATM    5  C   UNL     1     -10.637  13.052  65.840  1.00  0.00    -0.288 A  
HETATM    6  C   UNL     1     -10.564  10.638  66.093  1.00  0.00    -0.211 A  
HETATM    7  C   UNL     1     -11.124  10.749  67.365  1.00  0.00    -0.363 A  
HETATM    8  C   UNL     1     -10.323  11.784  65.333  1.00  0.00    -0.311 A  
HETATM    9  C   UNL     1     -11.441  12.005  67.879  1.00  0.00    -0.396 A  
HETATM   10  C   UNL     1     -11.201  13.151  67.121  1.00  0.00    -0.326 A  
ENDBRANCH   4   5
ENDBRANCH   3   4
ENDBRANCH   2   3
BRANCH   2  11
HETATM   11  C   UNL     1     -10.528  17.732  66.285  1.00  0.00    -0.307 A  
HETATM   12  C   UNL     1     -10.058  19.779  68.142  1.00  0.00    -0.574 A  
HETATM   13  C   UNL     1     -10.295  17.430  67.634  1.00  0.00    -0.355 A  
HETATM   14  C   UNL     1     -10.063  18.449  68.560  1.00  0.00    -0.413 A  
HETATM   15  C   UNL     1     -10.517  19.072  65.871  1.00  0.00    -0.468 A  
HETATM   16  C   UNL     1     -10.282  20.090  66.800  1.00  0.00    -0.592 A  
ENDBRANCH   2  11
TORSDOF 4
ENDMDL
MODEL       34
REMARK 921   NORMALIZED FREE ENERGY PREDICTED BY IDOCK:   -5.35 KCAL/MOL
REMARK 922        TOTAL FREE ENERGY PREDICTED BY IDOCK:   -7.11 KCAL/MOL
REMARK 923 INTER-LIGAND FREE ENERGY PREDICTED BY IDOCK:   -6.60 KCAL/MOL
REMARK 924 INTRA-LIGAND FREE ENERGY PREDICTED BY IDOCK:   -0.52 KCAL/MOL
REMARK 927      BINDING AFFINITY PREDICTED BY RF-SCORE:    0.00 PKD
ROOT
HETATM    1  O   UNL     1     -11.829  15.677  69.784  1.00  0.00    -0.332 OA 
HETATM    2  C   UNL     1     -11.806  14.503  69.441  1.00  0.00    -0.325 C  
ENDROOT
BRANCH   2   3
HETATM    3  O   UNL     1     -11.374  14.032  68.249  1.00  0.00    -0.259 OA 
BRANCH   3   4
HETATM    4  C   UNL     1     -12.067  14.521  67.091  1.00  0.00    -0.269 C  
BRANCH   4   5
HETATM    5  C   UNL     1     -11.811  13.573  65.948  1.00  0.00    -0.405 A  
HETATM    6  C   UNL     1     -10.893  11.493  65.093  1.00  0.00    -0.326 A  
HETATM    7  C   UNL     1     -11.267  11.853  63.800  1.00  0.00    -0.519 A  
HETATM    8  C   UNL     1     -11.161  12.349  66.163  1.00  0.00    -0.364 A  
HETATM    9  C   UNL     1     -11.913  13.068  63.575  1.00  0.00    -0.615 A  
HETATM   10  C   UNL     1     -12.182  13.925  64.642  1.00  0.00    -0.449 A  
ENDBRANCH   4   5
ENDBRANCH   3   4
ENDBRANCH   2   3
BRANCH   2  11
HETATM   11  C   UNL     1     -12.271  13.396  70.321  1.00  0.00    -0.405 A  
HETATM   12  C   UNL     1     -13.111  11.225  71.884  1.00  0.00    -0.510 A  
HETATM   13  C   UNL     1     -11.920  12.085  69.967  1.00  0.00    -0.400 A  
HETATM   14  C   UNL     1     -12.339  11.003  70.745  1.00  0.00    -0.496 A  
HETATM   15  C   UNL     1     -13.043  13.611  71.471  1.00  0.00    -0.431 A  
HETATM   16  C   UNL     1     -13.460  12.526  72.249  1.00  0.00    -0.490 A  
ENDBRANCH   2  11
TORSDOF 4
ENDMDL
MODEL       35
REMARK 921   NORMALIZED FREE ENERGY PREDICTED BY IDOCK:   -5.31 KCAL/MOL
REMARK 922        TOTAL FREE ENERGY PREDICTED BY IDOCK:   -7.07 KCAL/MOL
REMARK 923 INTER-LIGAND FREE ENERGY PREDICTED BY IDOCK:   -6.49 KCAL/MOL
REMARK 924 INTRA-LIGAND FREE ENERGY PREDICTED BY IDOCK:   -0.58 KCAL/MOL
REMARK 927      BINDING AFFINITY PREDICTED BY RF-SCORE:    0.00 PKD
ROOT
HETATM    1  O   UNL     1     -11.322  13.615  68.816  1.00  0.00    -0.253 OA 
HETATM    2  C   UNL     1     -11.682  14.700  69.247  1.00  0.00    -0.312 C  
ENDROOT
BRANCH   2   3
HETATM    3  O   UNL     1     -11.754  15.853  68.542  1.00  0.00    -0.383 OA 
BRANCH   3   4
HETATM    4  C   UNL     1     -10.743  16.042  67.541  1.00  0.00    -0.314 C  
BRANCH   4   5
HETATM    5  C   UNL     1      -9.822  17.144  67.996  1.00  0.00    -0.283 A  
HETATM    6  C   UNL     1      -7.628  17.906  68.703  1.00  0.00    -0.285 A  
HETATM    7  C   UNL     1      -8.136  19.185  68.922  1.00  0.00    -0.329 A  
HETATM    8  C   UNL     1      -8.466  16.889  68.244  1.00  0.00    -0.229 A  
HETATM    9  C   UNL     1      -9.483  19.450  68.680  1.00  0.00    -0.466 A  
HETATM   10  C   UNL     1     -10.323  18.434  68.222  1.00  0.00    -0.384 A  
ENDBRANCH   4   5
ENDBRANCH   3   4
ENDBRANCH   2   3
BRANCH   2  11
HETATM   11  C   UNL     1     -12.103  14.909  70.660  1.00  0.00    -0.366 A  
HETATM   12  C   UNL     1     -12.991  15.214  73.302  1.00  0.00    -0.645 A  
HETATM   13  C   UNL     1     -13.031  14.011  71.208  1.00  0.00    -0.418 A  
HETATM   14  C   UNL     1     -13.475  14.164  72.524  1.00  0.00    -0.634 A  
HETATM   15  C   UNL     1     -11.617  15.959  71.451  1.00  0.00    -0.529 A  
HETATM   16  C   UNL     1     -12.062  16.109  72.769  1.00  0.00    -0.653 A  
ENDBRANCH   2  11
TORSDOF 4
ENDMDL
MODEL       36
REMARK 921   NORMALIZED FREE ENERGY PREDICTED BY IDOCK:   -5.31 KCAL/MOL
REMARK 922        TOTAL FREE ENERGY PREDICTED BY IDOCK:   -7.06 KCAL/MOL
REMARK 923 INTER-LIGAND FREE ENERGY PREDICTED BY IDOCK:   -6.16 KCAL/MOL
REMARK 924 INTRA-LIGAND FREE ENERGY PREDICTED BY IDOCK:   -0.90 KCAL/MOL
REMARK 927      BINDING AFFINITY PREDICTED BY RF-SCORE:    0.00 PKD
ROOT
HETATM    1  O   UNL     1     -11.732  16.658  63.880  1.00  0.00    -1.153 OA 
HETATM    2  C   UNL     1     -10.993  16.115  64.688  1.00  0.00    -0.245 C  
ENDROOT
BRANCH   2   3
HETATM    3  O   UNL     1      -9.983  16.708  65.366  1.00  0.00    -0.565 OA 
BRANCH   3   4
HETATM    4  C   UNL     1     -10.371  17.605  66.416  1.00  0.00    -0.345 C  
BRANCH   4   5
HETATM    5  C   UNL     1     -10.420  16.832  67.708  1.00  0.00    -0.335 A  
HETATM    6  C   UNL     1      -9.292  15.728  69.553  1.00  0.00    -0.238 A  
HETATM    7  C   UNL     1     -10.521  15.323  70.070  1.00  0.00    -0.266 A  
HETATM    8  C   UNL     1      -9.240  16.477  68.377  1.00  0.00    -0.222 A  
HETATM    9  C   UNL     1     -11.701  15.670  69.413  1.00  0.00    -0.395 A  
HETATM   10  C   UNL     1     -11.652  16.418  68.237  1.00  0.00    -0.030 A  
ENDBRANCH   4   5
ENDBRANCH   3   4
ENDBRANCH   2   3
BRANCH   2  11
HETATM   11  C   UNL     1     -11.108  14.674  65.046  1.00  0.00    -0.401 A  
HETATM   12  C   UNL     1     -11.452  11.971  65.704  1.00  0.00    -0.372 A  
HETATM   13  C   UNL     1     -12.334  14.035  64.812  1.00  0.00    -0.437 A  
HETATM   14  C   UNL     1     -12.506  12.689  65.141  1.00  0.00    -0.531 A  
HETATM   15  C   UNL     1     -10.051  13.945  65.608  1.00  0.00    -0.332 A  
HETATM   16  C   UNL     1     -10.226  12.596  65.935  1.00  0.00    -0.290 A  
ENDBRANCH   2  11
TORSDOF 4
ENDMDL
MODEL       37
REMARK 921   NORMALIZED FREE ENERGY PREDICTED BY IDOCK:   -5.30 KCAL/MOL
REMARK 922        TOTAL FREE ENERGY PREDICTED BY IDOCK:   -7.05 KCAL/MOL
REMARK 923 INTER-LIGAND FREE ENERGY PREDICTED BY IDOCK:   -6.68 KCAL/MOL
REMARK 924 INTRA-LIGAND FREE ENERGY PREDICTED BY IDOCK:   -0.37 KCAL/MOL
REMARK 927      BINDING AFFINITY PREDICTED BY RF-SCORE:    0.00 PKD
ROOT
HETATM    1  O   UNL     1     -11.685  16.496  63.850  1.00  0.00    -1.148 OA 
HETATM    2  C   UNL     1     -11.026  16.089  64.795  1.00  0.00    -0.356 C  
ENDROOT
BRANCH   2   3
HETATM    3  O   UNL     1     -10.062  16.779  65.449  1.00  0.00    -0.587 OA 
BRANCH   3   4
HETATM    4  C   UNL     1     -10.446  18.061  65.965  1.00  0.00    -0.313 C  
BRANCH   4   5
HETATM    5  C   UNL     1      -9.303  18.607  66.780  1.00  0.00    -0.312 A  
HETATM    6  C   UNL     1      -7.582  18.313  68.468  1.00  0.00    -0.313 A  
HETATM    7  C   UNL     1      -7.230  19.656  68.352  1.00  0.00    -0.355 A  
HETATM    8  C   UNL     1      -8.614  17.790  67.688  1.00  0.00    -0.230 A  
HETATM    9  C   UNL     1      -7.909  20.479  67.453  1.00  0.00    -0.355 A  
HETATM   10  C   UNL     1      -8.941  19.958  66.673  1.00  0.00    -0.452 A  
ENDBRANCH   4   5
ENDBRANCH   3   4
ENDBRANCH   2   3
BRANCH   2  11
HETATM   11  C   UNL     1     -11.199  14.728  65.374  1.00  0.00    -0.347 A  
HETATM   12  C   UNL     1     -11.557  12.221  66.577  1.00  0.00    -0.440 A  
HETATM   13  C   UNL     1     -11.829  14.621  66.622  1.00  0.00    -0.325 A  
HETATM   14  C   UNL     1     -12.007  13.372  67.222  1.00  0.00    -0.393 A  
HETATM   15  C   UNL     1     -10.754  13.566  64.729  1.00  0.00    -0.412 A  
HETATM   16  C   UNL     1     -10.935  12.317  65.331  1.00  0.00    -0.341 A  
ENDBRANCH   2  11
TORSDOF 4
ENDMDL
MODEL       38
REMARK 921   NORMALIZED FREE ENERGY PREDICTED BY IDOCK:   -5.27 KCAL/MOL
REMARK 922        TOTAL FREE ENERGY PREDICTED BY IDOCK:   -7.01 KCAL/MOL
REMARK 923 INTER-LIGAND FREE ENERGY PREDICTED BY IDOCK:   -6.37 KCAL/MOL
REMARK 924 INTRA-LIGAND FREE ENERGY PREDICTED BY IDOCK:   -0.65 KCAL/MOL
REMARK 927      BINDING AFFINITY PREDICTED BY RF-SCORE:    0.00 PKD
ROOT
HETATM    1  O   UNL     1     -11.652  13.471  68.303  1.00  0.00    -0.301 OA 
HETATM    2  C   UNL     1     -11.979  12.889  69.328  1.00  0.00    -0.260 C  
ENDROOT
BRANCH   2   3
HETATM    3  O   UNL     1     -12.147  11.553  69.465  1.00  0.00    -0.308 OA 
BRANCH   3   4
HETATM    4  C   UNL     1     -10.949  10.764  69.452  1.00  0.00    -0.254 C  
BRANCH   4   5
HETATM    5  C   UNL     1     -10.983   9.828  70.632  1.00  0.00    -0.398 A  
HETATM    6  C   UNL     1      -9.843   8.378  72.212  1.00  0.00    -0.383 A  
HETATM    7  C   UNL     1     -11.067   8.022  72.777  1.00  0.00    -0.448 A  
HETATM    8  C   UNL     1      -9.800   9.274  71.143  1.00  0.00    -0.342 A  
HETATM    9  C   UNL     1     -12.249   8.566  72.277  1.00  0.00    -0.454 A  
HETATM   10  C   UNL     1     -12.209   9.462  71.208  1.00  0.00    -0.425 A  
ENDBRANCH   4   5
ENDBRANCH   3   4
ENDBRANCH   2   3
BRANCH   2  11
HETATM   11  C   UNL     1     -12.250  13.600  70.608  1.00  0.00    -0.434 A  
HETATM   12  C   UNL     1     -12.870  14.868  73.030  1.00  0.00    -0.586 A  
HETATM   13  C   UNL     1     -13.263  13.096  71.436  1.00  0.00    -0.290 A  
HETATM   14  C   UNL     1     -13.573  13.729  72.642  1.00  0.00    -0.617 A  
HETATM   15  C   UNL     1     -11.544  14.743  71.007  1.00  0.00    -0.313 A  
HETATM   16  C   UNL     1     -11.855  15.373  72.216  1.00  0.00    -0.551 A  
ENDBRANCH   2  11
TORSDOF 4
ENDMDL
MODEL       39
REMARK 921   NORMALIZED FREE ENERGY PREDICTED BY IDOCK:   -5.26 KCAL/MOL
REMARK 922        TOTAL FREE ENERGY PREDICTED BY IDOCK:   -7.00 KCAL/MOL
REMARK 923 INTER-LIGAND FREE ENERGY PREDICTED BY IDOCK:   -6.62 KCAL/MOL
REMARK 924 INTRA-LIGAND FREE ENERGY PREDICTED BY IDOCK:   -0.38 KCAL/MOL
REMARK 927      BINDING AFFINITY PREDICTED BY RF-SCORE:    0.00 PKD
ROOT
HETATM    1  O   UNL     1     -10.643  15.408  66.778  1.00  0.00    -0.298 OA 
HETATM    2  C   UNL     1     -11.249  14.346  66.777  1.00  0.00    -0.337 C  
ENDROOT
BRANCH   2   3
HETATM    3  O   UNL     1     -11.993  13.854  67.795  1.00  0.00    -0.358 OA 
BRANCH   3   4
HETATM    4  C   UNL     1     -11.575  14.224  69.116  1.00  0.00    -0.305 C  
BRANCH   4   5
HETATM    5  C   UNL     1     -12.143  13.227  70.092  1.00  0.00    -0.403 A  
HETATM    6  C   UNL     1     -13.295  12.724  72.170  1.00  0.00    -0.593 A  
HETATM    7  C   UNL     1     -13.124  11.360  71.942  1.00  0.00    -0.505 A  
HETATM    8  C   UNL     1     -12.805  13.654  71.251  1.00  0.00    -0.424 A  
HETATM    9  C   UNL     1     -12.467  10.924  70.793  1.00  0.00    -0.489 A  
HETATM   10  C   UNL     1     -11.976  11.851  69.873  1.00  0.00    -0.398 A  
ENDBRANCH   4   5
ENDBRANCH   3   4
ENDBRANCH   2   3
BRANCH   2  11
HETATM   11  C   UNL     1     -11.244  13.414  65.615  1.00  0.00    -0.307 A  
HETATM   12  C   UNL     1     -11.327  11.735  63.372  1.00  0.00    -0.437 A  
HETATM   13  C   UNL     1     -11.911  13.816  64.450  1.00  0.00    -0.480 A  
HETATM   14  C   UNL     1     -11.954  12.979  63.332  1.00  0.00    -0.592 A  
HETATM   15  C   UNL     1     -10.611  12.164  65.646  1.00  0.00    -0.297 A  
HETATM   16  C   UNL     1     -10.654  11.328  64.526  1.00  0.00    -0.401 A  
ENDBRANCH   2  11
TORSDOF 4
ENDMDL
MODEL       40
REMARK 921   NORMALIZED FREE ENERGY PREDICTED BY IDOCK:   -5.24 KCAL/MOL
REMARK 922        TOTAL FREE ENERGY PREDICTED BY IDOCK:   -6.97 KCAL/MOL
REMARK 923 INTER-LIGAND FREE ENERGY PREDICTED BY IDOCK:   -6.64 KCAL/MOL
REMARK 924 INTRA-LIGAND FREE ENERGY PREDICTED BY IDOCK:   -0.34 KCAL/MOL
REMARK 927      BINDING AFFINITY PREDICTED BY RF-SCORE:    0.00 PKD
ROOT
HETATM    1  O   UNL     1     -12.216  13.975  65.941  1.00  0.00    -0.408 OA 
HETATM    2  C   UNL     1     -11.808  14.232  67.064  1.00  0.00    -0.428 C  
ENDROOT
BRANCH   2   3
HETATM    3  O   UNL     1     -11.265  15.405  67.465  1.00  0.00    -0.327 OA 
BRANCH   3   4
HETATM    4  C   UNL     1     -10.528  16.129  66.469  1.00  0.00    -0.297 C  
BRANCH   4   5
HETATM    5  C   UNL     1     -10.359  17.549  66.942  1.00  0.00    -0.315 A  
HETATM    6  C   UNL     1     -10.030  19.154  68.734  1.00  0.00    -0.493 A  
HETATM    7  C   UNL     1     -10.129  20.203  67.821  1.00  0.00    -0.540 A  
HETATM    8  C   UNL     1     -10.147  17.834  68.298  1.00  0.00    -0.371 A  
HETATM    9  C   UNL     1     -10.341  19.932  66.470  1.00  0.00    -0.608 A  
HETATM   10  C   UNL     1     -10.458  18.613  66.032  1.00  0.00    -0.456 A  
ENDBRANCH   4   5
ENDBRANCH   3   4
ENDBRANCH   2   3
BRANCH   2  11
HETATM   11  C   UNL     1     -11.854  13.251  68.184  1.00  0.00    -0.388 A  
HETATM   12  C   UNL     1     -11.928  11.502  70.374  1.00  0.00    -0.459 A  
HETATM   13  C   UNL     1     -12.031  13.745  69.484  1.00  0.00    -0.399 A  
HETATM   14  C   UNL     1     -12.067  12.875  70.575  1.00  0.00    -0.364 A  
HETATM   15  C   UNL     1     -11.720  11.869  67.989  1.00  0.00    -0.382 A  
HETATM   16  C   UNL     1     -11.758  11.000  69.084  1.00  0.00    -0.403 A  
ENDBRANCH   2  11
TORSDOF 4
ENDMDL
MODEL       41
REMARK 921   NORMALIZED FREE ENERGY PREDICTED BY IDOCK:   -5.22 KCAL/MOL
REMARK 922        TOTAL FREE ENERGY PREDICTED BY IDOCK:   -6.95 KCAL/MOL
REMARK 923 INTER-LIGAND FREE ENERGY PREDICTED BY IDOCK:   -6.60 KCAL/MOL
REMARK 924 INTRA-LIGAND FREE ENERGY PREDICTED BY IDOCK:   -0.35 KCAL/MOL
REMARK 927      BINDING AFFINITY PREDICTED BY RF-SCORE:    0.00 PKD
ROOT
HETATM    1  O   UNL     1      -9.705  11.917  67.816  1.00  0.00    -0.181 OA 
HETATM    2  C   UNL     1     -10.870  11.852  67.451  1.00  0.00    -0.243 C  
ENDROOT
BRANCH   2   3
HETATM    3  O   UNL     1     -11.909  11.393  68.186  1.00  0.00    -0.530 OA 
BRANCH   3   4
HETATM    4  C   UNL     1     -12.017  11.916  69.518  1.00  0.00    -0.292 C  
BRANCH   4   5
HETATM    5  C   UNL     1     -12.049  10.758  70.481  1.00  0.00    -0.459 A  
HETATM    6  C   UNL     1     -11.056   8.737  71.389  1.00  0.00    -0.361 A  
HETATM    7  C   UNL     1     -12.159   8.561  72.222  1.00  0.00    -0.455 A  
HETATM    8  C   UNL     1     -11.001   9.828  70.521  1.00  0.00    -0.384 A  
HETATM    9  C   UNL     1     -13.208   9.479  72.190  1.00  0.00    -0.539 A  
HETATM   10  C   UNL     1     -13.156  10.570  71.323  1.00  0.00    -0.478 A  
ENDBRANCH   4   5
ENDBRANCH   3   4
ENDBRANCH   2   3
BRANCH   2  11
HETATM   11  C   UNL     1     -11.316  12.280  66.096  1.00  0.00    -0.402 A  
HETATM   12  C   UNL     1     -12.225  13.184  63.603  1.00  0.00    -0.553 A  
HETATM   13  C   UNL     1     -11.944  13.529  65.977  1.00  0.00    -0.449 A  
HETATM   14  C   UNL     1     -12.398  13.978  64.735  1.00  0.00    -0.437 A  
HETATM   15  C   UNL     1     -11.141  11.489  64.953  1.00  0.00    -0.282 A  
HETATM   16  C   UNL     1     -11.596  11.943  63.710  1.00  0.00    -0.555 A  
ENDBRANCH   2  11
TORSDOF 4
ENDMDL
MODEL       42
REMARK 921   NORMALIZED FREE ENERGY PREDICTED BY IDOCK:   -5.20 KCAL/MOL
REMARK 922        TOTAL FREE ENERGY PREDICTED BY IDOCK:   -6.93 KCAL/MOL
REMARK 923 INTER-LIGAND FREE ENERGY PREDICTED BY IDOCK:   -6.32 KCAL/MOL
REMARK 924 INTRA-LIGAND FREE ENERGY PREDICTED BY IDOCK:   -0.61 KCAL/MOL
REMARK 927      BINDING AFFINITY PREDICTED BY RF-SCORE:    0.00 PKD
ROOT
HETATM    1  O   UNL     1     -12.361  10.511  70.711  1.00  0.00    -0.315 OA 
HETATM    2  C   UNL     1     -11.976  11.604  70.323  1.00  0.00    -0.358 C  
ENDROOT
BRANCH   2   3
HETATM    3  O   UNL     1     -11.010  11.828  69.403  1.00  0.00    -0.211 OA 
BRANCH   3   4
HETATM    4  C   UNL     1     -11.269  11.327  68.084  1.00  0.00    -0.286 C  
BRANCH   4   5
HETATM    5  C   UNL     1     -11.110  12.461  67.104  1.00  0.00    -0.328 A  
HETATM    6  C   UNL     1      -9.977  14.483  66.380  1.00  0.00    -0.304 A  
HETATM    7  C   UNL     1     -10.873  14.613  65.321  1.00  0.00    -0.387 A  
HETATM    8  C   UNL     1     -10.095  13.413  67.270  1.00  0.00    -0.238 A  
HETATM    9  C   UNL     1     -11.887  13.672  65.148  1.00  0.00    -0.364 A  
HETATM   10  C   UNL     1     -12.007  12.602  66.035  1.00  0.00    -0.478 A  
ENDBRANCH   4   5
ENDBRANCH   3   4
ENDBRANCH   2   3
BRANCH   2  11
HETATM   11  C   UNL     1     -12.538  12.885  70.833  1.00  0.00    -0.355 A  
HETATM   12  C   UNL     1     -13.514  15.361  71.717  1.00  0.00    -0.581 A  
HETATM   13  C   UNL     1     -12.200  14.066  70.157  1.00  0.00    -0.425 A  
HETATM   14  C   UNL     1     -12.685  15.300  70.598  1.00  0.00    -0.470 A  
HETATM   15  C   UNL     1     -13.376  12.954  71.955  1.00  0.00    -0.579 A  
HETATM   16  C   UNL     1     -13.862  14.191  72.393  1.00  0.00    -0.638 A  
ENDBRANCH   2  11
TORSDOF 4
ENDMDL
MODEL       43
REMARK 921   NORMALIZED FREE ENERGY PREDICTED BY IDOCK:   -5.19 KCAL/MOL
REMARK 922        TOTAL FREE ENERGY PREDICTED BY IDOCK:   -6.92 KCAL/MOL
REMARK 923 INTER-LIGAND FREE ENERGY PREDICTED BY IDOCK:   -6.52 KCAL/MOL
REMARK 924 INTRA-LIGAND FREE ENERGY PREDICTED BY IDOCK:   -0.39 KCAL/MOL
REMARK 927      BINDING AFFINITY PREDICTED BY RF-SCORE:    0.00 PKD
ROOT
HETATM    1  O   UNL     1     -10.478  10.212  66.974  1.00  0.00    -0.232 OA 
HETATM    2  C   UNL     1     -11.182  11.186  67.195  1.00  0.00    -0.249 C  
ENDROOT
BRANCH   2   3
HETATM    3  O   UNL     1     -12.142  11.275  68.145  1.00  0.00    -0.635 OA 
BRANCH   3   4
HETATM    4  C   UNL     1     -11.713  11.747  69.431  1.00  0.00    -0.341 C  
BRANCH   4   5
HETATM    5  C   UNL     1     -11.863  10.624  70.423  1.00  0.00    -0.441 A  
HETATM    6  C   UNL     1     -13.186   9.414  72.061  1.00  0.00    -0.529 A  
HETATM    7  C   UNL     1     -12.103   8.580  72.329  1.00  0.00    -0.455 A  
HETATM    8  C   UNL     1     -13.067  10.433  71.115  1.00  0.00    -0.474 A  
HETATM    9  C   UNL     1     -10.900   8.760  71.648  1.00  0.00    -0.399 A  
HETATM   10  C   UNL     1     -10.779   9.778  70.702  1.00  0.00    -0.394 A  
ENDBRANCH   4   5
ENDBRANCH   3   4
ENDBRANCH   2   3
BRANCH   2  11
HETATM   11  C   UNL     1     -11.077  12.452  66.418  1.00  0.00    -0.343 A  
HETATM   12  C   UNL     1     -10.975  14.792  64.877  1.00  0.00    -0.425 A  
HETATM   13  C   UNL     1     -12.096  12.745  65.500  1.00  0.00    -0.517 A  
HETATM   14  C   UNL     1     -12.045  13.910  64.732  1.00  0.00    -0.443 A  
HETATM   15  C   UNL     1     -10.007  13.346  66.562  1.00  0.00    -0.286 A  
HETATM   16  C   UNL     1      -9.959  14.513  65.792  1.00  0.00    -0.361 A  
ENDBRANCH   2  11
TORSDOF 4
ENDMDL
MODEL       44
REMARK 921   NORMALIZED FREE ENERGY PREDICTED BY IDOCK:   -5.19 KCAL/MOL
REMARK 922        TOTAL FREE ENERGY PREDICTED BY IDOCK:   -6.91 KCAL/MOL
REMARK 923 INTER-LIGAND FREE ENERGY PREDICTED BY IDOCK:   -6.09 KCAL/MOL
REMARK 924 INTRA-LIGAND FREE ENERGY PREDICTED BY IDOCK:   -0.81 KCAL/MOL
REMARK 927      BINDING AFFINITY PREDICTED BY RF-SCORE:    0.00 PKD
ROOT
HETATM    1  O   UNL     1     -12.378  16.072  63.913  1.00  0.00    -0.855 OA 
HETATM    2  C   UNL     1     -12.159  15.081  64.596  1.00  0.00    -0.323 C  
ENDROOT
BRANCH   2   3
HETATM    3  O   UNL     1     -12.756  13.874  64.461  1.00  0.00    -0.649 OA 
BRANCH   3   4
HETATM    4  C   UNL     1     -12.233  13.026  63.428  1.00  0.00    -0.472 C  
BRANCH   4   5
HETATM    5  C   UNL     1     -11.222  12.095  64.045  1.00  0.00    -0.458 A  
HETATM    6  C   UNL     1     -10.360  10.885  65.966  1.00  0.00    -0.304 A  
HETATM    7  C   UNL     1      -9.288  10.425  65.203  1.00  0.00    -0.271 A  
HETATM    8  C   UNL     1     -11.322  11.717  65.391  1.00  0.00    -0.284 A  
HETATM    9  C   UNL     1      -9.178  10.795  63.864  1.00  0.00    -0.258 A  
HETATM   10  C   UNL     1     -10.138  11.627  63.287  1.00  0.00    -0.454 A  
ENDBRANCH   4   5
ENDBRANCH   3   4
ENDBRANCH   2   3
BRANCH   2  11
HETATM   11  C   UNL     1     -11.173  15.071  65.711  1.00  0.00    -0.318 A  
HETATM   12  C   UNL     1      -9.415  15.061  67.895  1.00  0.00    -0.195 A  
HETATM   13  C   UNL     1     -11.657  14.888  67.014  1.00  0.00    -0.314 A  
HETATM   14  C   UNL     1     -10.782  14.884  68.103  1.00  0.00    -0.251 A  
HETATM   15  C   UNL     1      -9.796  15.243  65.510  1.00  0.00    -0.362 A  
HETATM   16  C   UNL     1      -8.922  15.236  66.602  1.00  0.00    -0.324 A  
ENDBRANCH   2  11
TORSDOF 4
ENDMDL
MODEL       45
REMARK 921   NORMALIZED FREE ENERGY PREDICTED BY IDOCK:   -5.18 KCAL/MOL
REMARK 922        TOTAL FREE ENERGY PREDICTED BY IDOCK:   -6.89 KCAL/MOL
REMARK 923 INTER-LIGAND FREE ENERGY PREDICTED BY IDOCK:   -5.95 KCAL/MOL
REMARK 924 INTRA-LIGAND FREE ENERGY PREDICTED BY IDOCK:   -0.95 KCAL/MOL
REMARK 927      BINDING AFFINITY PREDICTED BY RF-SCORE:    0.00 PKD
ROOT
HETATM    1  O   UNL     1     -13.313  14.055  65.185  1.00  0.00    -0.703 OA 
HETATM    2  C   UNL     1     -12.177  13.908  65.612  1.00  0.00    -0.452 C  
ENDROOT
BRANCH   2   3
HETATM    3  O   UNL     1     -11.040  14.332  65.013  1.00  0.00    -0.335 OA 
BRANCH   3   4
HETATM    4  C   UNL     1     -10.834  15.752  64.990  1.00  0.00    -0.443 C  
BRANCH   4   5
HETATM    5  C   UNL     1     -10.024  16.135  66.201  1.00  0.00    -0.357 A  
HETATM    6  C   UNL     1      -8.107  15.798  67.653  1.00  0.00    -0.163 A  
HETATM    7  C   UNL     1      -8.568  16.802  68.503  1.00  0.00    -0.245 A  
HETATM    8  C   UNL     1      -8.832  15.464  66.508  1.00  0.00    -0.347 A  
HETATM    9  C   UNL     1      -9.752  17.475  68.208  1.00  0.00    -0.311 A  
HETATM   10  C   UNL     1     -10.479  17.143  67.065  1.00  0.00    -0.282 A  
ENDBRANCH   4   5
ENDBRANCH   3   4
ENDBRANCH   2   3
BRANCH   2  11
HETATM   11  C   UNL     1     -11.881  13.211  66.894  1.00  0.00    -0.444 A  
HETATM   12  C   UNL     1     -11.324  11.786  69.244  1.00  0.00    -0.348 A  
HETATM   13  C   UNL     1     -11.493  11.865  66.836  1.00  0.00    -0.390 A  
HETATM   14  C   UNL     1     -11.217  11.155  68.006  1.00  0.00    -0.359 A  
HETATM   15  C   UNL     1     -11.982  13.841  68.142  1.00  0.00    -0.394 A  
HETATM   16  C   UNL     1     -11.703  13.128  69.313  1.00  0.00    -0.376 A  
ENDBRANCH   2  11
TORSDOF 4
ENDMDL
MODEL       46
REMARK 921   NORMALIZED FREE ENERGY PREDICTED BY IDOCK:   -5.16 KCAL/MOL
REMARK 922        TOTAL FREE ENERGY PREDICTED BY IDOCK:   -6.88 KCAL/MOL
REMARK 923 INTER-LIGAND FREE ENERGY PREDICTED BY IDOCK:   -6.53 KCAL/MOL
REMARK 924 INTRA-LIGAND FREE ENERGY PREDICTED BY IDOCK:   -0.35 KCAL/MOL
REMARK 927      BINDING AFFINITY PREDICTED BY RF-SCORE:    0.00 PKD
ROOT
HETATM    1  O   UNL     1     -14.357   8.924  72.486  1.00  0.00    -0.579 OA 
HETATM    2  C   UNL     1     -13.187   9.189  72.254  1.00  0.00    -0.461 C  
ENDROOT
BRANCH   2   3
HETATM    3  O   UNL     1     -12.647  10.429  72.205  1.00  0.00    -0.281 OA 
BRANCH   3   4
HETATM    4  C   UNL     1     -12.789  11.129  70.960  1.00  0.00    -0.329 C  
BRANCH   4   5
HETATM    5  C   UNL     1     -12.881  12.604  71.251  1.00  0.00    -0.344 A  
HETATM    6  C   UNL     1     -13.774  14.448  72.554  1.00  0.00    -0.589 A  
HETATM    7  C   UNL     1     -13.110  15.358  71.733  1.00  0.00    -0.529 A  
HETATM    8  C   UNL     1     -13.663  13.078  72.314  1.00  0.00    -0.608 A  
HETATM    9  C   UNL     1     -12.330  14.898  70.673  1.00  0.00    -0.406 A  
HETATM   10  C   UNL     1     -12.217  13.528  70.431  1.00  0.00    -0.426 A  
ENDBRANCH   4   5
ENDBRANCH   3   4
ENDBRANCH   2   3
BRANCH   2  11
HETATM   11  C   UNL     1     -12.161   8.146  71.979  1.00  0.00    -0.388 A  
HETATM   12  C   UNL     1     -10.315   6.120  71.385  1.00  0.00    -0.260 A  
HETATM   13  C   UNL     1     -12.403   7.247  70.930  1.00  0.00    -0.287 A  
HETATM   14  C   UNL     1     -11.484   6.238  70.635  1.00  0.00    -0.397 A  
HETATM   15  C   UNL     1     -10.981   8.025  72.726  1.00  0.00    -0.449 A  
HETATM   16  C   UNL     1     -10.062   7.014  72.427  1.00  0.00    -0.193 A  
ENDBRANCH   2  11
TORSDOF 4
ENDMDL
MODEL       47
REMARK 921   NORMALIZED FREE ENERGY PREDICTED BY IDOCK:   -5.16 KCAL/MOL
REMARK 922        TOTAL FREE ENERGY PREDICTED BY IDOCK:   -6.87 KCAL/MOL
REMARK 923 INTER-LIGAND FREE ENERGY PREDICTED BY IDOCK:   -6.48 KCAL/MOL
REMARK 924 INTRA-LIGAND FREE ENERGY PREDICTED BY IDOCK:   -0.39 KCAL/MOL
REMARK 927      BINDING AFFINITY PREDICTED BY RF-SCORE:    0.00 PKD
ROOT
HETATM    1  O   UNL     1      -9.787  15.028  68.357  1.00  0.00    -0.212 OA 
HETATM    2  C   UNL     1     -10.573  15.710  67.715  1.00  0.00    -0.281 C  
ENDROOT
BRANCH   2   3
HETATM    3  O   UNL     1     -11.646  15.253  67.029  1.00  0.00    -0.245 OA 
BRANCH   3   4
HETATM    4  C   UNL     1     -11.947  13.859  67.188  1.00  0.00    -0.420 C  
BRANCH   4   5
HETATM    5  C   UNL     1     -11.626  13.152  65.897  1.00  0.00    -0.391 A  
HETATM    6  C   UNL     1     -12.270  12.420  63.673  1.00  0.00    -0.653 A  
HETATM    7  C   UNL     1     -11.049  11.764  63.529  1.00  0.00    -0.503 A  
HETATM    8  C   UNL     1     -12.560  13.109  64.852  1.00  0.00    -0.468 A  
HETATM    9  C   UNL     1     -10.114  11.800  64.562  1.00  0.00    -0.312 A  
HETATM   10  C   UNL     1     -10.401  12.488  65.741  1.00  0.00    -0.288 A  
ENDBRANCH   4   5
ENDBRANCH   3   4
ENDBRANCH   2   3
BRANCH   2  11
HETATM   11  C   UNL     1     -10.447  17.188  67.593  1.00  0.00    -0.355 A  
HETATM   12  C   UNL     1     -10.198  19.958  67.235  1.00  0.00    -0.572 A  
HETATM   13  C   UNL     1     -10.534  17.751  66.312  1.00  0.00    -0.307 A  
HETATM   14  C   UNL     1     -10.409  19.131  66.133  1.00  0.00    -0.561 A  
HETATM   15  C   UNL     1     -10.240  18.027  68.697  1.00  0.00    -0.385 A  
HETATM   16  C   UNL     1     -10.116  19.408  68.515  1.00  0.00    -0.527 A  
ENDBRANCH   2  11
TORSDOF 4
ENDMDL
MODEL       48
REMARK 921   NORMALIZED FREE ENERGY PREDICTED BY IDOCK:   -5.15 KCAL/MOL
REMARK 922        TOTAL FREE ENERGY PREDICTED BY IDOCK:   -6.87 KCAL/MOL
REMARK 923 INTER-LIGAND FREE ENERGY PREDICTED BY IDOCK:   -6.49 KCAL/MOL
REMARK 924 INTRA-LIGAND FREE ENERGY PREDICTED BY IDOCK:   -0.37 KCAL/MOL
REMARK 927      BINDING AFFINITY PREDICTED BY RF-SCORE:    0.00 PKD
ROOT
HETATM    1  O   UNL     1     -13.977   9.717  72.282  1.00  0.00    -0.327 OA 
HETATM    2  C   UNL     1     -13.029  10.317  71.795  1.00  0.00    -0.469 C  
ENDROOT
BRANCH   2   3
HETATM    3  O   UNL     1     -13.010  11.624  71.446  1.00  0.00    -0.404 OA 
BRANCH   3   4
HETATM    4  C   UNL     1     -13.714  12.519  72.319  1.00  0.00    -0.259 C  
BRANCH   4   5
HETATM    5  C   UNL     1     -13.143  13.902  72.144  1.00  0.00    -0.497 A  
HETATM    6  C   UNL     1     -12.189  15.630  70.729  1.00  0.00    -0.463 A  
HETATM    7  C   UNL     1     -12.006  16.448  71.842  1.00  0.00    -0.392 A  
HETATM    8  C   UNL     1     -12.753  14.362  70.878  1.00  0.00    -0.425 A  
HETATM    9  C   UNL     1     -12.390  16.002  73.106  1.00  0.00    -0.637 A  
HETATM   10  C   UNL     1     -12.953  14.734  73.257  1.00  0.00    -0.608 A  
ENDBRANCH   4   5
ENDBRANCH   3   4
ENDBRANCH   2   3
BRANCH   2  11
HETATM   11  C   UNL     1     -11.723   9.664  71.505  1.00  0.00    -0.472 A  
HETATM   12  C   UNL     1      -9.274   8.369  71.071  1.00  0.00    -0.206 A  
HETATM   13  C   UNL     1     -11.348   8.567  72.294  1.00  0.00    -0.441 A  
HETATM   14  C   UNL     1     -10.127   7.923  72.079  1.00  0.00    -0.260 A  
HETATM   15  C   UNL     1     -10.862  10.104  70.490  1.00  0.00    -0.340 A  
HETATM   16  C   UNL     1      -9.641   9.455  70.276  1.00  0.00    -0.294 A  
ENDBRANCH   2  11
TORSDOF 4
ENDMDL
MODEL       49
REMARK 921   NORMALIZED FREE ENERGY PREDICTED BY IDOCK:   -5.05 KCAL/MOL
REMARK 922        TOTAL FREE ENERGY PREDICTED BY IDOCK:   -6.74 KCAL/MOL
REMARK 923 INTER-LIGAND FREE ENERGY PREDICTED BY IDOCK:   -6.43 KCAL/MOL
REMARK 924 INTRA-LIGAND FREE ENERGY PREDICTED BY IDOCK:   -0.31 KCAL/MOL
REMARK 927      BINDING AFFINITY PREDICTED BY RF-SCORE:    0.00 PKD
ROOT
HETATM    1  O   UNL     1     -12.150  10.692  69.902  1.00  0.00    -0.303 OA 
HETATM    2  C   UNL     1     -12.588  11.144  70.950  1.00  0.00    -0.386 C  
ENDROOT
BRANCH   2   3
HETATM    3  O   UNL     1     -12.936  10.425  72.043  1.00  0.00    -0.445 OA 
BRANCH   3   4
HETATM    4  C   UNL     1     -13.500   9.131  71.791  1.00  0.00    -0.416 C  
BRANCH   4   5
HETATM    5  C   UNL     1     -12.400   8.106  71.882  1.00  0.00    -0.371 A  
HETATM    6  C   UNL     1     -10.421   7.223  72.978  1.00  0.00    -0.355 A  
HETATM    7  C   UNL     1     -10.307   6.241  71.996  1.00  0.00    -0.231 A  
HETATM    8  C   UNL     1     -11.460   8.153  72.922  1.00  0.00    -0.274 A  
HETATM    9  C   UNL     1     -11.236   6.185  70.957  1.00  0.00    -0.361 A  
HETATM   10  C   UNL     1     -12.275   7.114  70.898  1.00  0.00    -0.354 A  
ENDBRANCH   4   5
ENDBRANCH   3   4
ENDBRANCH   2   3
BRANCH   2  11
HETATM   11  C   UNL     1     -12.809  12.600  71.172  1.00  0.00    -0.311 A  
HETATM   12  C   UNL     1     -13.129  15.365  71.505  1.00  0.00    -0.545 A  
HETATM   13  C   UNL     1     -12.188  13.499  70.293  1.00  0.00    -0.417 A  
HETATM   14  C   UNL     1     -12.347  14.877  70.460  1.00  0.00    -0.400 A  
HETATM   15  C   UNL     1     -13.598  13.098  72.218  1.00  0.00    -0.677 A  
HETATM   16  C   UNL     1     -13.756  14.478  72.381  1.00  0.00    -0.583 A  
ENDBRANCH   2  11
TORSDOF 4
ENDMDL
MODEL       50
REMARK 921   NORMALIZED FREE ENERGY PREDICTED BY IDOCK:   -5.05 KCAL/MOL
REMARK 922        TOTAL FREE ENERGY PREDICTED BY IDOCK:   -6.74 KCAL/MOL
REMARK 923 INTER-LIGAND FREE ENERGY PREDICTED BY IDOCK:   -6.42 KCAL/MOL
REMARK 924 INTRA-LIGAND FREE ENERGY PREDICTED BY IDOCK:   -0.31 KCAL/MOL
REMARK 927      BINDING AFFINITY PREDICTED BY RF-SCORE:    0.00 PKD
ROOT
HETATM    1  O   UNL     1     -14.279   7.351  71.550  1.00  0.00    -0.437 OA 
HETATM    2  C   UNL     1     -13.121   7.683  71.346  1.00  0.00    -0.296 C  
ENDROOT
BRANCH   2   3
HETATM    3  O   UNL     1     -12.667   8.951  71.214  1.00  0.00    -0.313 OA 
BRANCH   3   4
HETATM    4  C   UNL     1     -13.282   9.930  72.064  1.00  0.00    -0.456 C  
BRANCH   4   5
HETATM    5  C   UNL     1     -12.932  11.300  71.544  1.00  0.00    -0.520 A  
HETATM    6  C   UNL     1     -13.125  13.718  71.661  1.00  0.00    -0.456 A  
HETATM    7  C   UNL     1     -12.339  13.842  70.517  1.00  0.00    -0.429 A  
HETATM    8  C   UNL     1     -13.422  12.453  72.172  1.00  0.00    -0.481 A  
HETATM    9  C   UNL     1     -11.846  12.702  69.884  1.00  0.00    -0.364 A  
HETATM   10  C   UNL     1     -12.142  11.437  70.392  1.00  0.00    -0.473 A  
ENDBRANCH   4   5
ENDBRANCH   3   4
ENDBRANCH   2   3
BRANCH   2  11
HETATM   11  C   UNL     1     -12.012   6.699  71.204  1.00  0.00    -0.412 A  
HETATM   12  C   UNL     1      -9.941   4.852  70.807  1.00  0.00    -0.292 A  
HETATM   13  C   UNL     1     -11.478   6.492  69.924  1.00  0.00    -0.467 A  
HETATM   14  C   UNL     1     -10.447   5.571  69.726  1.00  0.00    -0.389 A  
HETATM   15  C   UNL     1     -11.494   5.976  72.287  1.00  0.00    -0.364 A  
HETATM   16  C   UNL     1     -10.461   5.055  72.086  1.00  0.00    -0.274 A  
ENDBRANCH   2  11
TORSDOF 4
ENDMDL
MODEL       51
REMARK 921   NORMALIZED FREE ENERGY PREDICTED BY IDOCK:   -5.01 KCAL/MOL
REMARK 922        TOTAL FREE ENERGY PREDICTED BY IDOCK:   -6.69 KCAL/MOL
REMARK 923 INTER-LIGAND FREE ENERGY PREDICTED BY IDOCK:   -6.14 KCAL/MOL
REMARK 924 INTRA-LIGAND FREE ENERGY PREDICTED BY IDOCK:   -0.55 KCAL/MOL
REMARK 927      BINDING AFFINITY PREDICTED BY RF-SCORE:    0.00 PKD
ROOT
HETATM    1  O   UNL     1     -12.869   8.596  72.187  1.00  0.00    -0.349 OA 
HETATM    2  C   UNL     1     -12.249   9.461  71.586  1.00  0.00    -0.390 C  
ENDROOT
BRANCH   2   3
HETATM    3  O   UNL     1     -12.764  10.609  71.088  1.00  0.00    -0.355 OA 
BRANCH   3   4
HETATM    4  C   UNL     1     -13.470  11.439  72.021  1.00  0.00    -0.183 C  
BRANCH   4   5
HETATM    5  C   UNL     1     -13.247  12.880  71.640  1.00  0.00    -0.416 A  
HETATM    6  C   UNL     1     -13.803  15.233  71.861  1.00  0.00    -0.624 A  
HETATM    7  C   UNL     1     -12.882  15.550  70.863  1.00  0.00    -0.535 A  
HETATM    8  C   UNL     1     -13.987  13.905  72.247  1.00  0.00    -0.663 A  
HETATM    9  C   UNL     1     -12.142  14.539  70.253  1.00  0.00    -0.386 A  
HETATM   10  C   UNL     1     -12.325  13.210  70.636  1.00  0.00    -0.405 A  
ENDBRANCH   4   5
ENDBRANCH   3   4
ENDBRANCH   2   3
BRANCH   2  11
HETATM   11  C   UNL     1     -10.789   9.363  71.308  1.00  0.00    -0.431 A  
HETATM   12  C   UNL     1      -8.064   9.222  70.665  1.00  0.00    -0.207 A  
HETATM   13  C   UNL     1     -10.299   9.981  70.149  1.00  0.00    -0.321 A  
HETATM   14  C   UNL     1      -8.941   9.910  69.828  1.00  0.00    -0.242 A  
HETATM   15  C   UNL     1      -9.901   8.677  72.147  1.00  0.00    -0.387 A  
HETATM   16  C   UNL     1      -8.542   8.609  71.824  1.00  0.00    -0.240 A  
ENDBRANCH   2  11
TORSDOF 4
ENDMDL
MODEL       52
REMARK 921   NORMALIZED FREE ENERGY PREDICTED BY IDOCK:   -5.00 KCAL/MOL
REMARK 922        TOTAL FREE ENERGY PREDICTED BY IDOCK:   -6.67 KCAL/MOL
REMARK 923 INTER-LIGAND FREE ENERGY PREDICTED BY IDOCK:   -6.39 KCAL/MOL
REMARK 924 INTRA-LIGAND FREE ENERGY PREDICTED BY IDOCK:   -0.28 KCAL/MOL
REMARK 927      BINDING AFFINITY PREDICTED BY RF-SCORE:    0.00 PKD
ROOT
HETATM    1  O   UNL     1      -9.516  10.369  69.216  1.00  0.00    -0.201 OA 
HETATM    2  C   UNL     1     -10.738  10.336  69.212  1.00  0.00    -0.234 C  
ENDROOT
BRANCH   2   3
HETATM    3  O   UNL     1     -11.539  10.650  68.167  1.00  0.00    -0.429 OA 
BRANCH   3   4
HETATM    4  C   UNL     1     -11.554  12.031  67.778  1.00  0.00    -0.330 C  
BRANCH   4   5
HETATM    5  C   UNL     1     -11.439  12.103  66.277  1.00  0.00    -0.433 A  
HETATM    6  C   UNL     1     -12.195  12.974  64.141  1.00  0.00    -0.471 A  
HETATM    7  C   UNL     1     -11.271  12.169  63.478  1.00  0.00    -0.536 A  
HETATM    8  C   UNL     1     -12.281  12.941  65.533  1.00  0.00    -0.527 A  
HETATM    9  C   UNL     1     -10.428  11.331  64.208  1.00  0.00    -0.419 A  
HETATM   10  C   UNL     1     -10.513  11.296  65.600  1.00  0.00    -0.317 A  
ENDBRANCH   4   5
ENDBRANCH   3   4
ENDBRANCH   2   3
BRANCH   2  11
HETATM   11  C   UNL     1     -11.538   9.937  70.402  1.00  0.00    -0.356 A  
HETATM   12  C   UNL     1     -12.982   9.070  72.643  1.00  0.00    -0.339 A  
HETATM   13  C   UNL     1     -11.136   8.796  71.111  1.00  0.00    -0.340 A  
HETATM   14  C   UNL     1     -11.856   8.363  72.227  1.00  0.00    -0.456 A  
HETATM   15  C   UNL     1     -12.669  10.645  70.830  1.00  0.00    -0.498 A  
HETATM   16  C   UNL     1     -13.387  10.211  71.949  1.00  0.00    -0.505 A  
ENDBRANCH   2  11
TORSDOF 4
ENDMDL
MODEL       53
REMARK 921   NORMALIZED FREE ENERGY PREDICTED BY IDOCK:   -4.94 KCAL/MOL
REMARK 922        TOTAL FREE ENERGY PREDICTED BY IDOCK:   -6.61 KCAL/MOL
REMARK 923 INTER-LIGAND FREE ENERGY PREDICTED BY IDOCK:   -6.10 KCAL/MOL
REMARK 924 INTRA-LIGAND FREE ENERGY PREDICTED BY IDOCK:   -0.50 KCAL/MOL
REMARK 927      BINDING AFFINITY PREDICTED BY RF-SCORE:    0.00 PKD
ROOT
HETATM    1  O   UNL     1     -13.673   9.561  72.237  1.00  0.00    -0.440 OA 
HETATM    2  C   UNL     1     -12.702  10.172  71.815  1.00  0.00    -0.434 C  
ENDROOT
BRANCH   2   3
HETATM    3  O   UNL     1     -11.464   9.662  71.622  1.00  0.00    -0.380 OA 
BRANCH   3   4
HETATM    4  C   UNL     1     -11.372   8.231  71.579  1.00  0.00    -0.268 C  
BRANCH   4   5
HETATM    5  C   UNL     1     -11.064   7.816  70.164  1.00  0.00    -0.216 A  
HETATM    6  C   UNL     1     -10.367   8.370  67.905  1.00  0.00    -0.279 A  
HETATM    7  C   UNL     1     -10.573   7.049  67.511  1.00  0.00    -0.351 A  
HETATM    8  C   UNL     1     -10.613   8.754  69.224  1.00  0.00    -0.210 A  
HETATM    9  C   UNL     1     -11.022   6.109  68.437  1.00  0.00    -0.391 A  
HETATM   10  C   UNL     1     -11.269   6.490  69.756  1.00  0.00    -0.456 A  
ENDBRANCH   4   5
ENDBRANCH   3   4
ENDBRANCH   2   3
BRANCH   2  11
HETATM   11  C   UNL     1     -12.752  11.614  71.448  1.00  0.00    -0.445 A  
HETATM   12  C   UNL     1     -12.940  14.347  70.848  1.00  0.00    -0.413 A  
HETATM   13  C   UNL     1     -13.454  12.483  72.296  1.00  0.00    -0.490 A  
HETATM   14  C   UNL     1     -13.549  13.844  71.997  1.00  0.00    -0.566 A  
HETATM   15  C   UNL     1     -12.138  12.128  70.298  1.00  0.00    -0.385 A  
HETATM   16  C   UNL     1     -12.233  13.491  70.001  1.00  0.00    -0.381 A  
ENDBRANCH   2  11
TORSDOF 4
ENDMDL
MODEL       54
REMARK 921   NORMALIZED FREE ENERGY PREDICTED BY IDOCK:   -4.94 KCAL/MOL
REMARK 922        TOTAL FREE ENERGY PREDICTED BY IDOCK:   -6.60 KCAL/MOL
REMARK 923 INTER-LIGAND FREE ENERGY PREDICTED BY IDOCK:   -6.23 KCAL/MOL
REMARK 924 INTRA-LIGAND FREE ENERGY PREDICTED BY IDOCK:   -0.37 KCAL/MOL
REMARK 927      BINDING AFFINITY PREDICTED BY RF-SCORE:    0.00 PKD
ROOT
HETATM    1  O   UNL     1      -8.928  10.151  69.543  1.00  0.00    -0.192 OA 
HETATM    2  C   UNL     1     -10.081  10.494  69.326  1.00  0.00    -0.224 C  
ENDROOT
BRANCH   2   3
HETATM    3  O   UNL     1     -10.529  11.119  68.213  1.00  0.00    -0.176 OA 
BRANCH   3   4
HETATM    4  C   UNL     1     -10.190  10.499  66.964  1.00  0.00    -0.226 C  
BRANCH   4   5
HETATM    5  C   UNL     1     -10.850  11.275  65.854  1.00  0.00    -0.264 A  
HETATM    6  C   UNL     1     -11.120  11.766  63.491  1.00  0.00    -0.503 A  
HETATM    7  C   UNL     1     -12.024  12.781  63.799  1.00  0.00    -0.585 A  
HETATM    8  C   UNL     1     -10.533  11.017  64.513  1.00  0.00    -0.411 A  
HETATM    9  C   UNL     1     -12.345  13.046  65.129  1.00  0.00    -0.536 A  
HETATM   10  C   UNL     1     -11.760  12.300  66.152  1.00  0.00    -0.440 A  
ENDBRANCH   4   5
ENDBRANCH   3   4
ENDBRANCH   2   3
BRANCH   2  11
HETATM   11  C   UNL     1     -11.187  10.265  70.297  1.00  0.00    -0.395 A  
HETATM   12  C   UNL     1     -13.244   9.706  72.118  1.00  0.00    -0.535 A  
HETATM   13  C   UNL     1     -11.286   8.999  70.893  1.00  0.00    -0.351 A  
HETATM   14  C   UNL     1     -12.311   8.720  71.799  1.00  0.00    -0.412 A  
HETATM   15  C   UNL     1     -12.125  11.252  70.626  1.00  0.00    -0.480 A  
HETATM   16  C   UNL     1     -13.150  10.971  71.536  1.00  0.00    -0.500 A  
ENDBRANCH   2  11
TORSDOF 4
ENDMDL
MODEL       55
REMARK 921   NORMALIZED FREE ENERGY PREDICTED BY IDOCK:   -4.93 KCAL/MOL
REMARK 922        TOTAL FREE ENERGY PREDICTED BY IDOCK:   -6.59 KCAL/MOL
REMARK 923 INTER-LIGAND FREE ENERGY PREDICTED BY IDOCK:   -6.07 KCAL/MOL
REMARK 924 INTRA-LIGAND FREE ENERGY PREDICTED BY IDOCK:   -0.52 KCAL/MOL
REMARK 927      BINDING AFFINITY PREDICTED BY RF-SCORE:    0.00 PKD
ROOT
HETATM    1  O   UNL     1     -12.873  13.342  64.429  1.00  0.00    -0.657 OA 
HETATM    2  C   UNL     1     -12.356  13.310  65.536  1.00  0.00    -0.480 C  
ENDROOT
BRANCH   2   3
HETATM    3  O   UNL     1     -12.388  12.269  66.400  1.00  0.00    -0.531 OA 
BRANCH   3   4
HETATM    4  C   UNL     1     -11.178  11.507  66.512  1.00  0.00    -0.259 C  
BRANCH   4   5
HETATM    5  C   UNL     1     -11.169  10.822  67.854  1.00  0.00    -0.386 A  
HETATM    6  C   UNL     1     -10.477   8.985  69.283  1.00  0.00    -0.238 A  
HETATM    7  C   UNL     1     -11.227   9.511  70.333  1.00  0.00    -0.323 A  
HETATM    8  C   UNL     1     -10.449   9.635  68.048  1.00  0.00    -0.276 A  
HETATM    9  C   UNL     1     -11.948  10.691  70.151  1.00  0.00    -0.417 A  
HETATM   10  C   UNL     1     -11.922  11.342  68.917  1.00  0.00    -0.378 A  
ENDBRANCH   4   5
ENDBRANCH   3   4
ENDBRANCH   2   3
BRANCH   2  11
HETATM   11  C   UNL     1     -11.598  14.458  66.107  1.00  0.00    -0.372 A  
HETATM   12  C   UNL     1     -10.101  16.624  67.070  1.00  0.00    -0.281 A  
HETATM   13  C   UNL     1     -10.772  15.192  65.244  1.00  0.00    -0.422 A  
HETATM   14  C   UNL     1     -10.024  16.270  65.724  1.00  0.00    -0.353 A  
HETATM   15  C   UNL     1     -11.674  14.823  67.458  1.00  0.00    -0.370 A  
HETATM   16  C   UNL     1     -10.926  15.904  67.935  1.00  0.00    -0.327 A  
ENDBRANCH   2  11
TORSDOF 4
ENDMDL
MODEL       56
REMARK 921   NORMALIZED FREE ENERGY PREDICTED BY IDOCK:   -4.91 KCAL/MOL
REMARK 922        TOTAL FREE ENERGY PREDICTED BY IDOCK:   -6.57 KCAL/MOL
REMARK 923 INTER-LIGAND FREE ENERGY PREDICTED BY IDOCK:   -6.06 KCAL/MOL
REMARK 924 INTRA-LIGAND FREE ENERGY PREDICTED BY IDOCK:   -0.51 KCAL/MOL
REMARK 927      BINDING AFFINITY PREDICTED BY RF-SCORE:    0.00 PKD
ROOT
HETATM    1  O   UNL     1     -11.757   7.777  72.532  1.00  0.00    -0.344 OA 
HETATM    2  C   UNL     1     -11.547   8.530  71.593  1.00  0.00    -0.299 C  
ENDROOT
BRANCH   2   3
HETATM    3  O   UNL     1     -11.633   9.880  71.621  1.00  0.00    -0.360 OA 
BRANCH   3   4
HETATM    4  C   UNL     1     -12.929  10.422  71.915  1.00  0.00    -0.450 C  
BRANCH   4   5
HETATM    5  C   UNL     1     -12.932  11.880  71.536  1.00  0.00    -0.427 A  
HETATM    6  C   UNL     1     -12.182  13.692  70.104  1.00  0.00    -0.413 A  
HETATM    7  C   UNL     1     -12.879  14.609  70.889  1.00  0.00    -0.427 A  
HETATM    8  C   UNL     1     -12.206  12.334  70.426  1.00  0.00    -0.371 A  
HETATM    9  C   UNL     1     -13.604  14.168  71.995  1.00  0.00    -0.540 A  
HETATM   10  C   UNL     1     -13.629  12.812  72.320  1.00  0.00    -0.563 A  
ENDBRANCH   4   5
ENDBRANCH   3   4
ENDBRANCH   2   3
BRANCH   2  11
HETATM   11  C   UNL     1     -11.159   8.044  70.239  1.00  0.00    -0.224 A  
HETATM   12  C   UNL     1     -10.420   7.254  67.653  1.00  0.00    -0.310 A  
HETATM   13  C   UNL     1     -10.649   8.980  69.328  1.00  0.00    -0.226 A  
HETATM   14  C   UNL     1     -10.282   8.587  68.039  1.00  0.00    -0.264 A  
HETATM   15  C   UNL     1     -11.290   6.705  69.846  1.00  0.00    -0.422 A  
HETATM   16  C   UNL     1     -10.920   6.314  68.555  1.00  0.00    -0.421 A  
ENDBRANCH   2  11
TORSDOF 4
ENDMDL
MODEL       57
REMARK 921   NORMALIZED FREE ENERGY PREDICTED BY IDOCK:   -4.88 KCAL/MOL
REMARK 922        TOTAL FREE ENERGY PREDICTED BY IDOCK:   -6.53 KCAL/MOL
REMARK 923 INTER-LIGAND FREE ENERGY PREDICTED BY IDOCK:   -6.18 KCAL/MOL
REMARK 924 INTRA-LIGAND FREE ENERGY PREDICTED BY IDOCK:   -0.35 KCAL/MOL
REMARK 927      BINDING AFFINITY PREDICTED BY RF-SCORE:    0.00 PKD
ROOT
HETATM    1  O   UNL     1     -11.298  16.032  69.176  1.00  0.00    -0.319 OA 
HETATM    2  C   UNL     1     -10.923  16.434  68.084  1.00  0.00    -0.339 C  
ENDROOT
BRANCH   2   3
HETATM    3  O   UNL     1     -11.121  15.817  66.897  1.00  0.00    -0.260 OA 
BRANCH   3   4
HETATM    4  C   UNL     1     -10.076  14.935  66.464  1.00  0.00    -0.271 C  
BRANCH   4   5
HETATM    5  C   UNL     1     -10.664  13.938  65.499  1.00  0.00    -0.306 A  
HETATM    6  C   UNL     1     -10.718  11.710  64.534  1.00  0.00    -0.378 A  
HETATM    7  C   UNL     1     -11.709  12.114  63.642  1.00  0.00    -0.588 A  
HETATM    8  C   UNL     1     -10.195  12.617  65.458  1.00  0.00    -0.298 A  
HETATM    9  C   UNL     1     -12.182  13.425  63.674  1.00  0.00    -0.480 A  
HETATM   10  C   UNL     1     -11.661  14.334  64.595  1.00  0.00    -0.439 A  
ENDBRANCH   4   5
ENDBRANCH   3   4
ENDBRANCH   2   3
BRANCH   2  11
HETATM   11  C   UNL     1     -10.163  17.704  67.909  1.00  0.00    -0.357 A  
HETATM   12  C   UNL     1      -8.822  20.130  67.491  1.00  0.00    -0.431 A  
HETATM   13  C   UNL     1     -10.772  18.738  67.185  1.00  0.00    -0.469 A  
HETATM   14  C   UNL     1     -10.104  19.946  66.975  1.00  0.00    -0.578 A  
HETATM   15  C   UNL     1      -8.876  17.897  68.429  1.00  0.00    -0.293 A  
HETATM   16  C   UNL     1      -8.210  19.108  68.219  1.00  0.00    -0.369 A  
ENDBRANCH   2  11
TORSDOF 4
ENDMDL
MODEL       58
REMARK 921   NORMALIZED FREE ENERGY PREDICTED BY IDOCK:   -4.87 KCAL/MOL
REMARK 922        TOTAL FREE ENERGY PREDICTED BY IDOCK:   -6.52 KCAL/MOL
REMARK 923 INTER-LIGAND FREE ENERGY PREDICTED BY IDOCK:   -6.05 KCAL/MOL
REMARK 924 INTRA-LIGAND FREE ENERGY PREDICTED BY IDOCK:   -0.47 KCAL/MOL
REMARK 927      BINDING AFFINITY PREDICTED BY RF-SCORE:    0.00 PKD
ROOT
HETATM    1  O   UNL     1     -11.550  13.446  68.700  1.00  0.00    -0.281 OA 
HETATM    2  C   UNL     1     -11.190  14.411  69.359  1.00  0.00    -0.281 C  
ENDROOT
BRANCH   2   3
HETATM    3  O   UNL     1     -10.098  15.174  69.120  1.00  0.00    -0.226 OA 
BRANCH   3   4
HETATM    4  C   UNL     1      -9.748  15.357  67.740  1.00  0.00    -0.211 C  
BRANCH   4   5
HETATM    5  C   UNL     1      -9.574  16.831  67.485  1.00  0.00    -0.240 A  
HETATM    6  C   UNL     1     -10.490  19.077  67.362  1.00  0.00    -0.539 A  
HETATM    7  C   UNL     1      -9.258  19.562  66.927  1.00  0.00    -0.408 A  
HETATM    8  C   UNL     1     -10.649  17.718  67.637  1.00  0.00    -0.385 A  
HETATM    9  C   UNL     1      -8.182  18.689  66.771  1.00  0.00    -0.276 A  
HETATM   10  C   UNL     1      -8.338  17.331  67.046  1.00  0.00    -0.231 A  
ENDBRANCH   4   5
ENDBRANCH   3   4
ENDBRANCH   2   3
BRANCH   2  11
HETATM   11  C   UNL     1     -11.928  14.890  70.560  1.00  0.00    -0.365 A  
HETATM   12  C   UNL     1     -13.428  15.744  72.769  1.00  0.00    -0.659 A  
HETATM   13  C   UNL     1     -13.237  14.426  70.754  1.00  0.00    -0.288 A  
HETATM   14  C   UNL     1     -13.985  14.852  71.854  1.00  0.00    -0.585 A  
HETATM   15  C   UNL     1     -11.373  15.783  71.487  1.00  0.00    -0.424 A  
HETATM   16  C   UNL     1     -12.124  16.207  72.588  1.00  0.00    -0.652 A  
ENDBRANCH   2  11
TORSDOF 4
ENDMDL
MODEL       59
REMARK 921   NORMALIZED FREE ENERGY PREDICTED BY IDOCK:   -4.84 KCAL/MOL
REMARK 922        TOTAL FREE ENERGY PREDICTED BY IDOCK:   -6.48 KCAL/MOL
REMARK 923 INTER-LIGAND FREE ENERGY PREDICTED BY IDOCK:   -6.12 KCAL/MOL
REMARK 924 INTRA-LIGAND FREE ENERGY PREDICTED BY IDOCK:   -0.36 KCAL/MOL
REMARK 927      BINDING AFFINITY PREDICTED BY RF-SCORE:    0.00 PKD
ROOT
HETATM    1  O   UNL     1     -12.299  10.683  71.639  1.00  0.00    -0.342 OA 
HETATM    2  C   UNL     1     -12.281  11.488  70.719  1.00  0.00    -0.363 C  
ENDROOT
BRANCH   2   3
HETATM    3  O   UNL     1     -12.040  11.205  69.418  1.00  0.00    -0.333 OA 
BRANCH   3   4
HETATM    4  C   UNL     1     -10.678  10.900  69.083  1.00  0.00    -0.226 C  
BRANCH   4   5
HETATM    5  C   UNL     1     -10.555  10.862  67.582  1.00  0.00    -0.263 A  
HETATM    6  C   UNL     1      -9.811   9.757  65.551  1.00  0.00    -0.378 A  
HETATM    7  C   UNL     1     -10.258  10.837  64.793  1.00  0.00    -0.403 A  
HETATM    8  C   UNL     1      -9.957   9.768  66.939  1.00  0.00    -0.270 A  
HETATM    9  C   UNL     1     -10.854  11.930  65.421  1.00  0.00    -0.343 A  
HETATM   10  C   UNL     1     -11.000  11.944  66.808  1.00  0.00    -0.337 A  
ENDBRANCH   4   5
ENDBRANCH   3   4
ENDBRANCH   2   3
BRANCH   2  11
HETATM   11  C   UNL     1     -12.527  12.944  70.915  1.00  0.00    -0.383 A  
HETATM   12  C   UNL     1     -13.084  15.654  71.370  1.00  0.00    -0.559 A  
HETATM   13  C   UNL     1     -13.327  13.334  71.999  1.00  0.00    -0.582 A  
HETATM   14  C   UNL     1     -13.605  14.684  72.225  1.00  0.00    -0.536 A  
HETATM   15  C   UNL     1     -12.003  13.925  70.062  1.00  0.00    -0.404 A  
HETATM   16  C   UNL     1     -12.282  15.276  70.292  1.00  0.00    -0.403 A  
ENDBRANCH   2  11
TORSDOF 4
ENDMDL
MODEL       60
REMARK 921   NORMALIZED FREE ENERGY PREDICTED BY IDOCK:   -4.81 KCAL/MOL
REMARK 922        TOTAL FREE ENERGY PREDICTED BY IDOCK:   -6.44 KCAL/MOL
REMARK 923 INTER-LIGAND FREE ENERGY PREDICTED BY IDOCK:   -6.19 KCAL/MOL
REMARK 924 INTRA-LIGAND FREE ENERGY PREDICTED BY IDOCK:   -0.25 KCAL/MOL
REMARK 927      BINDING AFFINITY PREDICTED BY RF-SCORE:    0.00 PKD
ROOT
HETATM    1  O   UNL     1     -11.708  11.875  66.090  1.00  0.00    -0.484 OA 
HETATM    2  C   UNL     1     -11.767  12.352  67.214  1.00  0.00    -0.349 C  
ENDROOT
BRANCH   2   3
HETATM    3  O   UNL     1     -12.095  11.686  68.345  1.00  0.00    -0.522 OA 
BRANCH   3   4
HETATM    4  C   UNL     1     -10.997  11.170  69.111  1.00  0.00    -0.242 C  
BRANCH   4   5
HETATM    5  C   UNL     1     -11.552  10.332  70.234  1.00  0.00    -0.396 A  
HETATM    6  C   UNL     1     -13.138  10.010  72.044  1.00  0.00    -0.541 A  
HETATM    7  C   UNL     1     -12.525   8.802  72.373  1.00  0.00    -0.421 A  
HETATM    8  C   UNL     1     -12.653  10.773  70.981  1.00  0.00    -0.520 A  
HETATM    9  C   UNL     1     -11.430   8.354  71.637  1.00  0.00    -0.349 A  
HETATM   10  C   UNL     1     -10.943   9.115  70.574  1.00  0.00    -0.307 A  
ENDBRANCH   4   5
ENDBRANCH   3   4
ENDBRANCH   2   3
BRANCH   2  11
HETATM   11  C   UNL     1     -11.481  13.785  67.498  1.00  0.00    -0.359 A  
HETATM   12  C   UNL     1     -10.862  16.486  67.929  1.00  0.00    -0.326 A  
HETATM   13  C   UNL     1     -10.817  14.530  66.512  1.00  0.00    -0.314 A  
HETATM   14  C   UNL     1     -10.508  15.875  66.727  1.00  0.00    -0.309 A  
HETATM   15  C   UNL     1     -11.838  14.408  68.702  1.00  0.00    -0.366 A  
HETATM   16  C   UNL     1     -11.529  15.755  68.914  1.00  0.00    -0.381 A  
ENDBRANCH   2  11
TORSDOF 4
ENDMDL
MODEL       61
REMARK 921   NORMALIZED FREE ENERGY PREDICTED BY IDOCK:   -4.81 KCAL/MOL
REMARK 922        TOTAL FREE ENERGY PREDICTED BY IDOCK:   -6.44 KCAL/MOL
REMARK 923 INTER-LIGAND FREE ENERGY PREDICTED BY IDOCK:   -6.20 KCAL/MOL
REMARK 924 INTRA-LIGAND FREE ENERGY PREDICTED BY IDOCK:   -0.24 KCAL/MOL
REMARK 927      BINDING AFFINITY PREDICTED BY RF-SCORE:    0.00 PKD
ROOT
HETATM    1  O   UNL     1      -9.077  13.838  67.241  1.00  0.00    -0.211 OA 
HETATM    2  C   UNL     1      -9.763  14.336  66.361  1.00  0.00    -0.299 C  
ENDROOT
BRANCH   2   3
HETATM    3  O   UNL     1      -9.957  15.659  66.155  1.00  0.00    -0.269 OA 
BRANCH   3   4
HETATM    4  C   UNL     1     -10.773  16.334  67.124  1.00  0.00    -0.247 C  
BRANCH   4   5
HETATM    5  C   UNL     1     -10.332  17.773  67.198  1.00  0.00    -0.354 A  
HETATM    6  C   UNL     1     -10.204  19.995  66.228  1.00  0.00    -0.595 A  
HETATM    7  C   UNL     1      -9.436  20.428  67.307  1.00  0.00    -0.568 A  
HETATM    8  C   UNL     1     -10.648  18.673  66.171  1.00  0.00    -0.409 A  
HETATM    9  C   UNL     1      -9.115  19.541  68.334  1.00  0.00    -0.410 A  
HETATM   10  C   UNL     1      -9.558  18.219  68.279  1.00  0.00    -0.332 A  
ENDBRANCH   4   5
ENDBRANCH   3   4
ENDBRANCH   2   3
BRANCH   2  11
HETATM   11  C   UNL     1     -10.511  13.522  65.362  1.00  0.00    -0.322 A  
HETATM   12  C   UNL     1     -11.829  11.897  63.497  1.00  0.00    -0.560 A  
HETATM   13  C   UNL     1     -10.164  12.171  65.224  1.00  0.00    -0.304 A  
HETATM   14  C   UNL     1     -10.819  11.361  64.294  1.00  0.00    -0.416 A  
HETATM   15  C   UNL     1     -11.531  14.053  64.560  1.00  0.00    -0.380 A  
HETATM   16  C   UNL     1     -12.187  13.239  63.631  1.00  0.00    -0.522 A  
ENDBRANCH   2  11
TORSDOF 4
ENDMDL
MODEL       62
REMARK 921   NORMALIZED FREE ENERGY PREDICTED BY IDOCK:   -4.79 KCAL/MOL
REMARK 922        TOTAL FREE ENERGY PREDICTED BY IDOCK:   -6.42 KCAL/MOL
REMARK 923 INTER-LIGAND FREE ENERGY PREDICTED BY IDOCK:   -6.12 KCAL/MOL
REMARK 924 INTRA-LIGAND FREE ENERGY PREDICTED BY IDOCK:   -0.30 KCAL/MOL
REMARK 927      BINDING AFFINITY PREDICTED BY RF-SCORE:    0.00 PKD
ROOT
HETATM    1  O   UNL     1     -12.182  13.724  71.080  1.00  0.00    -0.348 OA 
HETATM    2  C   UNL     1     -12.134  12.878  70.198  1.00  0.00    -0.302 C  
ENDROOT
BRANCH   2   3
HETATM    3  O   UNL     1     -12.273  11.543  70.368  1.00  0.00    -0.343 OA 
BRANCH   3   4
HETATM    4  C   UNL     1     -12.872  11.125  71.603  1.00  0.00    -0.419 C  
BRANCH   4   5
HETATM    5  C   UNL     1     -12.844   9.620  71.660  1.00  0.00    -0.499 A  
HETATM    6  C   UNL     1     -14.001   7.485  71.700  1.00  0.00    -0.523 A  
HETATM    7  C   UNL     1     -12.784   6.822  71.849  1.00  0.00    -0.298 A  
HETATM    8  C   UNL     1     -14.032   8.878  71.608  1.00  0.00    -0.417 A  
HETATM    9  C   UNL     1     -11.596   7.550  71.903  1.00  0.00    -0.312 A  
HETATM   10  C   UNL     1     -11.625   8.942  71.812  1.00  0.00    -0.422 A  
ENDBRANCH   4   5
ENDBRANCH   3   4
ENDBRANCH   2   3
BRANCH   2  11
HETATM   11  C   UNL     1     -11.904  13.217  68.766  1.00  0.00    -0.361 A  
HETATM   12  C   UNL     1     -11.501  13.977  66.098  1.00  0.00    -0.350 A  
HETATM   13  C   UNL     1     -11.828  14.572  68.416  1.00  0.00    -0.351 A  
HETATM   14  C   UNL     1     -11.628  14.951  67.087  1.00  0.00    -0.327 A  
HETATM   15  C   UNL     1     -11.770  12.243  67.767  1.00  0.00    -0.403 A  
HETATM   16  C   UNL     1     -11.568  12.625  66.437  1.00  0.00    -0.441 A  
ENDBRANCH   2  11
TORSDOF 4
ENDMDL
MODEL       63
REMARK 921   NORMALIZED FREE ENERGY PREDICTED BY IDOCK:   -4.79 KCAL/MOL
REMARK 922        TOTAL FREE ENERGY PREDICTED BY IDOCK:   -6.42 KCAL/MOL
REMARK 923 INTER-LIGAND FREE ENERGY PREDICTED BY IDOCK:   -6.04 KCAL/MOL
REMARK 924 INTRA-LIGAND FREE ENERGY PREDICTED BY IDOCK:   -0.37 KCAL/MOL
REMARK 927      BINDING AFFINITY PREDICTED BY RF-SCORE:    0.00 PKD
ROOT
HETATM    1  O   UNL     1      -9.477  10.225  66.399  1.00  0.00    -0.164 OA 
HETATM    2  C   UNL     1     -10.517  10.711  66.820  1.00  0.00    -0.247 C  
ENDROOT
BRANCH   2   3
HETATM    3  O   UNL     1     -11.206  10.296  67.908  1.00  0.00    -0.301 OA 
BRANCH   3   4
HETATM    4  C   UNL     1     -10.446  10.152  69.116  1.00  0.00    -0.222 C  
BRANCH   4   5
HETATM    5  C   UNL     1     -11.396   9.830  70.240  1.00  0.00    -0.333 A  
HETATM    6  C   UNL     1     -12.400   8.228  71.764  1.00  0.00    -0.366 A  
HETATM    7  C   UNL     1     -13.226   9.225  72.277  1.00  0.00    -0.535 A  
HETATM    8  C   UNL     1     -11.490   8.527  70.748  1.00  0.00    -0.281 A  
HETATM    9  C   UNL     1     -13.141  10.525  71.779  1.00  0.00    -0.570 A  
HETATM   10  C   UNL     1     -12.233  10.826  70.764  1.00  0.00    -0.480 A  
ENDBRANCH   4   5
ENDBRANCH   3   4
ENDBRANCH   2   3
BRANCH   2  11
HETATM   11  C   UNL     1     -11.192  11.865  66.164  1.00  0.00    -0.387 A  
HETATM   12  C   UNL     1     -12.494  14.083  65.048  1.00  0.00    -0.446 A  
HETATM   13  C   UNL     1     -11.572  12.948  66.970  1.00  0.00    -0.419 A  
HETATM   14  C   UNL     1     -12.222  14.052  66.415  1.00  0.00    -0.492 A  
HETATM   15  C   UNL     1     -11.465  11.906  64.790  1.00  0.00    -0.323 A  
HETATM   16  C   UNL     1     -12.114  13.014  64.236  1.00  0.00    -0.480 A  
ENDBRANCH   2  11
TORSDOF 4
ENDMDL
MODEL       64
REMARK 921   NORMALIZED FREE ENERGY PREDICTED BY IDOCK:   -4.77 KCAL/MOL
REMARK 922        TOTAL FREE ENERGY PREDICTED BY IDOCK:   -6.40 KCAL/MOL
REMARK 923 INTER-LIGAND FREE ENERGY PREDICTED BY IDOCK:   -6.00 KCAL/MOL
REMARK 924 INTRA-LIGAND FREE ENERGY PREDICTED BY IDOCK:   -0.40 KCAL/MOL
REMARK 927      BINDING AFFINITY PREDICTED BY RF-SCORE:    0.00 PKD
ROOT
HETATM    1  O   UNL     1     -10.816  17.810  67.926  1.00  0.00    -0.365 OA 
HETATM    2  C   UNL     1      -9.838  17.961  67.210  1.00  0.00    -0.309 C  
ENDROOT
BRANCH   2   3
HETATM    3  O   UNL     1      -9.610  17.337  66.031  1.00  0.00    -0.455 OA 
BRANCH   3   4
HETATM    4  C   UNL     1      -9.136  15.985  66.116  1.00  0.00    -0.351 C  
BRANCH   4   5
HETATM    5  C   UNL     1     -10.299  15.057  65.878  1.00  0.00    -0.329 A  
HETATM    6  C   UNL     1     -11.539  13.041  66.423  1.00  0.00    -0.413 A  
HETATM    7  C   UNL     1     -12.421  13.293  65.374  1.00  0.00    -0.543 A  
HETATM    8  C   UNL     1     -10.481  13.917  66.674  1.00  0.00    -0.272 A  
HETATM    9  C   UNL     1     -12.249  14.423  64.576  1.00  0.00    -0.483 A  
HETATM   10  C   UNL     1     -11.193  15.300  64.824  1.00  0.00    -0.405 A  
ENDBRANCH   4   5
ENDBRANCH   3   4
ENDBRANCH   2   3
BRANCH   2  11
HETATM   11  C   UNL     1      -8.721  18.884  67.553  1.00  0.00    -0.296 A  
HETATM   12  C   UNL     1      -6.613  20.567  68.317  1.00  0.00    -0.315 A  
HETATM   13  C   UNL     1      -7.992  18.626  68.723  1.00  0.00    -0.317 A  
HETATM   14  C   UNL     1      -6.943  19.465  69.104  1.00  0.00    -0.390 A  
HETATM   15  C   UNL     1      -8.380  19.991  66.764  1.00  0.00    -0.372 A  
HETATM   16  C   UNL     1      -7.327  20.828  67.148  1.00  0.00    -0.385 A  
ENDBRANCH   2  11
TORSDOF 4
ENDMDL
MODEL       65
REMARK 921   NORMALIZED FREE ENERGY PREDICTED BY IDOCK:   -4.77 KCAL/MOL
REMARK 922        TOTAL FREE ENERGY PREDICTED BY IDOCK:   -6.39 KCAL/MOL
REMARK 923 INTER-LIGAND FREE ENERGY PREDICTED BY IDOCK:   -5.95 KCAL/MOL
REMARK 924 INTRA-LIGAND FREE ENERGY PREDICTED BY IDOCK:   -0.44 KCAL/MOL
REMARK 927      BINDING AFFINITY PREDICTED BY RF-SCORE:    0.00 PKD
ROOT
HETATM    1  O   UNL     1     -10.966  13.237  67.006  1.00  0.00    -0.269 OA 
HETATM    2  C   UNL     1     -11.215  12.874  68.146  1.00  0.00    -0.270 C  
ENDROOT
BRANCH   2   3
HETATM    3  O   UNL     1     -12.151  13.410  68.965  1.00  0.00    -0.325 OA 
BRANCH   3   4
HETATM    4  C   UNL     1     -12.089  14.832  69.144  1.00  0.00    -0.243 C  
BRANCH   4   5
HETATM    5  C   UNL     1     -12.443  15.147  70.574  1.00  0.00    -0.429 A  
HETATM    6  C   UNL     1     -13.987  15.025  72.445  1.00  0.00    -0.593 A  
HETATM    7  C   UNL     1     -13.127  15.808  73.213  1.00  0.00    -0.692 A  
HETATM    8  C   UNL     1     -13.648  14.697  71.131  1.00  0.00    -0.404 A  
HETATM    9  C   UNL     1     -11.926  16.261  72.670  1.00  0.00    -0.644 A  
HETATM   10  C   UNL     1     -11.586  15.935  71.357  1.00  0.00    -0.529 A  
ENDBRANCH   4   5
ENDBRANCH   3   4
ENDBRANCH   2   3
BRANCH   2  11
HETATM   11  C   UNL     1     -10.494  11.756  68.815  1.00  0.00    -0.221 A  
HETATM   12  C   UNL     1      -9.231   9.646  70.160  1.00  0.00    -0.287 A  
HETATM   13  C   UNL     1     -11.184  11.018  69.786  1.00  0.00    -0.339 A  
HETATM   14  C   UNL     1     -10.554   9.967  70.458  1.00  0.00    -0.359 A  
HETATM   15  C   UNL     1      -9.165  11.424  68.517  1.00  0.00    -0.174 A  
HETATM   16  C   UNL     1      -8.538  10.370  69.190  1.00  0.00    -0.169 A  
ENDBRANCH   2  11
TORSDOF 4
ENDMDL
MODEL       66
REMARK 921   NORMALIZED FREE ENERGY PREDICTED BY IDOCK:   -4.76 KCAL/MOL
REMARK 922        TOTAL FREE ENERGY PREDICTED BY IDOCK:   -6.38 KCAL/MOL
REMARK 923 INTER-LIGAND FREE ENERGY PREDICTED BY IDOCK:   -6.02 KCAL/MOL
REMARK 924 INTRA-LIGAND FREE ENERGY PREDICTED BY IDOCK:   -0.36 KCAL/MOL
REMARK 927      BINDING AFFINITY PREDICTED BY RF-SCORE:    0.00 PKD
ROOT
HETATM    1  O   UNL     1     -11.770  15.827  68.889  1.00  0.00    -0.383 OA 
HETATM    2  C   UNL     1     -11.182  16.157  67.870  1.00  0.00    -0.245 C  
ENDROOT
BRANCH   2   3
HETATM    3  O   UNL     1     -10.954  15.371  66.792  1.00  0.00    -0.314 OA 
BRANCH   3   4
HETATM    4  C   UNL     1     -12.006  14.459  66.446  1.00  0.00    -0.385 C  
BRANCH   4   5
HETATM    5  C   UNL     1     -11.522  13.055  66.702  1.00  0.00    -0.382 A  
HETATM    6  C   UNL     1     -10.440  11.021  65.936  1.00  0.00    -0.300 A  
HETATM    7  C   UNL     1     -10.699  10.414  67.163  1.00  0.00    -0.316 A  
HETATM    8  C   UNL     1     -10.852  12.334  65.704  1.00  0.00    -0.321 A  
HETATM    9  C   UNL     1     -11.366  11.121  68.163  1.00  0.00    -0.377 A  
HETATM   10  C   UNL     1     -11.778  12.434  67.934  1.00  0.00    -0.421 A  
ENDBRANCH   4   5
ENDBRANCH   3   4
ENDBRANCH   2   3
BRANCH   2  11
HETATM   11  C   UNL     1     -10.611  17.518  67.673  1.00  0.00    -0.355 A  
HETATM   12  C   UNL     1      -9.537  20.096  67.430  1.00  0.00    -0.551 A  
HETATM   13  C   UNL     1     -10.121  18.194  68.799  1.00  0.00    -0.392 A  
HETATM   14  C   UNL     1      -9.587  19.479  68.679  1.00  0.00    -0.483 A  
HETATM   15  C   UNL     1     -10.553  18.143  66.419  1.00  0.00    -0.288 A  
HETATM   16  C   UNL     1     -10.016  19.429  66.302  1.00  0.00    -0.509 A  
ENDBRANCH   2  11
TORSDOF 4
ENDMDL
MODEL       67
REMARK 921   NORMALIZED FREE ENERGY PREDICTED BY IDOCK:   -4.75 KCAL/MOL
REMARK 922        TOTAL FREE ENERGY PREDICTED BY IDOCK:   -6.37 KCAL/MOL
REMARK 923 INTER-LIGAND FREE ENERGY PREDICTED BY IDOCK:   -5.39 KCAL/MOL
REMARK 924 INTRA-LIGAND FREE ENERGY PREDICTED BY IDOCK:   -0.98 KCAL/MOL
REMARK 927      BINDING AFFINITY PREDICTED BY RF-SCORE:    0.00 PKD
ROOT
HETATM    1  O   UNL     1     -11.803  10.782  67.868  1.00  0.00    -0.553 OA 
HETATM    2  C   UNL     1     -10.965  11.288  67.137  1.00  0.00    -0.291 C  
ENDROOT
BRANCH   2   3
HETATM    3  O   UNL     1      -9.657  11.470  67.433  1.00  0.00    -0.167 OA 
BRANCH   3   4
HETATM    4  C   UNL     1      -9.370  12.446  68.444  1.00  0.00    -0.158 C  
BRANCH   4   5
HETATM    5  C   UNL     1      -9.700  13.810  67.895  1.00  0.00    -0.229 A  
HETATM    6  C   UNL     1     -11.022  15.846  67.951  1.00  0.00    -0.327 A  
HETATM    7  C   UNL     1     -10.363  16.313  66.816  1.00  0.00    -0.296 A  
HETATM    8  C   UNL     1     -10.695  14.600  68.488  1.00  0.00    -0.248 A  
HETATM    9  C   UNL     1      -9.372  15.535  66.217  1.00  0.00    -0.355 A  
HETATM   10  C   UNL     1      -9.044  14.290  66.752  1.00  0.00    -0.269 A  
ENDBRANCH   4   5
ENDBRANCH   3   4
ENDBRANCH   2   3
BRANCH   2  11
HETATM   11  C   UNL     1     -11.283  11.797  65.774  1.00  0.00    -0.337 A  
HETATM   12  C   UNL     1     -11.987  12.814  63.258  1.00  0.00    -0.522 A  
HETATM   13  C   UNL     1     -12.266  12.790  65.657  1.00  0.00    -0.503 A  
HETATM   14  C   UNL     1     -12.618  13.295  64.403  1.00  0.00    -0.282 A  
HETATM   15  C   UNL     1     -10.649  11.321  64.618  1.00  0.00    -0.392 A  
HETATM   16  C   UNL     1     -11.002  11.831  63.364  1.00  0.00    -0.458 A  
ENDBRANCH   2  11
TORSDOF 4
ENDMDL
MODEL       68
REMARK 921   NORMALIZED FREE ENERGY PREDICTED BY IDOCK:   -4.74 KCAL/MOL
REMARK 922        TOTAL FREE ENERGY PREDICTED BY IDOCK:   -6.36 KCAL/MOL
REMARK 923 INTER-LIGAND FREE ENERGY PREDICTED BY IDOCK:   -5.67 KCAL/MOL
REMARK 924 INTRA-LIGAND FREE ENERGY PREDICTED BY IDOCK:   -0.69 KCAL/MOL
REMARK 927      BINDING AFFINITY PREDICTED BY RF-SCORE:    0.00 PKD
ROOT
HETATM    1  O   UNL     1     -14.251   7.315  71.337  1.00  0.00    -0.422 OA 
HETATM    2  C   UNL     1     -13.079   7.539  71.603  1.00  0.00    -0.358 C  
ENDROOT
BRANCH   2   3
HETATM    3  O   UNL     1     -12.602   8.640  72.229  1.00  0.00    -0.365 OA 
BRANCH   3   4
HETATM    4  C   UNL     1     -12.937   9.899  71.629  1.00  0.00    -0.434 C  
BRANCH   4   5
HETATM    5  C   UNL     1     -11.877  10.240  70.614  1.00  0.00    -0.439 A  
HETATM    6  C   UNL     1     -11.217  11.259  68.511  1.00  0.00    -0.311 A  
HETATM    7  C   UNL     1      -9.914  10.797  68.690  1.00  0.00    -0.189 A  
HETATM    8  C   UNL     1     -12.195  10.980  69.467  1.00  0.00    -0.352 A  
HETATM    9  C   UNL     1      -9.587  10.059  69.826  1.00  0.00    -0.249 A  
HETATM   10  C   UNL     1     -10.563   9.779  70.782  1.00  0.00    -0.371 A  
ENDBRANCH   4   5
ENDBRANCH   3   4
ENDBRANCH   2   3
BRANCH   2  11
HETATM   11  C   UNL     1     -11.978   6.598  71.256  1.00  0.00    -0.409 A  
HETATM   12  C   UNL     1      -9.880   4.814  70.731  1.00  0.00    -0.280 A  
HETATM   13  C   UNL     1     -11.395   5.859  72.296  1.00  0.00    -0.351 A  
HETATM   14  C   UNL     1     -10.349   4.971  72.034  1.00  0.00    -0.276 A  
HETATM   15  C   UNL     1     -11.505   6.431  69.948  1.00  0.00    -0.483 A  
HETATM   16  C   UNL     1     -10.458   5.540  69.689  1.00  0.00    -0.379 A  
ENDBRANCH   2  11
TORSDOF 4
ENDMDL
MODEL       69
REMARK 921   NORMALIZED FREE ENERGY PREDICTED BY IDOCK:   -4.70 KCAL/MOL
REMARK 922        TOTAL FREE ENERGY PREDICTED BY IDOCK:   -6.31 KCAL/MOL
REMARK 923 INTER-LIGAND FREE ENERGY PREDICTED BY IDOCK:   -5.82 KCAL/MOL
REMARK 924 INTRA-LIGAND FREE ENERGY PREDICTED BY IDOCK:   -0.49 KCAL/MOL
REMARK 927      BINDING AFFINITY PREDICTED BY RF-SCORE:    0.00 PKD
ROOT
HETATM    1  O   UNL     1     -11.153  12.532  68.838  1.00  0.00    -0.246 OA 
HETATM    2  C   UNL     1     -11.810  13.550  68.998  1.00  0.00    -0.343 C  
ENDROOT
BRANCH   2   3
HETATM    3  O   UNL     1     -12.233  14.386  68.021  1.00  0.00    -0.281 OA 
BRANCH   3   4
HETATM    4  C   UNL     1     -11.601  14.230  66.743  1.00  0.00    -0.391 C  
BRANCH   4   5
HETATM    5  C   UNL     1     -10.427  15.171  66.674  1.00  0.00    -0.287 A  
HETATM    6  C   UNL     1      -8.041  15.589  66.856  1.00  0.00    -0.284 A  
HETATM    7  C   UNL     1      -8.256  16.946  66.626  1.00  0.00    -0.292 A  
HETATM    8  C   UNL     1      -9.121  14.705  66.883  1.00  0.00    -0.272 A  
HETATM    9  C   UNL     1      -9.550  17.421  66.417  1.00  0.00    -0.291 A  
HETATM   10  C   UNL     1     -10.630  16.540  66.444  1.00  0.00    -0.221 A  
ENDBRANCH   4   5
ENDBRANCH   3   4
ENDBRANCH   2   3
BRANCH   2  11
HETATM   11  C   UNL     1     -12.247  14.026  70.339  1.00  0.00    -0.433 A  
HETATM   12  C   UNL     1     -12.993  15.027  72.850  1.00  0.00    -0.561 A  
HETATM   13  C   UNL     1     -11.937  15.345  70.701  1.00  0.00    -0.396 A  
HETATM   14  C   UNL     1     -12.307  15.843  71.952  1.00  0.00    -0.541 A  
HETATM   15  C   UNL     1     -12.941  13.213  71.246  1.00  0.00    -0.339 A  
HETATM   16  C   UNL     1     -13.312  13.715  72.497  1.00  0.00    -0.638 A  
ENDBRANCH   2  11
TORSDOF 4
ENDMDL
MODEL       70
REMARK 921   NORMALIZED FREE ENERGY PREDICTED BY IDOCK:   -4.70 KCAL/MOL
REMARK 922        TOTAL FREE ENERGY PREDICTED BY IDOCK:   -6.30 KCAL/MOL
REMARK 923 INTER-LIGAND FREE ENERGY PREDICTED BY IDOCK:   -5.73 KCAL/MOL
REMARK 924 INTRA-LIGAND FREE ENERGY PREDICTED BY IDOCK:   -0.57 KCAL/MOL
REMARK 927      BINDING AFFINITY PREDICTED BY RF-SCORE:    0.00 PKD
ROOT
HETATM    1  O   UNL     1     -10.720   7.155  73.665  1.00  0.00    -0.375 OA 
HETATM    2  C   UNL     1     -11.322   7.233  72.604  1.00  0.00    -0.291 C  
ENDROOT
BRANCH   2   3
HETATM    3  O   UNL     1     -11.684   6.194  71.816  1.00  0.00    -0.300 OA 
BRANCH   3   4
HETATM    4  C   UNL     1     -10.649   5.251  71.503  1.00  0.00    -0.184 C  
BRANCH   4   5
HETATM    5  C   UNL     1     -10.460   5.231  70.008  1.00  0.00    -0.351 A  
HETATM    6  C   UNL     1      -9.370   4.343  68.029  1.00  0.00    -0.191 A  
HETATM    7  C   UNL     1     -10.057   5.258  67.233  1.00  0.00    -0.234 A  
HETATM    8  C   UNL     1      -9.568   4.330  69.410  1.00  0.00    -0.267 A  
HETATM    9  C   UNL     1     -10.946   6.159  67.817  1.00  0.00    -0.400 A  
HETATM   10  C   UNL     1     -11.145   6.148  69.197  1.00  0.00    -0.448 A  
ENDBRANCH   4   5
ENDBRANCH   3   4
ENDBRANCH   2   3
BRANCH   2  11
HETATM   11  C   UNL     1     -11.750   8.531  72.012  1.00  0.00    -0.431 A  
HETATM   12  C   UNL     1     -12.435  10.988  70.848  1.00  0.00    -0.509 A  
HETATM   13  C   UNL     1     -10.907   9.129  71.065  1.00  0.00    -0.362 A  
HETATM   14  C   UNL     1     -11.247  10.354  70.486  1.00  0.00    -0.395 A  
HETATM   15  C   UNL     1     -12.944   9.171  72.368  1.00  0.00    -0.468 A  
HETATM   16  C   UNL     1     -13.284  10.397  71.785  1.00  0.00    -0.529 A  
ENDBRANCH   2  11
TORSDOF 4
ENDMDL
MODEL       71
REMARK 921   NORMALIZED FREE ENERGY PREDICTED BY IDOCK:   -4.67 KCAL/MOL
REMARK 922        TOTAL FREE ENERGY PREDICTED BY IDOCK:   -6.27 KCAL/MOL
REMARK 923 INTER-LIGAND FREE ENERGY PREDICTED BY IDOCK:   -5.92 KCAL/MOL
REMARK 924 INTRA-LIGAND FREE ENERGY PREDICTED BY IDOCK:   -0.35 KCAL/MOL
REMARK 927      BINDING AFFINITY PREDICTED BY RF-SCORE:    0.00 PKD
ROOT
HETATM    1  O   UNL     1      -8.799  15.414  68.434  1.00  0.00    -0.168 OA 
HETATM    2  C   UNL     1      -9.747  16.184  68.465  1.00  0.00    -0.217 C  
ENDROOT
BRANCH   2   3
HETATM    3  O   UNL     1     -11.010  15.878  68.843  1.00  0.00    -0.253 OA 
BRANCH   3   4
HETATM    4  C   UNL     1     -11.635  14.799  68.132  1.00  0.00    -0.332 C  
BRANCH   4   5
HETATM    5  C   UNL     1     -11.892  13.676  69.103  1.00  0.00    -0.394 A  
HETATM    6  C   UNL     1     -12.559  12.898  71.304  1.00  0.00    -0.352 A  
HETATM    7  C   UNL     1     -12.289  11.583  70.927  1.00  0.00    -0.460 A  
HETATM    8  C   UNL     1     -12.359  13.940  70.398  1.00  0.00    -0.433 A  
HETATM    9  C   UNL     1     -11.824  11.309  69.642  1.00  0.00    -0.430 A  
HETATM   10  C   UNL     1     -11.623  12.349  68.735  1.00  0.00    -0.373 A  
ENDBRANCH   4   5
ENDBRANCH   3   4
ENDBRANCH   2   3
BRANCH   2  11
HETATM   11  C   UNL     1      -9.637  17.617  68.073  1.00  0.00    -0.289 A  
HETATM   12  C   UNL     1      -9.324  20.323  67.412  1.00  0.00    -0.531 A  
HETATM   13  C   UNL     1      -8.464  18.303  68.419  1.00  0.00    -0.319 A  
HETATM   14  C   UNL     1      -8.309  19.652  68.091  1.00  0.00    -0.347 A  
HETATM   15  C   UNL     1     -10.652  18.297  67.386  1.00  0.00    -0.425 A  
HETATM   16  C   UNL     1     -10.493  19.647  67.057  1.00  0.00    -0.600 A  
ENDBRANCH   2  11
TORSDOF 4
ENDMDL
MODEL       72
REMARK 921   NORMALIZED FREE ENERGY PREDICTED BY IDOCK:   -4.67 KCAL/MOL
REMARK 922        TOTAL FREE ENERGY PREDICTED BY IDOCK:   -6.27 KCAL/MOL
REMARK 923 INTER-LIGAND FREE ENERGY PREDICTED BY IDOCK:   -5.92 KCAL/MOL
REMARK 924 INTRA-LIGAND FREE ENERGY PREDICTED BY IDOCK:   -0.35 KCAL/MOL
REMARK 927      BINDING AFFINITY PREDICTED BY RF-SCORE:    0.00 PKD
ROOT
HETATM    1  O   UNL     1     -13.327   7.200  71.385  1.00  0.00    -0.381 OA 
HETATM    2  C   UNL     1     -12.357   7.831  71.779  1.00  0.00    -0.317 C  
ENDROOT
BRANCH   2   3
HETATM    3  O   UNL     1     -12.148   9.157  71.612  1.00  0.00    -0.315 OA 
BRANCH   3   4
HETATM    4  C   UNL     1     -13.238  10.016  71.975  1.00  0.00    -0.443 C  
BRANCH   4   5
HETATM    5  C   UNL     1     -12.912  11.416  71.524  1.00  0.00    -0.505 A  
HETATM    6  C   UNL     1     -13.161  13.821  71.750  1.00  0.00    -0.467 A  
HETATM    7  C   UNL     1     -12.364  14.015  70.624  1.00  0.00    -0.446 A  
HETATM    8  C   UNL     1     -13.437  12.527  72.198  1.00  0.00    -0.523 A  
HETATM    9  C   UNL     1     -11.837  12.917  69.946  1.00  0.00    -0.373 A  
HETATM   10  C   UNL     1     -12.111  11.624  70.391  1.00  0.00    -0.462 A  
ENDBRANCH   4   5
ENDBRANCH   3   4
ENDBRANCH   2   3
BRANCH   2  11
HETATM   11  C   UNL     1     -11.230   7.198  72.519  1.00  0.00    -0.327 A  
HETATM   12  C   UNL     1      -9.178   5.897  73.918  1.00  0.00    -0.127 A  
HETATM   13  C   UNL     1     -11.251   5.806  72.682  1.00  0.00    -0.348 A  
HETATM   14  C   UNL     1     -10.230   5.157  73.380  1.00  0.00    -0.220 A  
HETATM   15  C   UNL     1     -10.166   7.935  73.058  1.00  0.00    -0.394 A  
HETATM   16  C   UNL     1      -9.144   7.283  73.755  1.00  0.00    -0.266 A  
ENDBRANCH   2  11
TORSDOF 4
ENDMDL
MODEL       73
REMARK 921   NORMALIZED FREE ENERGY PREDICTED BY IDOCK:   -4.66 KCAL/MOL
REMARK 922        TOTAL FREE ENERGY PREDICTED BY IDOCK:   -6.25 KCAL/MOL
REMARK 923 INTER-LIGAND FREE ENERGY PREDICTED BY IDOCK:   -5.91 KCAL/MOL
REMARK 924 INTRA-LIGAND FREE ENERGY PREDICTED BY IDOCK:   -0.34 KCAL/MOL
REMARK 927      BINDING AFFINITY PREDICTED BY RF-SCORE:    0.00 PKD
ROOT
HETATM    1  O   UNL     1     -14.130   8.972  71.938  1.00  0.00    -0.388 OA 
HETATM    2  C   UNL     1     -13.023   9.387  71.624  1.00  0.00    -0.391 C  
ENDROOT
BRANCH   2   3
HETATM    3  O   UNL     1     -11.883   8.660  71.586  1.00  0.00    -0.285 OA 
BRANCH   3   4
HETATM    4  C   UNL     1     -11.950   7.352  72.171  1.00  0.00    -0.270 C  
BRANCH   4   5
HETATM    5  C   UNL     1     -11.178   6.399  71.296  1.00  0.00    -0.346 A  
HETATM    6  C   UNL     1     -10.550   5.588  69.095  1.00  0.00    -0.300 A  
HETATM    7  C   UNL     1      -9.800   4.569  69.678  1.00  0.00    -0.288 A  
HETATM    8  C   UNL     1     -11.238   6.498  69.899  1.00  0.00    -0.456 A  
HETATM    9  C   UNL     1      -9.733   4.460  71.066  1.00  0.00    -0.260 A  
HETATM   10  C   UNL     1     -10.420   5.368  71.872  1.00  0.00    -0.283 A  
ENDBRANCH   4   5
ENDBRANCH   3   4
ENDBRANCH   2   3
BRANCH   2  11
HETATM   11  C   UNL     1     -12.773  10.801  71.231  1.00  0.00    -0.546 A  
HETATM   12  C   UNL     1     -12.395  13.500  70.574  1.00  0.00    -0.412 A  
HETATM   13  C   UNL     1     -13.363  11.811  72.004  1.00  0.00    -0.417 A  
HETATM   14  C   UNL     1     -13.176  13.156  71.676  1.00  0.00    -0.435 A  
HETATM   15  C   UNL     1     -11.985  11.155  70.128  1.00  0.00    -0.449 A  
HETATM   16  C   UNL     1     -11.798  12.503  69.803  1.00  0.00    -0.380 A  
ENDBRANCH   2  11
TORSDOF 4
ENDMDL
MODEL       74
REMARK 921   NORMALIZED FREE ENERGY PREDICTED BY IDOCK:   -4.65 KCAL/MOL
REMARK 922        TOTAL FREE ENERGY PREDICTED BY IDOCK:   -6.25 KCAL/MOL
REMARK 923 INTER-LIGAND FREE ENERGY PREDICTED BY IDOCK:   -5.76 KCAL/MOL
REMARK 924 INTRA-LIGAND FREE ENERGY PREDICTED BY IDOCK:   -0.49 KCAL/MOL
REMARK 927      BINDING AFFINITY PREDICTED BY RF-SCORE:    0.00 PKD
ROOT
HETATM    1  O   UNL     1      -9.284  14.733  68.350  1.00  0.00    -0.177 OA 
HETATM    2  C   UNL     1     -10.332  15.035  67.796  1.00  0.00    -0.245 C  
ENDROOT
BRANCH   2   3
HETATM    3  O   UNL     1     -11.133  16.076  68.121  1.00  0.00    -0.332 OA 
BRANCH   3   4
HETATM    4  C   UNL     1     -10.552  17.074  68.974  1.00  0.00    -0.314 C  
BRANCH   4   5
HETATM    5  C   UNL     1     -10.013  18.183  68.109  1.00  0.00    -0.368 A  
HETATM    6  C   UNL     1      -8.238  19.735  67.527  1.00  0.00    -0.347 A  
HETATM    7  C   UNL     1      -9.049  20.304  66.546  1.00  0.00    -0.354 A  
HETATM    8  C   UNL     1      -8.717  18.682  68.307  1.00  0.00    -0.349 A  
HETATM    9  C   UNL     1     -10.339  19.817  66.341  1.00  0.00    -0.619 A  
HETATM   10  C   UNL     1     -10.820  18.764  67.119  1.00  0.00    -0.375 A  
ENDBRANCH   4   5
ENDBRANCH   3   4
ENDBRANCH   2   3
BRANCH   2  11
HETATM   11  C   UNL     1     -10.889  14.266  66.649  1.00  0.00    -0.301 A  
HETATM   12  C   UNL     1     -11.817  12.793  64.451  1.00  0.00    -0.446 A  
HETATM   13  C   UNL     1     -10.008  13.473  65.900  1.00  0.00    -0.295 A  
HETATM   14  C   UNL     1     -10.470  12.741  64.804  1.00  0.00    -0.357 A  
HETATM   15  C   UNL     1     -12.244  14.310  66.292  1.00  0.00    -0.433 A  
HETATM   16  C   UNL     1     -12.704  13.574  65.195  1.00  0.00    -0.453 A  
ENDBRANCH   2  11
TORSDOF 4
ENDMDL
MODEL       75
REMARK 921   NORMALIZED FREE ENERGY PREDICTED BY IDOCK:   -4.65 KCAL/MOL
REMARK 922        TOTAL FREE ENERGY PREDICTED BY IDOCK:   -6.25 KCAL/MOL
REMARK 923 INTER-LIGAND FREE ENERGY PREDICTED BY IDOCK:   -5.56 KCAL/MOL
REMARK 924 INTRA-LIGAND FREE ENERGY PREDICTED BY IDOCK:   -0.69 KCAL/MOL
REMARK 927      BINDING AFFINITY PREDICTED BY RF-SCORE:    0.00 PKD
ROOT
HETATM    1  O   UNL     1      -6.915  16.614  68.257  1.00  0.00    -0.147 OA 
HETATM    2  C   UNL     1      -7.852  16.696  67.476  1.00  0.00    -0.171 C  
ENDROOT
BRANCH   2   3
HETATM    3  O   UNL     1      -8.179  15.789  66.527  1.00  0.00    -0.273 OA 
BRANCH   3   4
HETATM    4  C   UNL     1      -8.677  14.530  67.004  1.00  0.00    -0.234 C  
BRANCH   4   5
HETATM    5  C   UNL     1     -10.035  14.295  66.397  1.00  0.00    -0.302 A  
HETATM    6  C   UNL     1     -11.777  14.900  64.817  1.00  0.00    -0.402 A  
HETATM    7  C   UNL     1     -12.599  13.900  65.331  1.00  0.00    -0.538 A  
HETATM    8  C   UNL     1     -10.501  15.099  65.348  1.00  0.00    -0.416 A  
HETATM    9  C   UNL     1     -12.147  13.094  66.375  1.00  0.00    -0.447 A  
HETATM   10  C   UNL     1     -10.873  13.292  66.907  1.00  0.00    -0.286 A  
ENDBRANCH   4   5
ENDBRANCH   3   4
ENDBRANCH   2   3
BRANCH   2  11
HETATM   11  C   UNL     1      -8.793  17.851  67.462  1.00  0.00    -0.248 A  
HETATM   12  C   UNL     1     -10.530  20.046  67.311  1.00  0.00    -0.505 A  
HETATM   13  C   UNL     1      -9.114  18.420  66.221  1.00  0.00    -0.213 A  
HETATM   14  C   UNL     1      -9.979  19.514  66.146  1.00  0.00    -0.526 A  
HETATM   15  C   UNL     1      -9.355  18.387  68.628  1.00  0.00    -0.339 A  
HETATM   16  C   UNL     1     -10.222  19.482  68.549  1.00  0.00    -0.517 A  
ENDBRANCH   2  11
TORSDOF 4
ENDMDL
MODEL       76
REMARK 921   NORMALIZED FREE ENERGY PREDICTED BY IDOCK:   -4.65 KCAL/MOL
REMARK 922        TOTAL FREE ENERGY PREDICTED BY IDOCK:   -6.25 KCAL/MOL
REMARK 923 INTER-LIGAND FREE ENERGY PREDICTED BY IDOCK:   -5.93 KCAL/MOL
REMARK 924 INTRA-LIGAND FREE ENERGY PREDICTED BY IDOCK:   -0.31 KCAL/MOL
REMARK 927      BINDING AFFINITY PREDICTED BY RF-SCORE:    0.00 PKD
ROOT
HETATM    1  O   UNL     1     -12.344  13.014  70.412  1.00  0.00    -0.334 OA 
HETATM    2  C   UNL     1     -11.857  11.943  70.080  1.00  0.00    -0.328 C  
ENDROOT
BRANCH   2   3
HETATM    3  O   UNL     1     -11.090  11.722  68.987  1.00  0.00    -0.223 OA 
BRANCH   3   4
HETATM    4  C   UNL     1     -11.785  11.661  67.733  1.00  0.00    -0.245 C  
BRANCH   4   5
HETATM    5  C   UNL     1     -11.299  12.792  66.864  1.00  0.00    -0.371 A  
HETATM    6  C   UNL     1     -10.260  14.973  66.622  1.00  0.00    -0.271 A  
HETATM    7  C   UNL     1     -10.474  14.928  65.246  1.00  0.00    -0.427 A  
HETATM    8  C   UNL     1     -10.673  13.912  67.429  1.00  0.00    -0.275 A  
HETATM    9  C   UNL     1     -11.096  13.820  64.673  1.00  0.00    -0.391 A  
HETATM   10  C   UNL     1     -11.510  12.758  65.478  1.00  0.00    -0.372 A  
ENDBRANCH   4   5
ENDBRANCH   3   4
ENDBRANCH   2   3
BRANCH   2  11
HETATM   11  C   UNL     1     -12.054  10.691  70.860  1.00  0.00    -0.489 A  
HETATM   12  C   UNL     1     -12.318   8.283  72.273  1.00  0.00    -0.410 A  
HETATM   13  C   UNL     1     -11.007   9.758  70.879  1.00  0.00    -0.411 A  
HETATM   14  C   UNL     1     -11.139   8.558  71.582  1.00  0.00    -0.360 A  
HETATM   15  C   UNL     1     -13.235  10.410  71.562  1.00  0.00    -0.485 A  
HETATM   16  C   UNL     1     -13.363   9.208  72.266  1.00  0.00    -0.540 A  
ENDBRANCH   2  11
TORSDOF 4
ENDMDL
MODEL       77
REMARK 921   NORMALIZED FREE ENERGY PREDICTED BY IDOCK:   -4.65 KCAL/MOL
REMARK 922        TOTAL FREE ENERGY PREDICTED BY IDOCK:   -6.24 KCAL/MOL
REMARK 923 INTER-LIGAND FREE ENERGY PREDICTED BY IDOCK:   -5.56 KCAL/MOL
REMARK 924 INTRA-LIGAND FREE ENERGY PREDICTED BY IDOCK:   -0.68 KCAL/MOL
REMARK 927      BINDING AFFINITY PREDICTED BY RF-SCORE:    0.00 PKD
ROOT
HETATM    1  O   UNL     1     -10.650  15.193  70.129  1.00  0.00    -0.261 OA 
HETATM    2  C   UNL     1     -10.542  15.009  68.925  1.00  0.00    -0.242 C  
ENDROOT
BRANCH   2   3
HETATM    3  O   UNL     1     -10.800  13.853  68.270  1.00  0.00    -0.237 OA 
BRANCH   3   4
HETATM    4  C   UNL     1     -12.075  13.772  67.617  1.00  0.00    -0.298 C  
BRANCH   4   5
HETATM    5  C   UNL     1     -11.866  13.217  66.232  1.00  0.00    -0.455 A  
HETATM    6  C   UNL     1     -10.954  11.521  64.752  1.00  0.00    -0.338 A  
HETATM    7  C   UNL     1     -11.412  12.234  63.645  1.00  0.00    -0.572 A  
HETATM    8  C   UNL     1     -11.178  12.011  66.040  1.00  0.00    -0.385 A  
HETATM    9  C   UNL     1     -12.097  13.434  63.824  1.00  0.00    -0.516 A  
HETATM   10  C   UNL     1     -12.321  13.926  65.111  1.00  0.00    -0.471 A  
ENDBRANCH   4   5
ENDBRANCH   3   4
ENDBRANCH   2   3
BRANCH   2  11
HETATM   11  C   UNL     1     -10.090  16.070  67.983  1.00  0.00    -0.240 A  
HETATM   12  C   UNL     1      -9.349  18.134  66.236  1.00  0.00    -0.220 A  
HETATM   13  C   UNL     1     -10.785  17.288  67.984  1.00  0.00    -0.367 A  
HETATM   14  C   UNL     1     -10.417  18.315  67.112  1.00  0.00    -0.417 A  
HETATM   15  C   UNL     1      -9.013  15.897  67.103  1.00  0.00    -0.226 A  
HETATM   16  C   UNL     1      -8.645  16.928  66.233  1.00  0.00    -0.319 A  
ENDBRANCH   2  11
TORSDOF 4
ENDMDL
MODEL       78
REMARK 921   NORMALIZED FREE ENERGY PREDICTED BY IDOCK:   -4.63 KCAL/MOL
REMARK 922        TOTAL FREE ENERGY PREDICTED BY IDOCK:   -6.23 KCAL/MOL
REMARK 923 INTER-LIGAND FREE ENERGY PREDICTED BY IDOCK:   -5.75 KCAL/MOL
REMARK 924 INTRA-LIGAND FREE ENERGY PREDICTED BY IDOCK:   -0.47 KCAL/MOL
REMARK 927      BINDING AFFINITY PREDICTED BY RF-SCORE:    0.00 PKD
ROOT
HETATM    1  O   UNL     1     -10.729  11.722  66.551  1.00  0.00    -0.244 OA 
HETATM    2  C   UNL     1     -11.201  11.323  67.606  1.00  0.00    -0.292 C  
ENDROOT
BRANCH   2   3
HETATM    3  O   UNL     1     -12.001  12.030  68.437  1.00  0.00    -0.377 OA 
BRANCH   3   4
HETATM    4  C   UNL     1     -11.469  13.274  68.916  1.00  0.00    -0.298 C  
BRANCH   4   5
HETATM    5  C   UNL     1     -12.235  13.677  70.148  1.00  0.00    -0.413 A  
HETATM    6  C   UNL     1     -13.347  13.097  72.228  1.00  0.00    -0.621 A  
HETATM    7  C   UNL     1     -13.733  14.425  72.399  1.00  0.00    -0.590 A  
HETATM    8  C   UNL     1     -12.604  12.723  71.107  1.00  0.00    -0.365 A  
HETATM    9  C   UNL     1     -13.372  15.382  71.451  1.00  0.00    -0.601 A  
HETATM   10  C   UNL     1     -12.630  15.010  70.331  1.00  0.00    -0.399 A  
ENDBRANCH   4   5
ENDBRANCH   3   4
ENDBRANCH   2   3
BRANCH   2  11
HETATM   11  C   UNL     1     -10.946   9.956  68.139  1.00  0.00    -0.261 A  
HETATM   12  C   UNL     1     -10.460   7.434  69.262  1.00  0.00    -0.222 A  
HETATM   13  C   UNL     1     -11.020   9.768  69.526  1.00  0.00    -0.256 A  
HETATM   14  C   UNL     1     -10.777   8.512  70.086  1.00  0.00    -0.240 A  
HETATM   15  C   UNL     1     -10.632   8.866  67.316  1.00  0.00    -0.304 A  
HETATM   16  C   UNL     1     -10.390   7.609  67.879  1.00  0.00    -0.270 A  
ENDBRANCH   2  11
TORSDOF 4
ENDMDL
MODEL       79
REMARK 921   NORMALIZED FREE ENERGY PREDICTED BY IDOCK:   -4.59 KCAL/MOL
REMARK 922        TOTAL FREE ENERGY PREDICTED BY IDOCK:   -6.17 KCAL/MOL
REMARK 923 INTER-LIGAND FREE ENERGY PREDICTED BY IDOCK:   -5.59 KCAL/MOL
REMARK 924 INTRA-LIGAND FREE ENERGY PREDICTED BY IDOCK:   -0.57 KCAL/MOL
REMARK 927      BINDING AFFINITY PREDICTED BY RF-SCORE:    0.00 PKD
ROOT
HETATM    1  O   UNL     1     -11.547   5.769  72.629  1.00  0.00    -0.300 OA 
HETATM    2  C   UNL     1     -11.650   6.315  71.540  1.00  0.00    -0.287 C  
ENDROOT
BRANCH   2   3
HETATM    3  O   UNL     1     -12.377   7.424  71.271  1.00  0.00    -0.327 OA 
BRANCH   3   4
HETATM    4  C   UNL     1     -12.271   8.492  72.224  1.00  0.00    -0.389 C  
BRANCH   4   5
HETATM    5  C   UNL     1     -12.128   9.789  71.471  1.00  0.00    -0.493 A  
HETATM    6  C   UNL     1     -12.837  12.071  71.041  1.00  0.00    -0.279 A  
HETATM    7  C   UNL     1     -11.907  12.171  70.008  1.00  0.00    -0.383 A  
HETATM    8  C   UNL     1     -12.950  10.885  71.768  1.00  0.00    -0.557 A  
HETATM    9  C   UNL     1     -11.084  11.088  69.704  1.00  0.00    -0.320 A  
HETATM   10  C   UNL     1     -11.195   9.901  70.430  1.00  0.00    -0.379 A  
ENDBRANCH   4   5
ENDBRANCH   3   4
ENDBRANCH   2   3
BRANCH   2  11
HETATM   11  C   UNL     1     -10.967   5.811  70.316  1.00  0.00    -0.347 A  
HETATM   12  C   UNL     1      -9.764   4.932  67.941  1.00  0.00    -0.202 A  
HETATM   13  C   UNL     1     -11.275   6.424  69.093  1.00  0.00    -0.421 A  
HETATM   14  C   UNL     1     -10.677   5.985  67.910  1.00  0.00    -0.363 A  
HETATM   15  C   UNL     1     -10.044   4.756  70.341  1.00  0.00    -0.301 A  
HETATM   16  C   UNL     1      -9.446   4.320  69.155  1.00  0.00    -0.245 A  
ENDBRANCH   2  11
TORSDOF 4
ENDMDL
MODEL       80
REMARK 921   NORMALIZED FREE ENERGY PREDICTED BY IDOCK:   -4.57 KCAL/MOL
REMARK 922        TOTAL FREE ENERGY PREDICTED BY IDOCK:   -6.15 KCAL/MOL
REMARK 923 INTER-LIGAND FREE ENERGY PREDICTED BY IDOCK:   -5.82 KCAL/MOL
REMARK 924 INTRA-LIGAND FREE ENERGY PREDICTED BY IDOCK:   -0.33 KCAL/MOL
REMARK 927      BINDING AFFINITY PREDICTED BY RF-SCORE:    0.00 PKD
ROOT
HETATM    1  O   UNL     1      -9.001  15.287  67.642  1.00  0.00    -0.174 OA 
HETATM    2  C   UNL     1     -10.016  15.968  67.594  1.00  0.00    -0.239 C  
ENDROOT
BRANCH   2   3
HETATM    3  O   UNL     1     -11.287  15.508  67.661  1.00  0.00    -0.324 OA 
BRANCH   3   4
HETATM    4  C   UNL     1     -11.679  14.591  66.629  1.00  0.00    -0.371 C  
BRANCH   4   5
HETATM    5  C   UNL     1     -11.526  13.188  67.156  1.00  0.00    -0.378 A  
HETATM    6  C   UNL     1     -11.799  11.559  68.936  1.00  0.00    -0.406 A  
HETATM    7  C   UNL     1     -11.163  10.593  68.157  1.00  0.00    -0.366 A  
HETATM    8  C   UNL     1     -11.978  12.851  68.440  1.00  0.00    -0.289 A  
HETATM    9  C   UNL     1     -10.709  10.918  66.880  1.00  0.00    -0.318 A  
HETATM   10  C   UNL     1     -10.887  12.208  66.382  1.00  0.00    -0.306 A  
ENDBRANCH   4   5
ENDBRANCH   3   4
ENDBRANCH   2   3
BRANCH   2  11
HETATM   11  C   UNL     1      -9.988  17.449  67.444  1.00  0.00    -0.305 A  
HETATM   12  C   UNL     1      -9.904  20.247  67.290  1.00  0.00    -0.593 A  
HETATM   13  C   UNL     1      -9.439  18.204  68.491  1.00  0.00    -0.339 A  
HETATM   14  C   UNL     1      -9.398  19.598  68.415  1.00  0.00    -0.425 A  
HETATM   15  C   UNL     1     -10.490  18.109  66.314  1.00  0.00    -0.374 A  
HETATM   16  C   UNL     1     -10.447  19.505  66.240  1.00  0.00    -0.609 A  
ENDBRANCH   2  11
TORSDOF 4
ENDMDL
MODEL       81
REMARK 921   NORMALIZED FREE ENERGY PREDICTED BY IDOCK:   -4.57 KCAL/MOL
REMARK 922        TOTAL FREE ENERGY PREDICTED BY IDOCK:   -6.14 KCAL/MOL
REMARK 923 INTER-LIGAND FREE ENERGY PREDICTED BY IDOCK:   -5.31 KCAL/MOL
REMARK 924 INTRA-LIGAND FREE ENERGY PREDICTED BY IDOCK:   -0.83 KCAL/MOL
REMARK 927      BINDING AFFINITY PREDICTED BY RF-SCORE:    0.00 PKD
ROOT
HETATM    1  O   UNL     1     -10.307  10.258  66.648  1.00  0.00    -0.227 OA 
HETATM    2  C   UNL     1     -11.118  10.776  67.402  1.00  0.00    -0.296 C  
ENDROOT
BRANCH   2   3
HETATM    3  O   UNL     1     -11.998  11.751  67.076  1.00  0.00    -0.610 OA 
BRANCH   3   4
HETATM    4  C   UNL     1     -11.438  12.935  66.490  1.00  0.00    -0.341 C  
BRANCH   4   5
HETATM    5  C   UNL     1     -11.065  13.884  67.599  1.00  0.00    -0.295 A  
HETATM    6  C   UNL     1      -9.384  14.976  68.970  1.00  0.00    -0.206 A  
HETATM    7  C   UNL     1     -10.386  15.590  69.719  1.00  0.00    -0.316 A  
HETATM    8  C   UNL     1      -9.721  14.125  67.916  1.00  0.00    -0.224 A  
HETATM    9  C   UNL     1     -11.726  15.358  69.414  1.00  0.00    -0.369 A  
HETATM   10  C   UNL     1     -12.065  14.507  68.361  1.00  0.00    -0.249 A  
ENDBRANCH   4   5
ENDBRANCH   3   4
ENDBRANCH   2   3
BRANCH   2  11
HETATM   11  C   UNL     1     -11.246  10.393  68.835  1.00  0.00    -0.290 A  
HETATM   12  C   UNL     1     -11.417   9.565  71.508  1.00  0.00    -0.466 A  
HETATM   13  C   UNL     1     -10.426   9.362  69.315  1.00  0.00    -0.230 A  
HETATM   14  C   UNL     1     -10.511   8.949  70.647  1.00  0.00    -0.271 A  
HETATM   15  C   UNL     1     -12.151  11.012  69.709  1.00  0.00    -0.424 A  
HETATM   16  C   UNL     1     -12.233  10.597  71.042  1.00  0.00    -0.498 A  
ENDBRANCH   2  11
TORSDOF 4
ENDMDL
MODEL       82
REMARK 921   NORMALIZED FREE ENERGY PREDICTED BY IDOCK:   -4.53 KCAL/MOL
REMARK 922        TOTAL FREE ENERGY PREDICTED BY IDOCK:   -6.09 KCAL/MOL
REMARK 923 INTER-LIGAND FREE ENERGY PREDICTED BY IDOCK:   -5.64 KCAL/MOL
REMARK 924 INTRA-LIGAND FREE ENERGY PREDICTED BY IDOCK:   -0.45 KCAL/MOL
REMARK 927      BINDING AFFINITY PREDICTED BY RF-SCORE:    0.00 PKD
ROOT
HETATM    1  O   UNL     1      -8.664   9.662  70.007  1.00  0.00    -0.200 OA 
HETATM    2  C   UNL     1      -9.761  10.199  69.949  1.00  0.00    -0.150 C  
ENDROOT
BRANCH   2   3
HETATM    3  O   UNL     1     -10.087  11.262  69.179  1.00  0.00    -0.174 OA 
BRANCH   3   4
HETATM    4  C   UNL     1      -9.891  11.100  67.767  1.00  0.00    -0.171 C  
BRANCH   4   5
HETATM    5  C   UNL     1     -10.786  12.075  67.047  1.00  0.00    -0.280 A  
HETATM    6  C   UNL     1     -12.044  12.728  65.075  1.00  0.00    -0.491 A  
HETATM    7  C   UNL     1     -12.385  13.934  65.685  1.00  0.00    -0.511 A  
HETATM    8  C   UNL     1     -11.247  11.803  65.751  1.00  0.00    -0.337 A  
HETATM    9  C   UNL     1     -11.932  14.215  66.973  1.00  0.00    -0.471 A  
HETATM   10  C   UNL     1     -11.134  13.292  67.650  1.00  0.00    -0.292 A  
ENDBRANCH   4   5
ENDBRANCH   3   4
ENDBRANCH   2   3
BRANCH   2  11
HETATM   11  C   UNL     1     -10.928   9.738  70.752  1.00  0.00    -0.406 A  
HETATM   12  C   UNL     1     -13.192   8.974  72.218  1.00  0.00    -0.519 A  
HETATM   13  C   UNL     1     -12.172  10.335  70.502  1.00  0.00    -0.390 A  
HETATM   14  C   UNL     1     -13.300   9.955  71.233  1.00  0.00    -0.419 A  
HETATM   15  C   UNL     1     -10.828   8.749  71.740  1.00  0.00    -0.416 A  
HETATM   16  C   UNL     1     -11.960   8.370  72.469  1.00  0.00    -0.418 A  
ENDBRANCH   2  11
TORSDOF 4
ENDMDL
MODEL       83
REMARK 921   NORMALIZED FREE ENERGY PREDICTED BY IDOCK:   -4.53 KCAL/MOL
REMARK 922        TOTAL FREE ENERGY PREDICTED BY IDOCK:   -6.09 KCAL/MOL
REMARK 923 INTER-LIGAND FREE ENERGY PREDICTED BY IDOCK:   -5.59 KCAL/MOL
REMARK 924 INTRA-LIGAND FREE ENERGY PREDICTED BY IDOCK:   -0.51 KCAL/MOL
REMARK 927      BINDING AFFINITY PREDICTED BY RF-SCORE:    0.00 PKD
ROOT
HETATM    1  O   UNL     1     -11.056  16.843  64.358  1.00  0.00    -1.128 OA 
HETATM    2  C   UNL     1     -10.832  16.669  65.547  1.00  0.00    -0.163 C  
ENDROOT
BRANCH   2   3
HETATM    3  O   UNL     1     -10.824  15.479  66.190  1.00  0.00    -0.322 OA 
BRANCH   3   4
HETATM    4  C   UNL     1      -9.668  14.656  65.976  1.00  0.00    -0.312 C  
BRANCH   4   5
HETATM    5  C   UNL     1      -8.588  15.095  66.930  1.00  0.00    -0.289 A  
HETATM    6  C   UNL     1      -6.519  16.285  67.375  1.00  0.00    -0.213 A  
HETATM    7  C   UNL     1      -6.540  15.840  68.695  1.00  0.00    -0.116 A  
HETATM    8  C   UNL     1      -7.536  15.913  66.495  1.00  0.00    -0.020 A  
HETATM    9  C   UNL     1      -7.581  15.025  69.139  1.00  0.00    -0.176 A  
HETATM   10  C   UNL     1      -8.599  14.653  68.261  1.00  0.00    -0.167 A  
ENDBRANCH   4   5
ENDBRANCH   3   4
ENDBRANCH   2   3
BRANCH   2  11
HETATM   11  C   UNL     1     -10.531  17.787  66.483  1.00  0.00    -0.297 A  
HETATM   12  C   UNL     1      -9.934  19.966  68.143  1.00  0.00    -0.551 A  
HETATM   13  C   UNL     1     -10.352  19.068  65.940  1.00  0.00    -0.435 A  
HETATM   14  C   UNL     1     -10.053  20.153  66.767  1.00  0.00    -0.591 A  
HETATM   15  C   UNL     1     -10.415  17.608  67.868  1.00  0.00    -0.392 A  
HETATM   16  C   UNL     1     -10.117  18.697  68.694  1.00  0.00    -0.412 A  
ENDBRANCH   2  11
TORSDOF 4
ENDMDL
MODEL       84
REMARK 921   NORMALIZED FREE ENERGY PREDICTED BY IDOCK:   -4.52 KCAL/MOL
REMARK 922        TOTAL FREE ENERGY PREDICTED BY IDOCK:   -6.09 KCAL/MOL
REMARK 923 INTER-LIGAND FREE ENERGY PREDICTED BY IDOCK:   -5.54 KCAL/MOL
REMARK 924 INTRA-LIGAND FREE ENERGY PREDICTED BY IDOCK:   -0.56 KCAL/MOL
REMARK 927      BINDING AFFINITY PREDICTED BY RF-SCORE:    0.00 PKD
ROOT
HETATM    1  O   UNL     1     -10.560   8.236  68.535  1.00  0.00    -0.187 OA 
HETATM    2  C   UNL     1     -10.517   8.694  69.667  1.00  0.00    -0.220 C  
ENDROOT
BRANCH   2   3
HETATM    3  O   UNL     1     -10.453  10.006  69.993  1.00  0.00    -0.256 OA 
BRANCH   3   4
HETATM    4  C   UNL     1     -11.255  10.891  69.197  1.00  0.00    -0.256 C  
BRANCH   4   5
HETATM    5  C   UNL     1     -11.989  11.828  70.121  1.00  0.00    -0.421 A  
HETATM    6  C   UNL     1     -12.620  14.077  70.784  1.00  0.00    -0.431 A  
HETATM    7  C   UNL     1     -13.290  13.568  71.894  1.00  0.00    -0.529 A  
HETATM    8  C   UNL     1     -11.970  13.212  69.902  1.00  0.00    -0.387 A  
HETATM    9  C   UNL     1     -13.315  12.193  72.123  1.00  0.00    -0.438 A  
HETATM   10  C   UNL     1     -12.666  11.327  71.243  1.00  0.00    -0.510 A  
ENDBRANCH   4   5
ENDBRANCH   3   4
ENDBRANCH   2   3
BRANCH   2  11
HETATM   11  C   UNL     1     -10.524   7.838  70.885  1.00  0.00    -0.214 A  
HETATM   12  C   UNL     1     -10.567   6.124  73.104  1.00  0.00    -0.269 A  
HETATM   13  C   UNL     1     -10.544   6.447  70.710  1.00  0.00    -0.288 A  
HETATM   14  C   UNL     1     -10.566   5.593  71.815  1.00  0.00    -0.296 A  
HETATM   15  C   UNL     1     -10.520   8.364  72.185  1.00  0.00    -0.396 A  
HETATM   16  C   UNL     1     -10.540   7.507  73.289  1.00  0.00    -0.438 A  
ENDBRANCH   2  11
TORSDOF 4
ENDMDL
MODEL       85
REMARK 921   NORMALIZED FREE ENERGY PREDICTED BY IDOCK:   -4.50 KCAL/MOL
REMARK 922        TOTAL FREE ENERGY PREDICTED BY IDOCK:   -6.06 KCAL/MOL
REMARK 923 INTER-LIGAND FREE ENERGY PREDICTED BY IDOCK:   -5.51 KCAL/MOL
REMARK 924 INTRA-LIGAND FREE ENERGY PREDICTED BY IDOCK:   -0.55 KCAL/MOL
REMARK 927      BINDING AFFINITY PREDICTED BY RF-SCORE:    0.00 PKD
ROOT
HETATM    1  O   UNL     1     -13.319  13.851  65.322  1.00  0.00    -0.732 OA 
HETATM    2  C   UNL     1     -12.097  13.834  65.360  1.00  0.00    -0.407 C  
ENDROOT
BRANCH   2   3
HETATM    3  O   UNL     1     -11.298  14.863  65.727  1.00  0.00    -0.341 OA 
BRANCH   3   4
HETATM    4  C   UNL     1     -11.299  15.194  67.123  1.00  0.00    -0.290 C  
BRANCH   4   5
HETATM    5  C   UNL     1      -9.872  15.371  67.571  1.00  0.00    -0.217 A  
HETATM    6  C   UNL     1      -8.214  15.505  69.341  1.00  0.00    -0.247 A  
HETATM    7  C   UNL     1      -7.224  15.784  68.401  1.00  0.00    -0.119 A  
HETATM    8  C   UNL     1      -9.533  15.301  68.930  1.00  0.00    -0.218 A  
HETATM    9  C   UNL     1      -7.550  15.856  67.047  1.00  0.00    -0.264 A  
HETATM   10  C   UNL     1      -8.867  15.654  66.634  1.00  0.00    -0.327 A  
ENDBRANCH   4   5
ENDBRANCH   3   4
ENDBRANCH   2   3
BRANCH   2  11
HETATM   11  C   UNL     1     -11.295  12.636  64.990  1.00  0.00    -0.345 A  
HETATM   12  C   UNL     1      -9.769  10.354  64.421  1.00  0.00    -0.396 A  
HETATM   13  C   UNL     1     -11.001  11.706  65.998  1.00  0.00    -0.338 A  
HETATM   14  C   UNL     1     -10.240  10.570  65.714  1.00  0.00    -0.310 A  
HETATM   15  C   UNL     1     -10.822  12.410  63.690  1.00  0.00    -0.509 A  
HETATM   16  C   UNL     1     -10.061  11.270  63.409  1.00  0.00    -0.445 A  
ENDBRANCH   2  11
TORSDOF 4
ENDMDL
MODEL       86
REMARK 921   NORMALIZED FREE ENERGY PREDICTED BY IDOCK:   -4.49 KCAL/MOL
REMARK 922        TOTAL FREE ENERGY PREDICTED BY IDOCK:   -6.05 KCAL/MOL
REMARK 923 INTER-LIGAND FREE ENERGY PREDICTED BY IDOCK:   -6.05 KCAL/MOL
REMARK 924 INTRA-LIGAND FREE ENERGY PREDICTED BY IDOCK:    0.01 KCAL/MOL
REMARK 927      BINDING AFFINITY PREDICTED BY RF-SCORE:    0.00 PKD
ROOT
HETATM    1  O   UNL     1     -12.525  14.240  68.388  1.00  0.00    -0.106 OA 
HETATM    2  C   UNL     1     -11.823  14.782  69.230  1.00  0.00    -0.318 C  
ENDROOT
BRANCH   2   3
HETATM    3  O   UNL     1     -10.629  15.378  69.008  1.00  0.00    -0.227 OA 
BRANCH   3   4
HETATM    4  C   UNL     1      -9.574  14.521  68.549  1.00  0.00    -0.220 C  
BRANCH   4   5
HETATM    5  C   UNL     1      -9.852  14.150  67.116  1.00  0.00    -0.253 A  
HETATM    6  C   UNL     1     -10.415  14.784  64.840  1.00  0.00    -0.398 A  
HETATM    7  C   UNL     1     -10.450  13.441  64.468  1.00  0.00    -0.431 A  
HETATM    8  C   UNL     1     -10.120  15.138  66.158  1.00  0.00    -0.314 A  
HETATM    9  C   UNL     1     -10.186  12.450  65.413  1.00  0.00    -0.302 A  
HETATM   10  C   UNL     1      -9.891  12.801  66.730  1.00  0.00    -0.242 A  
ENDBRANCH   4   5
ENDBRANCH   3   4
ENDBRANCH   2   3
BRANCH   2  11
HETATM   11  C   UNL     1     -12.202  14.856  70.669  1.00  0.00    -0.379 A  
HETATM   12  C   UNL     1     -12.830  15.096  73.390  1.00  0.00    -0.661 A  
HETATM   13  C   UNL     1     -11.789  15.981  71.398  1.00  0.00    -0.531 A  
HETATM   14  C   UNL     1     -12.101  16.099  72.755  1.00  0.00    -0.653 A  
HETATM   15  C   UNL     1     -12.939  13.854  71.314  1.00  0.00    -0.414 A  
HETATM   16  C   UNL     1     -13.251  13.977  72.671  1.00  0.00    -0.606 A  
ENDBRANCH   2  11
TORSDOF 4
ENDMDL
MODEL       87
REMARK 921   NORMALIZED FREE ENERGY PREDICTED BY IDOCK:   -4.46 KCAL/MOL
REMARK 922        TOTAL FREE ENERGY PREDICTED BY IDOCK:   -6.01 KCAL/MOL
REMARK 923 INTER-LIGAND FREE ENERGY PREDICTED BY IDOCK:   -5.78 KCAL/MOL
REMARK 924 INTRA-LIGAND FREE ENERGY PREDICTED BY IDOCK:   -0.23 KCAL/MOL
REMARK 927      BINDING AFFINITY PREDICTED BY RF-SCORE:    0.00 PKD
ROOT
HETATM    1  O   UNL     1      -8.682  11.784  66.484  1.00  0.00    -0.189 OA 
HETATM    2  C   UNL     1      -9.810  12.177  66.742  1.00  0.00    -0.206 C  
ENDROOT
BRANCH   2   3
HETATM    3  O   UNL     1     -10.534  11.854  67.839  1.00  0.00    -0.195 OA 
BRANCH   3   4
HETATM    4  C   UNL     1     -10.998  12.955  68.633  1.00  0.00    -0.261 C  
BRANCH   4   5
HETATM    5  C   UNL     1     -11.815  12.407  69.775  1.00  0.00    -0.387 A  
HETATM    6  C   UNL     1     -13.092  12.747  71.812  1.00  0.00    -0.455 A  
HETATM    7  C   UNL     1     -13.264  11.370  71.940  1.00  0.00    -0.485 A  
HETATM    8  C   UNL     1     -12.369  13.264  70.736  1.00  0.00    -0.425 A  
HETATM    9  C   UNL     1     -12.716  10.508  70.991  1.00  0.00    -0.504 A  
HETATM   10  C   UNL     1     -11.993  11.023  69.915  1.00  0.00    -0.427 A  
ENDBRANCH   4   5
ENDBRANCH   3   4
ENDBRANCH   2   3
BRANCH   2  11
HETATM   11  C   UNL     1     -10.568  13.097  65.850  1.00  0.00    -0.290 A  
HETATM   12  C   UNL     1     -11.930  14.927  64.220  1.00  0.00    -0.355 A  
HETATM   13  C   UNL     1     -10.118  14.420  65.735  1.00  0.00    -0.361 A  
HETATM   14  C   UNL     1     -10.797  15.332  64.924  1.00  0.00    -0.444 A  
HETATM   15  C   UNL     1     -11.705  12.696  65.135  1.00  0.00    -0.407 A  
HETATM   16  C   UNL     1     -12.382  13.611  64.322  1.00  0.00    -0.388 A  
ENDBRANCH   2  11
TORSDOF 4
ENDMDL
MODEL       88
REMARK 921   NORMALIZED FREE ENERGY PREDICTED BY IDOCK:   -4.42 KCAL/MOL
REMARK 922        TOTAL FREE ENERGY PREDICTED BY IDOCK:   -5.97 KCAL/MOL
REMARK 923 INTER-LIGAND FREE ENERGY PREDICTED BY IDOCK:   -5.19 KCAL/MOL
REMARK 924 INTRA-LIGAND FREE ENERGY PREDICTED BY IDOCK:   -0.77 KCAL/MOL
REMARK 927      BINDING AFFINITY PREDICTED BY RF-SCORE:    0.00 PKD
ROOT
HETATM    1  O   UNL     1     -13.137  11.384  71.922  1.00  0.00    -0.492 OA 
HETATM    2  C   UNL     1     -12.871  10.481  71.141  1.00  0.00    -0.416 C  
ENDROOT
BRANCH   2   3
HETATM    3  O   UNL     1     -13.429   9.249  71.129  1.00  0.00    -0.289 OA 
BRANCH   3   4
HETATM    4  C   UNL     1     -13.129   8.412  72.255  1.00  0.00    -0.284 C  
BRANCH   4   5
HETATM    5  C   UNL     1     -12.043   7.448  71.855  1.00  0.00    -0.341 A  
HETATM    6  C   UNL     1      -9.948   6.312  72.325  1.00  0.00    -0.182 A  
HETATM    7  C   UNL     1      -9.984   5.714  71.067  1.00  0.00    -0.248 A  
HETATM    8  C   UNL     1     -10.971   7.177  72.718  1.00  0.00    -0.346 A  
HETATM    9  C   UNL     1     -11.045   5.976  70.201  1.00  0.00    -0.432 A  
HETATM   10  C   UNL     1     -12.068   6.840  70.591  1.00  0.00    -0.371 A  
ENDBRANCH   4   5
ENDBRANCH   3   4
ENDBRANCH   2   3
BRANCH   2  11
HETATM   11  C   UNL     1     -11.856  10.622  70.060  1.00  0.00    -0.403 A  
HETATM   12  C   UNL     1      -9.855  10.847  68.109  1.00  0.00    -0.187 A  
HETATM   13  C   UNL     1     -10.586  10.070  70.277  1.00  0.00    -0.354 A  
HETATM   14  C   UNL     1      -9.588  10.183  69.306  1.00  0.00    -0.239 A  
HETATM   15  C   UNL     1     -12.119  11.284  68.853  1.00  0.00    -0.292 A  
HETATM   16  C   UNL     1     -11.118  11.394  67.881  1.00  0.00    -0.320 A  
ENDBRANCH   2  11
TORSDOF 4
ENDMDL
MODEL       89
REMARK 921   NORMALIZED FREE ENERGY PREDICTED BY IDOCK:   -4.42 KCAL/MOL
REMARK 922        TOTAL FREE ENERGY PREDICTED BY IDOCK:   -5.96 KCAL/MOL
REMARK 923 INTER-LIGAND FREE ENERGY PREDICTED BY IDOCK:   -5.40 KCAL/MOL
REMARK 924 INTRA-LIGAND FREE ENERGY PREDICTED BY IDOCK:   -0.56 KCAL/MOL
REMARK 927      BINDING AFFINITY PREDICTED BY RF-SCORE:    0.00 PKD
ROOT
HETATM    1  O   UNL     1      -8.460   8.989  68.488  1.00  0.00    -0.126 OA 
HETATM    2  C   UNL     1      -9.671   9.082  68.353  1.00  0.00    -0.156 C  
ENDROOT
BRANCH   2   3
HETATM    3  O   UNL     1     -10.598   8.247  68.877  1.00  0.00    -0.211 OA 
BRANCH   3   4
HETATM    4  C   UNL     1     -10.448   7.936  70.270  1.00  0.00    -0.225 C  
BRANCH   4   5
HETATM    5  C   UNL     1     -11.764   8.192  70.958  1.00  0.00    -0.295 A  
HETATM    6  C   UNL     1     -13.999   7.472  71.576  1.00  0.00    -0.522 A  
HETATM    7  C   UNL     1     -14.239   8.709  72.171  1.00  0.00    -0.520 A  
HETATM    8  C   UNL     1     -12.768   7.214  70.970  1.00  0.00    -0.303 A  
HETATM    9  C   UNL     1     -13.247   9.689  72.165  1.00  0.00    -0.535 A  
HETATM   10  C   UNL     1     -12.017   9.434  71.559  1.00  0.00    -0.456 A  
ENDBRANCH   4   5
ENDBRANCH   3   4
ENDBRANCH   2   3
BRANCH   2  11
HETATM   11  C   UNL     1     -10.314  10.167  67.560  1.00  0.00    -0.279 A  
HETATM   12  C   UNL     1     -11.443  12.180  65.968  1.00  0.00    -0.427 A  
HETATM   13  C   UNL     1     -10.034  10.230  66.187  1.00  0.00    -0.300 A  
HETATM   14  C   UNL     1     -10.595  11.234  65.394  1.00  0.00    -0.312 A  
HETATM   15  C   UNL     1     -11.171  11.119  68.129  1.00  0.00    -0.356 A  
HETATM   16  C   UNL     1     -11.734  12.121  67.332  1.00  0.00    -0.374 A  
ENDBRANCH   2  11
TORSDOF 4
ENDMDL
MODEL       90
REMARK 921   NORMALIZED FREE ENERGY PREDICTED BY IDOCK:   -4.41 KCAL/MOL
REMARK 922        TOTAL FREE ENERGY PREDICTED BY IDOCK:   -5.95 KCAL/MOL
REMARK 923 INTER-LIGAND FREE ENERGY PREDICTED BY IDOCK:   -5.42 KCAL/MOL
REMARK 924 INTRA-LIGAND FREE ENERGY PREDICTED BY IDOCK:   -0.53 KCAL/MOL
REMARK 927      BINDING AFFINITY PREDICTED BY RF-SCORE:    0.00 PKD
ROOT
HETATM    1  O   UNL     1      -9.311   8.412  72.237  1.00  0.00    -0.234 OA 
HETATM    2  C   UNL     1     -10.134   8.777  71.410  1.00  0.00    -0.284 C  
ENDROOT
BRANCH   2   3
HETATM    3  O   UNL     1      -9.880   9.525  70.311  1.00  0.00    -0.228 OA 
BRANCH   3   4
HETATM    4  C   UNL     1     -10.150   8.899  69.048  1.00  0.00    -0.197 C  
BRANCH   4   5
HETATM    5  C   UNL     1     -10.553   9.967  68.065  1.00  0.00    -0.288 A  
HETATM    6  C   UNL     1     -10.472  10.923  65.834  1.00  0.00    -0.285 A  
HETATM    7  C   UNL     1     -11.241  12.003  66.263  1.00  0.00    -0.394 A  
HETATM    8  C   UNL     1     -10.127   9.910  66.730  1.00  0.00    -0.292 A  
HETATM    9  C   UNL     1     -11.669  12.071  67.588  1.00  0.00    -0.365 A  
HETATM   10  C   UNL     1     -11.325  11.060  68.486  1.00  0.00    -0.355 A  
ENDBRANCH   4   5
ENDBRANCH   3   4
ENDBRANCH   2   3
BRANCH   2  11
HETATM   11  C   UNL     1     -11.581   8.437  71.507  1.00  0.00    -0.338 A  
HETATM   12  C   UNL     1     -14.325   7.914  71.742  1.00  0.00    -0.589 A  
HETATM   13  C   UNL     1     -12.477   9.468  71.821  1.00  0.00    -0.484 A  
HETATM   14  C   UNL     1     -13.845   9.208  71.939  1.00  0.00    -0.455 A  
HETATM   15  C   UNL     1     -12.072   7.140  71.305  1.00  0.00    -0.386 A  
HETATM   16  C   UNL     1     -13.442   6.882  71.423  1.00  0.00    -0.249 A  
ENDBRANCH   2  11
TORSDOF 4
ENDMDL
MODEL       91
REMARK 921   NORMALIZED FREE ENERGY PREDICTED BY IDOCK:   -4.40 KCAL/MOL
REMARK 922        TOTAL FREE ENERGY PREDICTED BY IDOCK:   -5.94 KCAL/MOL
REMARK 923 INTER-LIGAND FREE ENERGY PREDICTED BY IDOCK:   -5.48 KCAL/MOL
REMARK 924 INTRA-LIGAND FREE ENERGY PREDICTED BY IDOCK:   -0.46 KCAL/MOL
REMARK 927      BINDING AFFINITY PREDICTED BY RF-SCORE:    0.00 PKD
ROOT
HETATM    1  O   UNL     1     -10.949  12.011  65.655  1.00  0.00    -0.279 OA 
HETATM    2  C   UNL     1     -11.160  11.396  66.690  1.00  0.00    -0.271 C  
ENDROOT
BRANCH   2   3
HETATM    3  O   UNL     1     -11.911  11.824  67.731  1.00  0.00    -0.586 OA 
BRANCH   3   4
HETATM    4  C   UNL     1     -11.434  12.993  68.412  1.00  0.00    -0.310 C  
BRANCH   4   5
HETATM    5  C   UNL     1     -12.135  13.088  69.742  1.00  0.00    -0.325 A  
HETATM    6  C   UNL     1     -13.259  14.401  71.448  1.00  0.00    -0.418 A  
HETATM    7  C   UNL     1     -13.367  13.270  72.255  1.00  0.00    -0.630 A  
HETATM    8  C   UNL     1     -12.644  14.312  70.198  1.00  0.00    -0.338 A  
HETATM    9  C   UNL     1     -12.864  12.048  71.812  1.00  0.00    -0.377 A  
HETATM   10  C   UNL     1     -12.249  11.957  70.563  1.00  0.00    -0.426 A  
ENDBRANCH   4   5
ENDBRANCH   3   4
ENDBRANCH   2   3
BRANCH   2  11
HETATM   11  C   UNL     1     -10.594  10.044  66.955  1.00  0.00    -0.261 A  
HETATM   12  C   UNL     1      -9.551   7.518  67.581  1.00  0.00    -0.171 A  
HETATM   13  C   UNL     1     -10.782   9.493  68.230  1.00  0.00    -0.241 A  
HETATM   14  C   UNL     1     -10.262   8.235  68.543  1.00  0.00    -0.234 A  
HETATM   15  C   UNL     1      -9.883   9.316  65.991  1.00  0.00    -0.363 A  
HETATM   16  C   UNL     1      -9.365   8.056  66.307  1.00  0.00    -0.246 A  
ENDBRANCH   2  11
TORSDOF 4
ENDMDL
MODEL       92
REMARK 921   NORMALIZED FREE ENERGY PREDICTED BY IDOCK:   -4.39 KCAL/MOL
REMARK 922        TOTAL FREE ENERGY PREDICTED BY IDOCK:   -5.93 KCAL/MOL
REMARK 923 INTER-LIGAND FREE ENERGY PREDICTED BY IDOCK:   -5.83 KCAL/MOL
REMARK 924 INTRA-LIGAND FREE ENERGY PREDICTED BY IDOCK:   -0.10 KCAL/MOL
REMARK 927      BINDING AFFINITY PREDICTED BY RF-SCORE:    0.00 PKD
ROOT
HETATM    1  O   UNL     1     -11.957  10.945  68.813  1.00  0.00    -0.441 OA 
HETATM    2  C   UNL     1     -11.922  11.871  69.610  1.00  0.00    -0.298 C  
ENDROOT
BRANCH   2   3
HETATM    3  O   UNL     1     -12.044  11.769  70.954  1.00  0.00    -0.330 OA 
BRANCH   3   4
HETATM    4  C   UNL     1     -13.276  11.212  71.433  1.00  0.00    -0.203 C  
BRANCH   4   5
HETATM    5  C   UNL     1     -13.095   9.726  71.598  1.00  0.00    -0.516 A  
HETATM    6  C   UNL     1     -11.651   7.784  71.805  1.00  0.00    -0.312 A  
HETATM    7  C   UNL     1     -12.767   6.949  71.822  1.00  0.00    -0.369 A  
HETATM    8  C   UNL     1     -11.813   9.166  71.691  1.00  0.00    -0.443 A  
HETATM    9  C   UNL     1     -14.046   7.495  71.729  1.00  0.00    -0.509 A  
HETATM   10  C   UNL     1     -14.210   8.876  71.615  1.00  0.00    -0.355 A  
ENDBRANCH   4   5
ENDBRANCH   3   4
ENDBRANCH   2   3
BRANCH   2  11
HETATM   11  C   UNL     1     -11.739  13.289  69.193  1.00  0.00    -0.379 A  
HETATM   12  C   UNL     1     -11.308  15.918  68.320  1.00  0.00    -0.342 A  
HETATM   13  C   UNL     1     -11.036  13.538  68.006  1.00  0.00    -0.283 A  
HETATM   14  C   UNL     1     -10.820  14.848  67.571  1.00  0.00    -0.292 A  
HETATM   15  C   UNL     1     -12.231  14.370  69.938  1.00  0.00    -0.394 A  
HETATM   16  C   UNL     1     -12.014  15.680  69.500  1.00  0.00    -0.363 A  
ENDBRANCH   2  11
TORSDOF 4
ENDMDL
MODEL       93
REMARK 921   NORMALIZED FREE ENERGY PREDICTED BY IDOCK:   -4.36 KCAL/MOL
REMARK 922        TOTAL FREE ENERGY PREDICTED BY IDOCK:   -5.89 KCAL/MOL
REMARK 923 INTER-LIGAND FREE ENERGY PREDICTED BY IDOCK:   -5.20 KCAL/MOL
REMARK 924 INTRA-LIGAND FREE ENERGY PREDICTED BY IDOCK:   -0.69 KCAL/MOL
REMARK 927      BINDING AFFINITY PREDICTED BY RF-SCORE:    0.00 PKD
ROOT
HETATM    1  O   UNL     1      -9.386  11.108  67.618  1.00  0.00    -0.162 OA 
HETATM    2  C   UNL     1      -9.771  12.185  67.186  1.00  0.00    -0.199 C  
ENDROOT
BRANCH   2   3
HETATM    3  O   UNL     1      -9.471  13.401  67.698  1.00  0.00    -0.203 OA 
BRANCH   3   4
HETATM    4  C   UNL     1      -8.456  14.143  67.005  1.00  0.00    -0.156 C  
BRANCH   4   5
HETATM    5  C   UNL     1      -8.919  15.570  66.872  1.00  0.00    -0.272 A  
HETATM    6  C   UNL     1      -8.465  17.897  66.344  1.00  0.00    -0.263 A  
HETATM    7  C   UNL     1      -9.767  18.239  66.704  1.00  0.00    -0.339 A  
HETATM    8  C   UNL     1      -8.041  16.570  66.429  1.00  0.00    -0.362 A  
HETATM    9  C   UNL     1     -10.648  17.253  67.147  1.00  0.00    -0.256 A  
HETATM   10  C   UNL     1     -10.227  15.926  67.233  1.00  0.00    -0.278 A  
ENDBRANCH   4   5
ENDBRANCH   3   4
ENDBRANCH   2   3
BRANCH   2  11
HETATM   11  C   UNL     1     -10.659  12.308  65.997  1.00  0.00    -0.287 A  
HETATM   12  C   UNL     1     -12.231  12.498  63.683  1.00  0.00    -0.642 A  
HETATM   13  C   UNL     1     -10.220  11.745  64.790  1.00  0.00    -0.324 A  
HETATM   14  C   UNL     1     -11.003  11.841  63.637  1.00  0.00    -0.513 A  
HETATM   15  C   UNL     1     -11.897  12.963  66.037  1.00  0.00    -0.485 A  
HETATM   16  C   UNL     1     -12.679  13.056  64.881  1.00  0.00    -0.456 A  
ENDBRANCH   2  11
TORSDOF 4
ENDMDL
MODEL       94
REMARK 921   NORMALIZED FREE ENERGY PREDICTED BY IDOCK:   -4.31 KCAL/MOL
REMARK 922        TOTAL FREE ENERGY PREDICTED BY IDOCK:   -5.83 KCAL/MOL
REMARK 923 INTER-LIGAND FREE ENERGY PREDICTED BY IDOCK:   -5.08 KCAL/MOL
REMARK 924 INTRA-LIGAND FREE ENERGY PREDICTED BY IDOCK:   -0.75 KCAL/MOL
REMARK 927      BINDING AFFINITY PREDICTED BY RF-SCORE:    0.00 PKD
ROOT
HETATM    1  O   UNL     1     -11.933  13.841  68.296  1.00  0.00    -0.357 OA 
HETATM    2  C   UNL     1     -11.970  12.870  67.555  1.00  0.00    -0.296 C  
ENDROOT
BRANCH   2   3
HETATM    3  O   UNL     1     -12.007  11.574  67.942  1.00  0.00    -0.618 OA 
BRANCH   3   4
HETATM    4  C   UNL     1     -10.845  11.090  68.631  1.00  0.00    -0.215 C  
BRANCH   4   5
HETATM    5  C   UNL     1      -9.918  10.467  67.621  1.00  0.00    -0.202 A  
HETATM    6  C   UNL     1      -9.294   8.606  66.190  1.00  0.00    -0.291 A  
HETATM    7  C   UNL     1      -8.140   9.284  65.802  1.00  0.00    -0.115 A  
HETATM    8  C   UNL     1     -10.179   9.193  67.097  1.00  0.00    -0.329 A  
HETATM    9  C   UNL     1      -7.870  10.551  66.317  1.00  0.00    -0.141 A  
HETATM   10  C   UNL     1      -8.752  11.139  67.223  1.00  0.00    -0.139 A  
ENDBRANCH   4   5
ENDBRANCH   3   4
ENDBRANCH   2   3
BRANCH   2  11
HETATM   11  C   UNL     1     -11.973  12.987  66.070  1.00  0.00    -0.498 A  
HETATM   12  C   UNL     1     -12.020  13.331  63.288  1.00  0.00    -0.376 A  
HETATM   13  C   UNL     1     -12.097  14.268  65.513  1.00  0.00    -0.397 A  
HETATM   14  C   UNL     1     -12.122  14.439  64.127  1.00  0.00    -0.405 A  
HETATM   15  C   UNL     1     -11.866  11.878  65.220  1.00  0.00    -0.160 A  
HETATM   16  C   UNL     1     -11.889  12.053  63.832  1.00  0.00    -0.543 A  
ENDBRANCH   2  11
TORSDOF 4
ENDMDL
MODEL       95
REMARK 921   NORMALIZED FREE ENERGY PREDICTED BY IDOCK:   -4.28 KCAL/MOL
REMARK 922        TOTAL FREE ENERGY PREDICTED BY IDOCK:   -5.78 KCAL/MOL
REMARK 923 INTER-LIGAND FREE ENERGY PREDICTED BY IDOCK:   -5.06 KCAL/MOL
REMARK 924 INTRA-LIGAND FREE ENERGY PREDICTED BY IDOCK:   -0.72 KCAL/MOL
REMARK 927      BINDING AFFINITY PREDICTED BY RF-SCORE:    0.00 PKD
ROOT
HETATM    1  O   UNL     1     -10.792  14.881  69.324  1.00  0.00    -0.248 OA 
HETATM    2  C   UNL     1     -11.358  13.839  69.028  1.00  0.00    -0.289 C  
ENDROOT
BRANCH   2   3
HETATM    3  O   UNL     1     -11.478  13.323  67.783  1.00  0.00    -0.281 OA 
BRANCH   3   4
HETATM    4  C   UNL     1     -10.282  13.313  66.989  1.00  0.00    -0.244 C  
BRANCH   4   5
HETATM    5  C   UNL     1      -9.768  11.899  66.922  1.00  0.00    -0.212 A  
HETATM    6  C   UNL     1     -10.151   9.525  66.583  1.00  0.00    -0.321 A  
HETATM    7  C   UNL     1      -8.816   9.261  66.880  1.00  0.00    -0.141 A  
HETATM    8  C   UNL     1     -10.627  10.837  66.606  1.00  0.00    -0.291 A  
HETATM    9  C   UNL     1      -7.953  10.308  67.197  1.00  0.00    -0.114 A  
HETATM   10  C   UNL     1      -8.425  11.621  67.220  1.00  0.00    -0.156 A  
ENDBRANCH   4   5
ENDBRANCH   3   4
ENDBRANCH   2   3
BRANCH   2  11
HETATM   11  C   UNL     1     -12.021  12.966  70.037  1.00  0.00    -0.380 A  
HETATM   12  C   UNL     1     -13.281  11.428  72.014  1.00  0.00    -0.432 A  
HETATM   13  C   UNL     1     -12.673  13.585  71.113  1.00  0.00    -0.425 A  
HETATM   14  C   UNL     1     -13.300  12.819  72.098  1.00  0.00    -0.593 A  
HETATM   15  C   UNL     1     -12.010  11.567  69.956  1.00  0.00    -0.435 A  
HETATM   16  C   UNL     1     -12.640  10.802  70.943  1.00  0.00    -0.498 A  
ENDBRANCH   2  11
TORSDOF 4
ENDMDL
MODEL       96
REMARK 921   NORMALIZED FREE ENERGY PREDICTED BY IDOCK:   -4.26 KCAL/MOL
REMARK 922        TOTAL FREE ENERGY PREDICTED BY IDOCK:   -5.77 KCAL/MOL
REMARK 923 INTER-LIGAND FREE ENERGY PREDICTED BY IDOCK:   -5.28 KCAL/MOL
REMARK 924 INTRA-LIGAND FREE ENERGY PREDICTED BY IDOCK:   -0.48 KCAL/MOL
REMARK 927      BINDING AFFINITY PREDICTED BY RF-SCORE:    0.00 PKD
ROOT
HETATM    1  O   UNL     1     -11.285   6.724  69.510  1.00  0.00    -0.285 OA 
HETATM    2  C   UNL     1     -10.858   7.321  70.488  1.00  0.00    -0.243 C  
ENDROOT
BRANCH   2   3
HETATM    3  O   UNL     1     -10.456   8.612  70.519  1.00  0.00    -0.195 OA 
BRANCH   3   4
HETATM    4  C   UNL     1     -11.035   9.475  69.530  1.00  0.00    -0.195 C  
BRANCH   4   5
HETATM    5  C   UNL     1     -11.743  10.601  70.237  1.00  0.00    -0.433 A  
HETATM    6  C   UNL     1     -13.283  11.388  71.942  1.00  0.00    -0.485 A  
HETATM    7  C   UNL     1     -13.121  12.697  71.493  1.00  0.00    -0.373 A  
HETATM    8  C   UNL     1     -12.599  10.343  71.317  1.00  0.00    -0.525 A  
HETATM    9  C   UNL     1     -12.273  12.964  70.419  1.00  0.00    -0.381 A  
HETATM   10  C   UNL     1     -11.589  11.923  69.792  1.00  0.00    -0.359 A  
ENDBRANCH   4   5
ENDBRANCH   3   4
ENDBRANCH   2   3
BRANCH   2  11
HETATM   11  C   UNL     1     -10.713   6.681  71.825  1.00  0.00    -0.257 A  
HETATM   12  C   UNL     1     -10.366   5.575  74.378  1.00  0.00    -0.282 A  
HETATM   13  C   UNL     1     -10.153   7.442  72.860  1.00  0.00    -0.293 A  
HETATM   14  C   UNL     1      -9.978   6.891  74.131  1.00  0.00    -0.351 A  
HETATM   15  C   UNL     1     -11.105   5.359  72.081  1.00  0.00    -0.234 A  
HETATM   16  C   UNL     1     -10.931   4.811  73.356  1.00  0.00    -0.396 A  
ENDBRANCH   2  11
TORSDOF 4
ENDMDL
MODEL       97
REMARK 921   NORMALIZED FREE ENERGY PREDICTED BY IDOCK:   -4.24 KCAL/MOL
REMARK 922        TOTAL FREE ENERGY PREDICTED BY IDOCK:   -5.75 KCAL/MOL
REMARK 923 INTER-LIGAND FREE ENERGY PREDICTED BY IDOCK:   -5.39 KCAL/MOL
REMARK 924 INTRA-LIGAND FREE ENERGY PREDICTED BY IDOCK:   -0.35 KCAL/MOL
REMARK 927      BINDING AFFINITY PREDICTED BY RF-SCORE:    0.00 PKD
ROOT
HETATM    1  O   UNL     1      -8.103  14.556  68.835  1.00  0.00    -0.148 OA 
HETATM    2  C   UNL     1      -8.816  15.116  68.016  1.00  0.00    -0.170 C  
ENDROOT
BRANCH   2   3
HETATM    3  O   UNL     1      -9.417  14.532  66.953  1.00  0.00    -0.231 OA 
BRANCH   3   4
HETATM    4  C   UNL     1     -10.123  13.312  67.222  1.00  0.00    -0.234 C  
BRANCH   4   5
HETATM    5  C   UNL     1     -10.798  12.864  65.952  1.00  0.00    -0.294 A  
HETATM    6  C   UNL     1     -12.784  12.679  64.566  1.00  0.00    -0.439 A  
HETATM    7  C   UNL     1     -12.063  11.952  63.620  1.00  0.00    -0.580 A  
HETATM    8  C   UNL     1     -12.156  13.132  65.728  1.00  0.00    -0.502 A  
HETATM    9  C   UNL     1     -10.713  11.679  63.833  1.00  0.00    -0.459 A  
HETATM   10  C   UNL     1     -10.083  12.130  64.993  1.00  0.00    -0.289 A  
ENDBRANCH   4   5
ENDBRANCH   3   4
ENDBRANCH   2   3
BRANCH   2  11
HETATM   11  C   UNL     1      -9.127  16.571  68.077  1.00  0.00    -0.209 A  
HETATM   12  C   UNL     1      -9.817  19.288  68.115  1.00  0.00    -0.464 A  
HETATM   13  C   UNL     1     -10.376  16.995  67.602  1.00  0.00    -0.332 A  
HETATM   14  C   UNL     1     -10.719  18.349  67.619  1.00  0.00    -0.390 A  
HETATM   15  C   UNL     1      -8.227  17.520  68.579  1.00  0.00    -0.278 A  
HETATM   16  C   UNL     1      -8.574  18.875  68.597  1.00  0.00    -0.376 A  
ENDBRANCH   2  11
TORSDOF 4
ENDMDL
MODEL       98
REMARK 921   NORMALIZED FREE ENERGY PREDICTED BY IDOCK:   -4.24 KCAL/MOL
REMARK 922        TOTAL FREE ENERGY PREDICTED BY IDOCK:   -5.74 KCAL/MOL
REMARK 923 INTER-LIGAND FREE ENERGY PREDICTED BY IDOCK:   -4.91 KCAL/MOL
REMARK 924 INTRA-LIGAND FREE ENERGY PREDICTED BY IDOCK:   -0.83 KCAL/MOL
REMARK 927      BINDING AFFINITY PREDICTED BY RF-SCORE:    0.00 PKD
ROOT
HETATM    1  O   UNL     1      -8.517   5.018  70.579  1.00  0.00    -0.101 OA 
HETATM    2  C   UNL     1      -9.602   5.553  70.400  1.00  0.00    -0.172 C  
ENDROOT
BRANCH   2   3
HETATM    3  O   UNL     1     -10.690   5.433  71.196  1.00  0.00    -0.231 OA 
BRANCH   3   4
HETATM    4  C   UNL     1     -10.731   6.299  72.339  1.00  0.00    -0.225 C  
BRANCH   4   5
HETATM    5  C   UNL     1     -11.712   7.407  72.061  1.00  0.00    -0.325 A  
HETATM    6  C   UNL     1     -13.961   8.154  71.531  1.00  0.00    -0.417 A  
HETATM    7  C   UNL     1     -13.514   9.472  71.464  1.00  0.00    -0.444 A  
HETATM    8  C   UNL     1     -13.065   7.125  71.826  1.00  0.00    -0.363 A  
HETATM    9  C   UNL     1     -12.171   9.764  71.696  1.00  0.00    -0.488 A  
HETATM   10  C   UNL     1     -11.273   8.738  71.991  1.00  0.00    -0.443 A  
ENDBRANCH   4   5
ENDBRANCH   3   4
ENDBRANCH   2   3
BRANCH   2  11
HETATM   11  C   UNL     1      -9.883   6.437  69.236  1.00  0.00    -0.167 A  
HETATM   12  C   UNL     1     -10.459   7.999  66.980  1.00  0.00    -0.410 A  
HETATM   13  C   UNL     1     -10.684   5.929  68.203  1.00  0.00    -0.329 A  
HETATM   14  C   UNL     1     -10.970   6.706  67.078  1.00  0.00    -0.463 A  
HETATM   15  C   UNL     1      -9.377   7.740  69.131  1.00  0.00    -0.151 A  
HETATM   16  C   UNL     1      -9.666   8.517  68.005  1.00  0.00    -0.180 A  
ENDBRANCH   2  11
TORSDOF 4
ENDMDL
MODEL       99
REMARK 921   NORMALIZED FREE ENERGY PREDICTED BY IDOCK:   -4.23 KCAL/MOL
REMARK 922        TOTAL FREE ENERGY PREDICTED BY IDOCK:   -5.72 KCAL/MOL
REMARK 923 INTER-LIGAND FREE ENERGY PREDICTED BY IDOCK:   -5.05 KCAL/MOL
REMARK 924 INTRA-LIGAND FREE ENERGY PREDICTED BY IDOCK:   -0.67 KCAL/MOL
REMARK 927      BINDING AFFINITY PREDICTED BY RF-SCORE:    0.00 PKD
ROOT
HETATM    1  O   UNL     1     -13.482   7.224  71.456  1.00  0.00    -0.385 OA 
HETATM    2  C   UNL     1     -12.448   7.873  71.523  1.00  0.00    -0.318 C  
ENDROOT
BRANCH   2   3
HETATM    3  O   UNL     1     -11.226   7.392  71.847  1.00  0.00    -0.237 OA 
BRANCH   3   4
HETATM    4  C   UNL     1     -10.793   7.630  73.194  1.00  0.00    -0.382 C  
BRANCH   4   5
HETATM    5  C   UNL     1      -9.314   7.918  73.175  1.00  0.00    -0.337 A  
HETATM    6  C   UNL     1      -7.330   8.700  72.014  1.00  0.00    -0.076 A  
HETATM    7  C   UNL     1      -6.547   8.374  73.121  1.00  0.00    -0.113 A  
HETATM    8  C   UNL     1      -8.706   8.471  72.039  1.00  0.00    -0.265 A  
HETATM    9  C   UNL     1      -7.141   7.822  74.255  1.00  0.00    -0.152 A  
HETATM   10  C   UNL     1      -8.517   7.593  74.282  1.00  0.00    -0.282 A  
ENDBRANCH   4   5
ENDBRANCH   3   4
ENDBRANCH   2   3
BRANCH   2  11
HETATM   11  C   UNL     1     -12.395   9.336  71.251  1.00  0.00    -0.403 A  
HETATM   12  C   UNL     1     -12.403  12.105  70.812  1.00  0.00    -0.391 A  
HETATM   13  C   UNL     1     -13.229  10.174  72.006  1.00  0.00    -0.534 A  
HETATM   14  C   UNL     1     -13.234  11.554  71.786  1.00  0.00    -0.456 A  
HETATM   15  C   UNL     1     -11.559   9.899  70.277  1.00  0.00    -0.319 A  
HETATM   16  C   UNL     1     -11.565  11.280  70.061  1.00  0.00    -0.404 A  
ENDBRANCH   2  11
TORSDOF 4
ENDMDL
MODEL      100
REMARK 921   NORMALIZED FREE ENERGY PREDICTED BY IDOCK:   -4.21 KCAL/MOL
REMARK 922        TOTAL FREE ENERGY PREDICTED BY IDOCK:   -5.70 KCAL/MOL
REMARK 923 INTER-LIGAND FREE ENERGY PREDICTED BY IDOCK:   -5.31 KCAL/MOL
REMARK 924 INTRA-LIGAND FREE ENERGY PREDICTED BY IDOCK:   -0.38 KCAL/MOL
REMARK 927      BINDING AFFINITY PREDICTED BY RF-SCORE:    0.00 PKD
ROOT
HETATM    1  O   UNL     1      -8.474  14.872  68.628  1.00  0.00    -0.152 OA 
HETATM    2  C   UNL     1      -9.470  14.678  67.947  1.00  0.00    -0.210 C  
ENDROOT
BRANCH   2   3
HETATM    3  O   UNL     1     -10.103  15.597  67.181  1.00  0.00    -0.247 OA 
BRANCH   3   4
HETATM    4  C   UNL     1     -10.928  16.539  67.882  1.00  0.00    -0.288 C  
BRANCH   4   5
HETATM    5  C   UNL     1     -10.342  17.914  67.698  1.00  0.00    -0.387 A  
HETATM    6  C   UNL     1     -10.043  19.922  66.366  1.00  0.00    -0.615 A  
HETATM    7  C   UNL     1      -9.179  20.440  67.329  1.00  0.00    -0.525 A  
HETATM    8  C   UNL     1     -10.621  18.665  66.547  1.00  0.00    -0.409 A  
HETATM    9  C   UNL     1      -8.894  19.702  68.477  1.00  0.00    -0.346 A  
HETATM   10  C   UNL     1      -9.470  18.445  68.661  1.00  0.00    -0.356 A  
ENDBRANCH   4   5
ENDBRANCH   3   4
ENDBRANCH   2   3
BRANCH   2  11
HETATM   11  C   UNL     1     -10.149  13.355  67.868  1.00  0.00    -0.238 A  
HETATM   12  C   UNL     1     -11.395  10.858  67.594  1.00  0.00    -0.345 A  
HETATM   13  C   UNL     1      -9.949  12.582  66.715  1.00  0.00    -0.234 A  
HETATM   14  C   UNL     1     -10.571  11.339  66.578  1.00  0.00    -0.315 A  
HETATM   15  C   UNL     1     -10.976  12.863  68.887  1.00  0.00    -0.271 A  
HETATM   16  C   UNL     1     -11.596  11.617  68.748  1.00  0.00    -0.374 A  
ENDBRANCH   2  11
TORSDOF 4
ENDMDL
MODEL      101
REMARK 921   NORMALIZED FREE ENERGY PREDICTED BY IDOCK:   -4.20 KCAL/MOL
REMARK 922        TOTAL FREE ENERGY PREDICTED BY IDOCK:   -5.69 KCAL/MOL
REMARK 923 INTER-LIGAND FREE ENERGY PREDICTED BY IDOCK:   -5.37 KCAL/MOL
REMARK 924 INTRA-LIGAND FREE ENERGY PREDICTED BY IDOCK:   -0.33 KCAL/MOL
REMARK 927      BINDING AFFINITY PREDICTED BY RF-SCORE:    0.00 PKD
ROOT
HETATM    1  O   UNL     1      -8.454  10.685  64.942  1.00  0.00    -0.172 OA 
HETATM    2  C   UNL     1      -9.617  10.780  65.306  1.00  0.00    -0.229 C  
ENDROOT
BRANCH   2   3
HETATM    3  O   UNL     1     -10.285   9.889  66.075  1.00  0.00    -0.254 OA 
BRANCH   3   4
HETATM    4  C   UNL     1      -9.858   9.790  67.441  1.00  0.00    -0.174 C  
BRANCH   4   5
HETATM    5  C   UNL     1     -10.283   8.448  67.977  1.00  0.00    -0.263 A  
HETATM    6  C   UNL     1     -11.029   6.167  67.610  1.00  0.00    -0.400 A  
HETATM    7  C   UNL     1     -11.153   5.980  68.985  1.00  0.00    -0.377 A  
HETATM    8  C   UNL     1     -10.598   7.395  67.106  1.00  0.00    -0.413 A  
HETATM    9  C   UNL     1     -10.843   7.020  69.860  1.00  0.00    -0.280 A  
HETATM   10  C   UNL     1     -10.413   8.249  69.359  1.00  0.00    -0.224 A  
ENDBRANCH   4   5
ENDBRANCH   3   4
ENDBRANCH   2   3
BRANCH   2  11
HETATM   11  C   UNL     1     -10.487  11.929  64.935  1.00  0.00    -0.331 A  
HETATM   12  C   UNL     1     -12.101  14.147  64.353  1.00  0.00    -0.486 A  
HETATM   13  C   UNL     1     -10.442  13.075  65.743  1.00  0.00    -0.292 A  
HETATM   14  C   UNL     1     -11.246  14.179  65.454  1.00  0.00    -0.325 A  
HETATM   15  C   UNL     1     -11.345  11.906  63.827  1.00  0.00    -0.532 A  
HETATM   16  C   UNL     1     -12.149  13.015  63.539  1.00  0.00    -0.617 A  
ENDBRANCH   2  11
TORSDOF 4
ENDMDL
MODEL      102
REMARK 921   NORMALIZED FREE ENERGY PREDICTED BY IDOCK:   -4.20 KCAL/MOL
REMARK 922        TOTAL FREE ENERGY PREDICTED BY IDOCK:   -5.69 KCAL/MOL
REMARK 923 INTER-LIGAND FREE ENERGY PREDICTED BY IDOCK:   -5.32 KCAL/MOL
REMARK 924 INTRA-LIGAND FREE ENERGY PREDICTED BY IDOCK:   -0.37 KCAL/MOL
REMARK 927      BINDING AFFINITY PREDICTED BY RF-SCORE:    0.00 PKD
ROOT
HETATM    1  O   UNL     1     -12.146  12.766  69.967  1.00  0.00    -0.328 OA 
HETATM    2  C   UNL     1     -11.874  12.037  69.025  1.00  0.00    -0.315 C  
ENDROOT
BRANCH   2   3
HETATM    3  O   UNL     1     -11.656  10.703  69.088  1.00  0.00    -0.274 OA 
BRANCH   3   4
HETATM    4  C   UNL     1     -11.329  10.179  70.383  1.00  0.00    -0.326 C  
BRANCH   4   5
HETATM    5  C   UNL     1     -11.233   8.679  70.280  1.00  0.00    -0.196 A  
HETATM    6  C   UNL     1     -11.662   6.467  71.185  1.00  0.00    -0.392 A  
HETATM    7  C   UNL     1     -10.975   5.891  70.118  1.00  0.00    -0.412 A  
HETATM    8  C   UNL     1     -11.789   7.855  71.268  1.00  0.00    -0.321 A  
HETATM    9  C   UNL     1     -10.417   6.701  69.130  1.00  0.00    -0.250 A  
HETATM   10  C   UNL     1     -10.543   8.088  69.211  1.00  0.00    -0.193 A  
ENDBRANCH   4   5
ENDBRANCH   3   4
ENDBRANCH   2   3
BRANCH   2  11
HETATM   11  C   UNL     1     -11.737  12.538  67.629  1.00  0.00    -0.423 A  
HETATM   12  C   UNL     1     -11.414  13.373  64.972  1.00  0.00    -0.331 A  
HETATM   13  C   UNL     1     -11.286  11.641  66.651  1.00  0.00    -0.362 A  
HETATM   14  C   UNL     1     -11.123  12.057  65.327  1.00  0.00    -0.367 A  
HETATM   15  C   UNL     1     -12.032  13.859  67.264  1.00  0.00    -0.446 A  
HETATM   16  C   UNL     1     -11.870  14.272  65.937  1.00  0.00    -0.386 A  
ENDBRANCH   2  11
TORSDOF 4
ENDMDL
MODEL      103
REMARK 921   NORMALIZED FREE ENERGY PREDICTED BY IDOCK:   -4.19 KCAL/MOL
REMARK 922        TOTAL FREE ENERGY PREDICTED BY IDOCK:   -5.68 KCAL/MOL
REMARK 923 INTER-LIGAND FREE ENERGY PREDICTED BY IDOCK:   -5.14 KCAL/MOL
REMARK 924 INTRA-LIGAND FREE ENERGY PREDICTED BY IDOCK:   -0.54 KCAL/MOL
REMARK 927      BINDING AFFINITY PREDICTED BY RF-SCORE:    0.00 PKD
ROOT
HETATM    1  O   UNL     1      -9.077   7.611  68.181  1.00  0.00    -0.133 OA 
HETATM    2  C   UNL     1     -10.112   8.208  68.439  1.00  0.00    -0.200 C  
ENDROOT
BRANCH   2   3
HETATM    3  O   UNL     1     -10.810   8.995  67.588  1.00  0.00    -0.219 OA 
BRANCH   3   4
HETATM    4  C   UNL     1     -10.039   9.928  66.818  1.00  0.00    -0.230 C  
BRANCH   4   5
HETATM    5  C   UNL     1     -10.786  11.235  66.766  1.00  0.00    -0.334 A  
HETATM    6  C   UNL     1     -11.861  13.100  67.891  1.00  0.00    -0.390 A  
HETATM    7  C   UNL     1     -12.249  13.626  66.660  1.00  0.00    -0.437 A  
HETATM    8  C   UNL     1     -11.135  11.909  67.945  1.00  0.00    -0.297 A  
HETATM    9  C   UNL     1     -11.909  12.964  65.481  1.00  0.00    -0.455 A  
HETATM   10  C   UNL     1     -11.183  11.773  65.533  1.00  0.00    -0.316 A  
ENDBRANCH   4   5
ENDBRANCH   3   4
ENDBRANCH   2   3
BRANCH   2  11
HETATM   11  C   UNL     1     -10.766   8.149  69.776  1.00  0.00    -0.229 A  
HETATM   12  C   UNL     1     -11.944   8.154  72.320  1.00  0.00    -0.434 A  
HETATM   13  C   UNL     1     -10.783   9.318  70.550  1.00  0.00    -0.313 A  
HETATM   14  C   UNL     1     -11.368   9.320  71.819  1.00  0.00    -0.437 A  
HETATM   15  C   UNL     1     -11.352   6.981  70.285  1.00  0.00    -0.339 A  
HETATM   16  C   UNL     1     -11.939   6.987  71.554  1.00  0.00    -0.372 A  
ENDBRANCH   2  11
TORSDOF 4
ENDMDL
MODEL      104
REMARK 921   NORMALIZED FREE ENERGY PREDICTED BY IDOCK:   -4.17 KCAL/MOL
REMARK 922        TOTAL FREE ENERGY PREDICTED BY IDOCK:   -5.66 KCAL/MOL
REMARK 923 INTER-LIGAND FREE ENERGY PREDICTED BY IDOCK:   -4.61 KCAL/MOL
REMARK 924 INTRA-LIGAND FREE ENERGY PREDICTED BY IDOCK:   -1.04 KCAL/MOL
REMARK 927      BINDING AFFINITY PREDICTED BY RF-SCORE:    0.00 PKD
ROOT
HETATM    1  O   UNL     1     -13.804   7.061  71.684  1.00  0.00    -0.346 OA 
HETATM    2  C   UNL     1     -12.678   7.292  71.269  1.00  0.00    -0.359 C  
ENDROOT
BRANCH   2   3
HETATM    3  O   UNL     1     -12.216   8.491  70.846  1.00  0.00    -0.228 OA 
BRANCH   3   4
HETATM    4  C   UNL     1     -11.512   9.273  71.822  1.00  0.00    -0.378 C  
BRANCH   4   5
HETATM    5  C   UNL     1     -10.049   8.924  71.747  1.00  0.00    -0.407 A  
HETATM    6  C   UNL     1      -7.971   8.786  70.497  1.00  0.00    -0.117 A  
HETATM    7  C   UNL     1      -7.345   8.193  71.592  1.00  0.00    -0.088 A  
HETATM    8  C   UNL     1      -9.317   9.149  70.572  1.00  0.00    -0.287 A  
HETATM    9  C   UNL     1      -8.063   7.963  72.764  1.00  0.00    -0.183 A  
HETATM   10  C   UNL     1      -9.408   8.324  72.842  1.00  0.00    -0.324 A  
ENDBRANCH   4   5
ENDBRANCH   3   4
ENDBRANCH   2   3
BRANCH   2  11
HETATM   11  C   UNL     1     -11.626   6.243  71.164  1.00  0.00    -0.339 A  
HETATM   12  C   UNL     1      -9.638   4.267  71.098  1.00  0.00    -0.249 A  
HETATM   13  C   UNL     1     -11.263   5.559  72.333  1.00  0.00    -0.305 A  
HETATM   14  C   UNL     1     -10.272   4.575  72.300  1.00  0.00    -0.257 A  
HETATM   15  C   UNL     1     -10.987   5.925  69.958  1.00  0.00    -0.430 A  
HETATM   16  C   UNL     1      -9.996   4.938  69.928  1.00  0.00    -0.317 A  
ENDBRANCH   2  11
TORSDOF 4
ENDMDL
MODEL      105
REMARK 921   NORMALIZED FREE ENERGY PREDICTED BY IDOCK:   -4.17 KCAL/MOL
REMARK 922        TOTAL FREE ENERGY PREDICTED BY IDOCK:   -5.66 KCAL/MOL
REMARK 923 INTER-LIGAND FREE ENERGY PREDICTED BY IDOCK:   -5.23 KCAL/MOL
REMARK 924 INTRA-LIGAND FREE ENERGY PREDICTED BY IDOCK:   -0.43 KCAL/MOL
REMARK 927      BINDING AFFINITY PREDICTED BY RF-SCORE:    0.00 PKD
ROOT
HETATM    1  O   UNL     1      -7.465  16.686  69.161  1.00  0.00    -0.232 OA 
HETATM    2  C   UNL     1      -8.050  17.490  68.450  1.00  0.00    -0.266 C  
ENDROOT
BRANCH   2   3
HETATM    3  O   UNL     1      -9.320  17.376  67.996  1.00  0.00    -0.262 OA 
BRANCH   3   4
HETATM    4  C   UNL     1     -10.017  16.179  68.372  1.00  0.00    -0.230 C  
BRANCH   4   5
HETATM    5  C   UNL     1     -10.721  15.636  67.156  1.00  0.00    -0.314 A  
HETATM    6  C   UNL     1     -11.141  15.677  64.765  1.00  0.00    -0.426 A  
HETATM    7  C   UNL     1     -12.098  14.674  64.910  1.00  0.00    -0.386 A  
HETATM    8  C   UNL     1     -10.457  16.158  65.882  1.00  0.00    -0.366 A  
HETATM    9  C   UNL     1     -12.369  14.148  66.173  1.00  0.00    -0.463 A  
HETATM   10  C   UNL     1     -11.687  14.628  67.291  1.00  0.00    -0.406 A  
ENDBRANCH   4   5
ENDBRANCH   3   4
ENDBRANCH   2   3
BRANCH   2  11
HETATM   11  C   UNL     1      -7.418  18.749  67.966  1.00  0.00    -0.273 A  
HETATM   12  C   UNL     1      -6.262  21.086  66.935  1.00  0.00    -0.361 A  
HETATM   13  C   UNL     1      -7.664  19.140  66.642  1.00  0.00    -0.263 A  
HETATM   14  C   UNL     1      -7.087  20.304  66.128  1.00  0.00    -0.295 A  
HETATM   15  C   UNL     1      -6.592  19.544  68.773  1.00  0.00    -0.330 A  
HETATM   16  C   UNL     1      -6.017  20.709  68.256  1.00  0.00    -0.356 A  
ENDBRANCH   2  11
TORSDOF 4
ENDMDL
MODEL      106
REMARK 921   NORMALIZED FREE ENERGY PREDICTED BY IDOCK:   -4.16 KCAL/MOL
REMARK 922        TOTAL FREE ENERGY PREDICTED BY IDOCK:   -5.64 KCAL/MOL
REMARK 923 INTER-LIGAND FREE ENERGY PREDICTED BY IDOCK:   -5.28 KCAL/MOL
REMARK 924 INTRA-LIGAND FREE ENERGY PREDICTED BY IDOCK:   -0.37 KCAL/MOL
REMARK 927      BINDING AFFINITY PREDICTED BY RF-SCORE:    0.00 PKD
ROOT
HETATM    1  O   UNL     1     -12.086  11.921  70.814  1.00  0.00    -0.357 OA 
HETATM    2  C   UNL     1     -11.477  11.258  69.987  1.00  0.00    -0.275 C  
ENDROOT
BRANCH   2   3
HETATM    3  O   UNL     1     -10.823  10.098  70.223  1.00  0.00    -0.282 OA 
BRANCH   3   4
HETATM    4  C   UNL     1     -11.510   9.144  71.046  1.00  0.00    -0.306 C  
BRANCH   4   5
HETATM    5  C   UNL     1     -10.509   8.507  71.973  1.00  0.00    -0.407 A  
HETATM    6  C   UNL     1      -8.212   7.996  72.573  1.00  0.00    -0.198 A  
HETATM    7  C   UNL     1      -8.656   7.249  73.662  1.00  0.00    -0.193 A  
HETATM    8  C   UNL     1      -9.133   8.622  71.731  1.00  0.00    -0.317 A  
HETATM    9  C   UNL     1     -10.022   7.127  73.912  1.00  0.00    -0.360 A  
HETATM   10  C   UNL     1     -10.945   7.751  73.072  1.00  0.00    -0.442 A  
ENDBRANCH   4   5
ENDBRANCH   3   4
ENDBRANCH   2   3
BRANCH   2  11
HETATM   11  C   UNL     1     -11.366  11.656  68.556  1.00  0.00    -0.332 A  
HETATM   12  C   UNL     1     -11.071  12.310  65.846  1.00  0.00    -0.360 A  
HETATM   13  C   UNL     1     -10.698  10.786  67.683  1.00  0.00    -0.305 A  
HETATM   14  C   UNL     1     -10.550  11.112  66.333  1.00  0.00    -0.315 A  
HETATM   15  C   UNL     1     -11.892  12.856  68.058  1.00  0.00    -0.390 A  
HETATM   16  C   UNL     1     -11.743  13.179  66.705  1.00  0.00    -0.439 A  
ENDBRANCH   2  11
TORSDOF 4
ENDMDL
MODEL      107
REMARK 921   NORMALIZED FREE ENERGY PREDICTED BY IDOCK:   -4.16 KCAL/MOL
REMARK 922        TOTAL FREE ENERGY PREDICTED BY IDOCK:   -5.64 KCAL/MOL
REMARK 923 INTER-LIGAND FREE ENERGY PREDICTED BY IDOCK:   -4.83 KCAL/MOL
REMARK 924 INTRA-LIGAND FREE ENERGY PREDICTED BY IDOCK:   -0.81 KCAL/MOL
REMARK 927      BINDING AFFINITY PREDICTED BY RF-SCORE:    0.00 PKD
ROOT
HETATM    1  O   UNL     1      -9.156   7.253  73.247  1.00  0.00    -0.135 OA 
HETATM    2  C   UNL     1     -10.020   7.134  72.390  1.00  0.00    -0.166 C  
ENDROOT
BRANCH   2   3
HETATM    3  O   UNL     1     -10.273   6.020  71.665  1.00  0.00    -0.193 OA 
BRANCH   3   4
HETATM    4  C   UNL     1      -9.268   5.648  70.711  1.00  0.00    -0.151 C  
BRANCH   4   5
HETATM    5  C   UNL     1      -9.583   6.321  69.400  1.00  0.00    -0.157 A  
HETATM    6  C   UNL     1      -9.117   8.025  67.734  1.00  0.00    -0.136 A  
HETATM    7  C   UNL     1     -10.229   7.619  66.999  1.00  0.00    -0.371 A  
HETATM    8  C   UNL     1      -8.796   7.381  68.930  1.00  0.00    -0.131 A  
HETATM    9  C   UNL     1     -11.020   6.566  67.457  1.00  0.00    -0.444 A  
HETATM   10  C   UNL     1     -10.701   5.921  68.652  1.00  0.00    -0.339 A  
ENDBRANCH   4   5
ENDBRANCH   3   4
ENDBRANCH   2   3
BRANCH   2  11
HETATM   11  C   UNL     1     -10.940   8.242  72.013  1.00  0.00    -0.374 A  
HETATM   12  C   UNL     1     -12.773  10.257  71.349  1.00  0.00    -0.547 A  
HETATM   13  C   UNL     1     -12.254   8.198  72.501  1.00  0.00    -0.335 A  
HETATM   14  C   UNL     1     -13.168   9.202  72.169  1.00  0.00    -0.524 A  
HETATM   15  C   UNL     1     -10.549   9.310  71.193  1.00  0.00    -0.402 A  
HETATM   16  C   UNL     1     -11.466  10.313  70.864  1.00  0.00    -0.425 A  
ENDBRANCH   2  11
TORSDOF 4
ENDMDL
MODEL      108
REMARK 921   NORMALIZED FREE ENERGY PREDICTED BY IDOCK:   -4.16 KCAL/MOL
REMARK 922        TOTAL FREE ENERGY PREDICTED BY IDOCK:   -5.64 KCAL/MOL
REMARK 923 INTER-LIGAND FREE ENERGY PREDICTED BY IDOCK:   -5.25 KCAL/MOL
REMARK 924 INTRA-LIGAND FREE ENERGY PREDICTED BY IDOCK:   -0.39 KCAL/MOL
REMARK 927      BINDING AFFINITY PREDICTED BY RF-SCORE:    0.00 PKD
ROOT
HETATM    1  O   UNL     1     -13.206   6.903  71.705  1.00  0.00    -0.354 OA 
HETATM    2  C   UNL     1     -12.227   7.598  71.478  1.00  0.00    -0.324 C  
ENDROOT
BRANCH   2   3
HETATM    3  O   UNL     1     -10.946   7.168  71.396  1.00  0.00    -0.231 OA 
BRANCH   3   4
HETATM    4  C   UNL     1     -10.347   6.738  72.627  1.00  0.00    -0.201 C  
BRANCH   4   5
HETATM    5  C   UNL     1     -10.365   5.232  72.664  1.00  0.00    -0.247 A  
HETATM    6  C   UNL     1      -9.889   3.088  71.627  1.00  0.00    -0.214 A  
HETATM    7  C   UNL     1     -10.476   2.430  72.706  1.00  0.00    -0.232 A  
HETATM    8  C   UNL     1      -9.835   4.482  71.604  1.00  0.00    -0.258 A  
HETATM    9  C   UNL     1     -11.007   3.165  73.765  1.00  0.00    -0.310 A  
HETATM   10  C   UNL     1     -10.954   4.558  73.744  1.00  0.00    -0.361 A  
ENDBRANCH   4   5
ENDBRANCH   3   4
ENDBRANCH   2   3
BRANCH   2  11
HETATM   11  C   UNL     1     -12.314   9.069  71.259  1.00  0.00    -0.361 A  
HETATM   12  C   UNL     1     -12.368  11.830  70.778  1.00  0.00    -0.433 A  
HETATM   13  C   UNL     1     -11.455   9.643  70.311  1.00  0.00    -0.288 A  
HETATM   14  C   UNL     1     -11.481  11.019  70.072  1.00  0.00    -0.398 A  
HETATM   15  C   UNL     1     -13.207   9.890  71.961  1.00  0.00    -0.555 A  
HETATM   16  C   UNL     1     -13.231  11.267  71.718  1.00  0.00    -0.480 A  
ENDBRANCH   2  11
TORSDOF 4
ENDMDL
MODEL      109
REMARK 921   NORMALIZED FREE ENERGY PREDICTED BY IDOCK:   -4.15 KCAL/MOL
REMARK 922        TOTAL FREE ENERGY PREDICTED BY IDOCK:   -5.62 KCAL/MOL
REMARK 923 INTER-LIGAND FREE ENERGY PREDICTED BY IDOCK:   -4.47 KCAL/MOL
REMARK 924 INTRA-LIGAND FREE ENERGY PREDICTED BY IDOCK:   -1.15 KCAL/MOL
REMARK 927      BINDING AFFINITY PREDICTED BY RF-SCORE:    0.00 PKD
ROOT
HETATM    1  O   UNL     1     -11.178   6.109  68.466  1.00  0.00    -0.341 OA 
HETATM    2  C   UNL     1     -11.120   6.269  69.676  1.00  0.00    -0.412 C  
ENDROOT
BRANCH   2   3
HETATM    3  O   UNL     1     -10.736   5.342  70.584  1.00  0.00    -0.254 OA 
BRANCH   3   4
HETATM    4  C   UNL     1      -9.327   5.257  70.840  1.00  0.00    -0.153 C  
BRANCH   4   5
HETATM    5  C   UNL     1      -8.986   6.215  71.952  1.00  0.00    -0.140 A  
HETATM    6  C   UNL     1      -9.327   7.035  74.212  1.00  0.00    -0.262 A  
HETATM    7  C   UNL     1      -8.403   8.054  73.987  1.00  0.00    -0.323 A  
HETATM    8  C   UNL     1      -9.620   6.120  73.199  1.00  0.00    -0.147 A  
HETATM    9  C   UNL     1      -7.767   8.157  72.751  1.00  0.00    -0.184 A  
HETATM   10  C   UNL     1      -8.059   7.245  71.737  1.00  0.00    -0.100 A  
ENDBRANCH   4   5
ENDBRANCH   3   4
ENDBRANCH   2   3
BRANCH   2  11
HETATM   11  C   UNL     1     -11.480   7.554  70.339  1.00  0.00    -0.219 A  
HETATM   12  C   UNL     1     -12.262   9.912  71.638  1.00  0.00    -0.482 A  
HETATM   13  C   UNL     1     -12.471   7.525  71.330  1.00  0.00    -0.382 A  
HETATM   14  C   UNL     1     -12.861   8.700  71.977  1.00  0.00    -0.425 A  
HETATM   15  C   UNL     1     -10.877   8.775  70.007  1.00  0.00    -0.231 A  
HETATM   16  C   UNL     1     -11.269   9.950  70.657  1.00  0.00    -0.416 A  
ENDBRANCH   2  11
TORSDOF 4
ENDMDL
MODEL      110
REMARK 921   NORMALIZED FREE ENERGY PREDICTED BY IDOCK:   -4.14 KCAL/MOL
REMARK 922        TOTAL FREE ENERGY PREDICTED BY IDOCK:   -5.62 KCAL/MOL
REMARK 923 INTER-LIGAND FREE ENERGY PREDICTED BY IDOCK:   -5.25 KCAL/MOL
REMARK 924 INTRA-LIGAND FREE ENERGY PREDICTED BY IDOCK:   -0.37 KCAL/MOL
REMARK 927      BINDING AFFINITY PREDICTED BY RF-SCORE:    0.00 PKD
ROOT
HETATM    1  O   UNL     1     -10.892  13.777  68.655  1.00  0.00    -0.249 OA 
HETATM    2  C   UNL     1     -11.701  13.206  69.373  1.00  0.00    -0.327 C  
ENDROOT
BRANCH   2   3
HETATM    3  O   UNL     1     -12.104  11.920  69.253  1.00  0.00    -0.282 OA 
BRANCH   3   4
HETATM    4  C   UNL     1     -11.425  11.138  68.259  1.00  0.00    -0.303 C  
BRANCH   4   5
HETATM    5  C   UNL     1     -10.128  10.645  68.847  1.00  0.00    -0.215 A  
HETATM    6  C   UNL     1      -7.725  10.331  68.695  1.00  0.00    -0.094 A  
HETATM    7  C   UNL     1      -7.731   9.651  69.911  1.00  0.00    -0.146 A  
HETATM    8  C   UNL     1      -8.917  10.824  68.163  1.00  0.00    -0.140 A  
HETATM    9  C   UNL     1      -8.930   9.466  70.599  1.00  0.00    -0.285 A  
HETATM   10  C   UNL     1     -10.122   9.958  70.070  1.00  0.00    -0.308 A  
ENDBRANCH   4   5
ENDBRANCH   3   4
ENDBRANCH   2   3
BRANCH   2  11
HETATM   11  C   UNL     1     -12.380  13.878  70.516  1.00  0.00    -0.439 A  
HETATM   12  C   UNL     1     -13.598  15.252  72.634  1.00  0.00    -0.617 A  
HETATM   13  C   UNL     1     -12.341  15.278  70.571  1.00  0.00    -0.434 A  
HETATM   14  C   UNL     1     -12.947  15.963  71.627  1.00  0.00    -0.376 A  
HETATM   15  C   UNL     1     -13.041  13.170  71.529  1.00  0.00    -0.404 A  
HETATM   16  C   UNL     1     -13.648  13.858  72.584  1.00  0.00    -0.626 A  
ENDBRANCH   2  11
TORSDOF 4
ENDMDL
MODEL      111
REMARK 921   NORMALIZED FREE ENERGY PREDICTED BY IDOCK:   -4.14 KCAL/MOL
REMARK 922        TOTAL FREE ENERGY PREDICTED BY IDOCK:   -5.61 KCAL/MOL
REMARK 923 INTER-LIGAND FREE ENERGY PREDICTED BY IDOCK:   -4.93 KCAL/MOL
REMARK 924 INTRA-LIGAND FREE ENERGY PREDICTED BY IDOCK:   -0.68 KCAL/MOL
REMARK 927      BINDING AFFINITY PREDICTED BY RF-SCORE:    0.00 PKD
ROOT
HETATM    1  O   UNL     1      -9.074   6.784  66.685  1.00  0.00    -0.136 OA 
HETATM    2  C   UNL     1     -10.073   7.392  67.040  1.00  0.00    -0.258 C  
ENDROOT
BRANCH   2   3
HETATM    3  O   UNL     1     -11.130   6.869  67.703  1.00  0.00    -0.242 OA 
BRANCH   3   4
HETATM    4  C   UNL     1     -10.816   6.019  68.815  1.00  0.00    -0.322 C  
BRANCH   4   5
HETATM    5  C   UNL     1     -11.038   6.797  70.086  1.00  0.00    -0.365 A  
HETATM    6  C   UNL     1     -10.202   8.237  71.854  1.00  0.00    -0.314 A  
HETATM    7  C   UNL     1     -11.438   8.174  72.496  1.00  0.00    -0.470 A  
HETATM    8  C   UNL     1     -10.001   7.550  70.656  1.00  0.00    -0.183 A  
HETATM    9  C   UNL     1     -12.475   7.428  71.940  1.00  0.00    -0.334 A  
HETATM   10  C   UNL     1     -12.276   6.740  70.742  1.00  0.00    -0.353 A  
ENDBRANCH   4   5
ENDBRANCH   3   4
ENDBRANCH   2   3
BRANCH   2  11
HETATM   11  C   UNL     1     -10.270   8.844  66.775  1.00  0.00    -0.348 A  
HETATM   12  C   UNL     1     -10.721  11.583  66.378  1.00  0.00    -0.320 A  
HETATM   13  C   UNL     1     -10.910   9.610  67.760  1.00  0.00    -0.278 A  
HETATM   14  C   UNL     1     -11.136  10.975  67.562  1.00  0.00    -0.366 A  
HETATM   15  C   UNL     1      -9.851   9.464  65.589  1.00  0.00    -0.294 A  
HETATM   16  C   UNL     1     -10.078  10.831  65.395  1.00  0.00    -0.347 A  
ENDBRANCH   2  11
TORSDOF 4
ENDMDL
MODEL      112
REMARK 921   NORMALIZED FREE ENERGY PREDICTED BY IDOCK:   -4.14 KCAL/MOL
REMARK 922        TOTAL FREE ENERGY PREDICTED BY IDOCK:   -5.61 KCAL/MOL
REMARK 923 INTER-LIGAND FREE ENERGY PREDICTED BY IDOCK:   -5.28 KCAL/MOL
REMARK 924 INTRA-LIGAND FREE ENERGY PREDICTED BY IDOCK:   -0.33 KCAL/MOL
REMARK 927      BINDING AFFINITY PREDICTED BY RF-SCORE:    0.00 PKD
ROOT
HETATM    1  O   UNL     1      -9.263   9.795  70.313  1.00  0.00    -0.246 OA 
HETATM    2  C   UNL     1     -10.380   9.312  70.430  1.00  0.00    -0.240 C  
ENDROOT
BRANCH   2   3
HETATM    3  O   UNL     1     -11.518   9.798  69.882  1.00  0.00    -0.222 OA 
BRANCH   3   4
HETATM    4  C   UNL     1     -11.851  11.152  70.222  1.00  0.00    -0.366 C  
BRANCH   4   5
HETATM    5  C   UNL     1     -11.769  11.990  68.973  1.00  0.00    -0.382 A  
HETATM    6  C   UNL     1     -11.858  14.152  67.870  1.00  0.00    -0.405 A  
HETATM    7  C   UNL     1     -11.697  13.533  66.632  1.00  0.00    -0.425 A  
HETATM    8  C   UNL     1     -11.896  13.385  69.036  1.00  0.00    -0.378 A  
HETATM    9  C   UNL     1     -11.570  12.147  66.557  1.00  0.00    -0.425 A  
HETATM   10  C   UNL     1     -11.609  11.378  67.721  1.00  0.00    -0.325 A  
ENDBRANCH   4   5
ENDBRANCH   3   4
ENDBRANCH   2   3
BRANCH   2  11
HETATM   11  C   UNL     1     -10.649   8.081  71.223  1.00  0.00    -0.245 A  
HETATM   12  C   UNL     1     -11.091   5.817  72.817  1.00  0.00    -0.327 A  
HETATM   13  C   UNL     1     -10.387   8.118  72.600  1.00  0.00    -0.398 A  
HETATM   14  C   UNL     1     -10.606   6.990  73.394  1.00  0.00    -0.399 A  
HETATM   15  C   UNL     1     -11.141   6.900  70.651  1.00  0.00    -0.322 A  
HETATM   16  C   UNL     1     -11.361   5.773  71.449  1.00  0.00    -0.175 A  
ENDBRANCH   2  11
TORSDOF 4
ENDMDL
MODEL      113
REMARK 921   NORMALIZED FREE ENERGY PREDICTED BY IDOCK:   -4.13 KCAL/MOL
REMARK 922        TOTAL FREE ENERGY PREDICTED BY IDOCK:   -5.61 KCAL/MOL
REMARK 923 INTER-LIGAND FREE ENERGY PREDICTED BY IDOCK:   -5.81 KCAL/MOL
REMARK 924 INTRA-LIGAND FREE ENERGY PREDICTED BY IDOCK:    0.20 KCAL/MOL
REMARK 927      BINDING AFFINITY PREDICTED BY RF-SCORE:    0.00 PKD
ROOT
HETATM    1  O   UNL     1      -8.921  12.541  67.826  1.00  0.00    -0.167 OA 
HETATM    2  C   UNL     1      -9.966  13.173  67.870  1.00  0.00    -0.233 C  
ENDROOT
BRANCH   2   3
HETATM    3  O   UNL     1     -10.828  13.215  68.912  1.00  0.00    -0.242 OA 
BRANCH   3   4
HETATM    4  C   UNL     1     -11.711  14.345  68.953  1.00  0.00    -0.322 C  
BRANCH   4   5
HETATM    5  C   UNL     1     -12.489  14.294  70.242  1.00  0.00    -0.422 A  
HETATM    6  C   UNL     1     -13.520  13.027  72.039  1.00  0.00    -0.584 A  
HETATM    7  C   UNL     1     -14.008  14.206  72.598  1.00  0.00    -0.412 A  
HETATM    8  C   UNL     1     -12.766  13.069  70.865  1.00  0.00    -0.299 A  
HETATM    9  C   UNL     1     -13.740  15.430  71.987  1.00  0.00    -0.613 A  
HETATM   10  C   UNL     1     -12.986  15.475  70.814  1.00  0.00    -0.490 A  
ENDBRANCH   4   5
ENDBRANCH   3   4
ENDBRANCH   2   3
BRANCH   2  11
HETATM   11  C   UNL     1     -10.452  14.009  66.737  1.00  0.00    -0.277 A  
HETATM   12  C   UNL     1     -11.300  15.684  64.655  1.00  0.00    -0.355 A  
HETATM   13  C   UNL     1      -9.851  15.261  66.541  1.00  0.00    -0.283 A  
HETATM   14  C   UNL     1     -10.275  16.096  65.504  1.00  0.00    -0.360 A  
HETATM   15  C   UNL     1     -11.480  13.600  65.876  1.00  0.00    -0.329 A  
HETATM   16  C   UNL     1     -11.900  14.438  64.838  1.00  0.00    -0.419 A  
ENDBRANCH   2  11
TORSDOF 4
ENDMDL
MODEL      114
REMARK 921   NORMALIZED FREE ENERGY PREDICTED BY IDOCK:   -4.13 KCAL/MOL
REMARK 922        TOTAL FREE ENERGY PREDICTED BY IDOCK:   -5.60 KCAL/MOL
REMARK 923 INTER-LIGAND FREE ENERGY PREDICTED BY IDOCK:   -5.33 KCAL/MOL
REMARK 924 INTRA-LIGAND FREE ENERGY PREDICTED BY IDOCK:   -0.27 KCAL/MOL
REMARK 927      BINDING AFFINITY PREDICTED BY RF-SCORE:    0.00 PKD
ROOT
HETATM    1  O   UNL     1      -9.380   8.855  65.836  1.00  0.00    -0.219 OA 
HETATM    2  C   UNL     1     -10.213   9.629  66.285  1.00  0.00    -0.216 C  
ENDROOT
BRANCH   2   3
HETATM    3  O   UNL     1     -10.859   9.504  67.468  1.00  0.00    -0.280 OA 
BRANCH   3   4
HETATM    4  C   UNL     1     -10.045   9.624  68.644  1.00  0.00    -0.179 C  
BRANCH   4   5
HETATM    5  C   UNL     1     -10.786   9.005  69.800  1.00  0.00    -0.215 A  
HETATM    6  C   UNL     1     -12.118   9.227  71.819  1.00  0.00    -0.457 A  
HETATM    7  C   UNL     1     -12.093   7.845  71.994  1.00  0.00    -0.363 A  
HETATM    8  C   UNL     1     -11.466   9.806  70.728  1.00  0.00    -0.417 A  
HETATM    9  C   UNL     1     -11.420   7.039  71.078  1.00  0.00    -0.343 A  
HETATM   10  C   UNL     1     -10.767   7.615  69.988  1.00  0.00    -0.245 A  
ENDBRANCH   4   5
ENDBRANCH   3   4
ENDBRANCH   2   3
BRANCH   2  11
HETATM   11  C   UNL     1     -10.649  10.856  65.562  1.00  0.00    -0.240 A  
HETATM   12  C   UNL     1     -11.398  13.127  64.099  1.00  0.00    -0.440 A  
HETATM   13  C   UNL     1     -10.397  10.930  64.185  1.00  0.00    -0.432 A  
HETATM   14  C   UNL     1     -10.769  12.062  63.456  1.00  0.00    -0.513 A  
HETATM   15  C   UNL     1     -11.285  11.929  66.201  1.00  0.00    -0.387 A  
HETATM   16  C   UNL     1     -11.658  13.060  65.468  1.00  0.00    -0.382 A  
ENDBRANCH   2  11
TORSDOF 4
ENDMDL
MODEL      115
REMARK 921   NORMALIZED FREE ENERGY PREDICTED BY IDOCK:   -4.12 KCAL/MOL
REMARK 922        TOTAL FREE ENERGY PREDICTED BY IDOCK:   -5.60 KCAL/MOL
REMARK 923 INTER-LIGAND FREE ENERGY PREDICTED BY IDOCK:   -5.30 KCAL/MOL
REMARK 924 INTRA-LIGAND FREE ENERGY PREDICTED BY IDOCK:   -0.30 KCAL/MOL
REMARK 927      BINDING AFFINITY PREDICTED BY RF-SCORE:    0.00 PKD
ROOT
HETATM    1  O   UNL     1     -11.017  17.012  68.185  1.00  0.00    -0.367 OA 
HETATM    2  C   UNL     1     -10.179  16.567  67.415  1.00  0.00    -0.287 C  
ENDROOT
BRANCH   2   3
HETATM    3  O   UNL     1     -10.398  15.654  66.441  1.00  0.00    -0.276 OA 
BRANCH   3   4
HETATM    4  C   UNL     1     -11.267  14.565  66.784  1.00  0.00    -0.334 C  
BRANCH   4   5
HETATM    5  C   UNL     1     -11.298  13.598  65.629  1.00  0.00    -0.309 A  
HETATM    6  C   UNL     1     -12.113  12.956  63.434  1.00  0.00    -0.610 A  
HETATM    7  C   UNL     1     -11.413  11.754  63.519  1.00  0.00    -0.489 A  
HETATM    8  C   UNL     1     -12.059  13.874  64.484  1.00  0.00    -0.473 A  
HETATM    9  C   UNL     1     -10.654  11.469  64.654  1.00  0.00    -0.369 A  
HETATM   10  C   UNL     1     -10.598  12.385  65.705  1.00  0.00    -0.297 A  
ENDBRANCH   4   5
ENDBRANCH   3   4
ENDBRANCH   2   3
BRANCH   2  11
HETATM   11  C   UNL     1      -8.750  16.984  67.449  1.00  0.00    -0.211 A  
HETATM   12  C   UNL     1      -6.053  17.748  67.384  1.00  0.00    -0.164 A  
HETATM   13  C   UNL     1      -8.110  17.234  66.227  1.00  0.00    -0.315 A  
HETATM   14  C   UNL     1      -6.766  17.614  66.194  1.00  0.00    -0.321 A  
HETATM   15  C   UNL     1      -8.028  17.126  68.642  1.00  0.00    -0.265 A  
HETATM   16  C   UNL     1      -6.683  17.508  68.606  1.00  0.00    -0.211 A  
ENDBRANCH   2  11
TORSDOF 4
ENDMDL
MODEL      116
REMARK 921   NORMALIZED FREE ENERGY PREDICTED BY IDOCK:   -4.11 KCAL/MOL
REMARK 922        TOTAL FREE ENERGY PREDICTED BY IDOCK:   -5.58 KCAL/MOL
REMARK 923 INTER-LIGAND FREE ENERGY PREDICTED BY IDOCK:   -5.33 KCAL/MOL
REMARK 924 INTRA-LIGAND FREE ENERGY PREDICTED BY IDOCK:   -0.25 KCAL/MOL
REMARK 927      BINDING AFFINITY PREDICTED BY RF-SCORE:    0.00 PKD
ROOT
HETATM    1  O   UNL     1     -10.521   9.834  66.917  1.00  0.00    -0.238 OA 
HETATM    2  C   UNL     1     -11.096  10.633  67.641  1.00  0.00    -0.319 C  
ENDROOT
BRANCH   2   3
HETATM    3  O   UNL     1     -11.572  10.383  68.883  1.00  0.00    -0.225 OA 
BRANCH   3   4
HETATM    4  C   UNL     1     -10.587  10.129  69.895  1.00  0.00    -0.285 C  
BRANCH   4   5
HETATM    5  C   UNL     1     -10.940   8.841  70.591  1.00  0.00    -0.278 A  
HETATM    6  C   UNL     1     -11.394   6.456  70.517  1.00  0.00    -0.438 A  
HETATM    7  C   UNL     1     -11.678   6.462  71.882  1.00  0.00    -0.378 A  
HETATM    8  C   UNL     1     -11.029   7.639  69.873  1.00  0.00    -0.208 A  
HETATM    9  C   UNL     1     -11.594   7.651  72.605  1.00  0.00    -0.371 A  
HETATM   10  C   UNL     1     -11.229   8.835  71.963  1.00  0.00    -0.443 A  
ENDBRANCH   4   5
ENDBRANCH   3   4
ENDBRANCH   2   3
BRANCH   2  11
HETATM   11  C   UNL     1     -11.364  12.041  67.237  1.00  0.00    -0.394 A  
HETATM   12  C   UNL     1     -11.836  14.730  66.598  1.00  0.00    -0.255 A  
HETATM   13  C   UNL     1     -10.941  13.063  68.099  1.00  0.00    -0.269 A  
HETATM   14  C   UNL     1     -11.177  14.403  67.781  1.00  0.00    -0.316 A  
HETATM   15  C   UNL     1     -12.021  12.378  66.046  1.00  0.00    -0.419 A  
HETATM   16  C   UNL     1     -12.255  13.720  65.730  1.00  0.00    -0.495 A  
ENDBRANCH   2  11
TORSDOF 4
ENDMDL
MODEL      117
REMARK 921   NORMALIZED FREE ENERGY PREDICTED BY IDOCK:   -4.11 KCAL/MOL
REMARK 922        TOTAL FREE ENERGY PREDICTED BY IDOCK:   -5.58 KCAL/MOL
REMARK 923 INTER-LIGAND FREE ENERGY PREDICTED BY IDOCK:   -5.23 KCAL/MOL
REMARK 924 INTRA-LIGAND FREE ENERGY PREDICTED BY IDOCK:   -0.35 KCAL/MOL
REMARK 927      BINDING AFFINITY PREDICTED BY RF-SCORE:    0.00 PKD
ROOT
HETATM    1  O   UNL     1     -11.102  19.058  67.453  1.00  0.00    -0.395 OA 
HETATM    2  C   UNL     1     -10.267  18.177  67.307  1.00  0.00    -0.367 C  
ENDROOT
BRANCH   2   3
HETATM    3  O   UNL     1     -10.418  16.874  67.642  1.00  0.00    -0.315 OA 
BRANCH   3   4
HETATM    4  C   UNL     1     -10.607  16.602  69.038  1.00  0.00    -0.340 C  
BRANCH   4   5
HETATM    5  C   UNL     1     -11.130  15.197  69.182  1.00  0.00    -0.263 A  
HETATM    6  C   UNL     1     -12.398  13.530  70.412  1.00  0.00    -0.397 A  
HETATM    7  C   UNL     1     -12.031  12.558  69.484  1.00  0.00    -0.329 A  
HETATM    8  C   UNL     1     -11.949  14.844  70.264  1.00  0.00    -0.365 A  
HETATM    9  C   UNL     1     -11.217  12.897  68.404  1.00  0.00    -0.305 A  
HETATM   10  C   UNL     1     -10.767  14.209  68.255  1.00  0.00    -0.256 A  
ENDBRANCH   4   5
ENDBRANCH   3   4
ENDBRANCH   2   3
BRANCH   2  11
HETATM   11  C   UNL     1      -8.921  18.428  66.723  1.00  0.00    -0.291 A  
HETATM   12  C   UNL     1      -6.352  18.781  65.658  1.00  0.00    -0.297 A  
HETATM   13  C   UNL     1      -8.067  17.331  66.545  1.00  0.00    -0.313 A  
HETATM   14  C   UNL     1      -6.786  17.506  66.015  1.00  0.00    -0.281 A  
HETATM   15  C   UNL     1      -8.478  19.707  66.356  1.00  0.00    -0.382 A  
HETATM   16  C   UNL     1      -7.196  19.880  65.825  1.00  0.00    -0.329 A  
ENDBRANCH   2  11
TORSDOF 4
ENDMDL
MODEL      118
REMARK 921   NORMALIZED FREE ENERGY PREDICTED BY IDOCK:   -4.11 KCAL/MOL
REMARK 922        TOTAL FREE ENERGY PREDICTED BY IDOCK:   -5.57 KCAL/MOL
REMARK 923 INTER-LIGAND FREE ENERGY PREDICTED BY IDOCK:   -4.91 KCAL/MOL
REMARK 924 INTRA-LIGAND FREE ENERGY PREDICTED BY IDOCK:   -0.67 KCAL/MOL
REMARK 927      BINDING AFFINITY PREDICTED BY RF-SCORE:    0.00 PKD
ROOT
HETATM    1  O   UNL     1     -12.449  13.908  70.659  1.00  0.00    -0.335 OA 
HETATM    2  C   UNL     1     -12.180  13.720  69.481  1.00  0.00    -0.293 C  
ENDROOT
BRANCH   2   3
HETATM    3  O   UNL     1     -12.280  14.632  68.486  1.00  0.00    -0.230 OA 
BRANCH   3   4
HETATM    4  C   UNL     1     -11.751  15.935  68.771  1.00  0.00    -0.349 C  
BRANCH   4   5
HETATM    5  C   UNL     1     -10.432  16.079  68.057  1.00  0.00    -0.275 A  
HETATM    6  C   UNL     1      -9.118  16.024  66.016  1.00  0.00    -0.361 A  
HETATM    7  C   UNL     1      -7.959  16.269  66.749  1.00  0.00    -0.306 A  
HETATM    8  C   UNL     1     -10.350  15.927  66.666  1.00  0.00    -0.302 A  
HETATM    9  C   UNL     1      -8.029  16.421  68.133  1.00  0.00    -0.160 A  
HETATM   10  C   UNL     1      -9.258  16.324  68.785  1.00  0.00    -0.240 A  
ENDBRANCH   4   5
ENDBRANCH   3   4
ENDBRANCH   2   3
BRANCH   2  11
HETATM   11  C   UNL     1     -11.690  12.412  68.963  1.00  0.00    -0.372 A  
HETATM   12  C   UNL     1     -10.756   9.910  68.112  1.00  0.00    -0.279 A  
HETATM   13  C   UNL     1     -11.587  11.346  69.868  1.00  0.00    -0.402 A  
HETATM   14  C   UNL     1     -11.121  10.099  69.444  1.00  0.00    -0.288 A  
HETATM   15  C   UNL     1     -11.327  12.213  67.624  1.00  0.00    -0.379 A  
HETATM   16  C   UNL     1     -10.862  10.963  67.203  1.00  0.00    -0.337 A  
ENDBRANCH   2  11
TORSDOF 4
ENDMDL
MODEL      119
REMARK 921   NORMALIZED FREE ENERGY PREDICTED BY IDOCK:   -4.10 KCAL/MOL
REMARK 922        TOTAL FREE ENERGY PREDICTED BY IDOCK:   -5.57 KCAL/MOL
REMARK 923 INTER-LIGAND FREE ENERGY PREDICTED BY IDOCK:   -5.08 KCAL/MOL
REMARK 924 INTRA-LIGAND FREE ENERGY PREDICTED BY IDOCK:   -0.49 KCAL/MOL
REMARK 927      BINDING AFFINITY PREDICTED BY RF-SCORE:    0.00 PKD
ROOT
HETATM    1  O   UNL     1      -9.671   6.145  69.042  1.00  0.00    -0.131 OA 
HETATM    2  C   UNL     1      -9.984   6.466  70.179  1.00  0.00    -0.171 C  
ENDROOT
BRANCH   2   3
HETATM    3  O   UNL     1     -10.147   7.731  70.632  1.00  0.00    -0.190 OA 
BRANCH   3   4
HETATM    4  C   UNL     1     -10.589   8.694  69.665  1.00  0.00    -0.218 C  
BRANCH   4   5
HETATM    5  C   UNL     1     -11.506   9.672  70.351  1.00  0.00    -0.325 A  
HETATM    6  C   UNL     1     -12.330  11.935  70.662  1.00  0.00    -0.405 A  
HETATM    7  C   UNL     1     -13.160  11.498  71.692  1.00  0.00    -0.478 A  
HETATM    8  C   UNL     1     -11.504  11.028  69.995  1.00  0.00    -0.398 A  
HETATM    9  C   UNL     1     -13.170  10.152  72.054  1.00  0.00    -0.534 A  
HETATM   10  C   UNL     1     -12.346   9.243  71.390  1.00  0.00    -0.421 A  
ENDBRANCH   4   5
ENDBRANCH   3   4
ENDBRANCH   2   3
BRANCH   2  11
HETATM   11  C   UNL     1     -10.232   5.472  71.259  1.00  0.00    -0.283 A  
HETATM   12  C   UNL     1     -10.646   3.508  73.217  1.00  0.00    -0.277 A  
HETATM   13  C   UNL     1      -9.623   4.214  71.146  1.00  0.00    -0.249 A  
HETATM   14  C   UNL     1      -9.830   3.235  72.120  1.00  0.00    -0.237 A  
HETATM   15  C   UNL     1     -11.046   5.741  72.368  1.00  0.00    -0.332 A  
HETATM   16  C   UNL     1     -11.251   4.759  73.343  1.00  0.00    -0.425 A  
ENDBRANCH   2  11
TORSDOF 4
ENDMDL
MODEL      120
REMARK 921   NORMALIZED FREE ENERGY PREDICTED BY IDOCK:   -4.04 KCAL/MOL
REMARK 922        TOTAL FREE ENERGY PREDICTED BY IDOCK:   -5.50 KCAL/MOL
REMARK 923 INTER-LIGAND FREE ENERGY PREDICTED BY IDOCK:   -5.20 KCAL/MOL
REMARK 924 INTRA-LIGAND FREE ENERGY PREDICTED BY IDOCK:   -0.29 KCAL/MOL
REMARK 927      BINDING AFFINITY PREDICTED BY RF-SCORE:    0.00 PKD
ROOT
HETATM    1  O   UNL     1      -8.688   8.138  65.592  1.00  0.00    -0.161 OA 
HETATM    2  C   UNL     1      -9.641   8.629  66.179  1.00  0.00    -0.235 C  
ENDROOT
BRANCH   2   3
HETATM    3  O   UNL     1     -10.319   9.740  65.809  1.00  0.00    -0.209 OA 
BRANCH   3   4
HETATM    4  C   UNL     1      -9.964  10.298  64.536  1.00  0.00    -0.289 C  
BRANCH   4   5
HETATM    5  C   UNL     1     -10.537  11.688  64.449  1.00  0.00    -0.377 A  
HETATM    6  C   UNL     1     -10.670  13.973  65.261  1.00  0.00    -0.367 A  
HETATM    7  C   UNL     1     -11.671  14.251  64.332  1.00  0.00    -0.405 A  
HETATM    8  C   UNL     1     -10.107  12.698  65.322  1.00  0.00    -0.271 A  
HETATM    9  C   UNL     1     -12.108  13.255  63.460  1.00  0.00    -0.550 A  
HETATM   10  C   UNL     1     -11.546  11.979  63.519  1.00  0.00    -0.553 A  
ENDBRANCH   4   5
ENDBRANCH   3   4
ENDBRANCH   2   3
BRANCH   2  11
HETATM   11  C   UNL     1     -10.203   8.049  67.431  1.00  0.00    -0.330 A  
HETATM   12  C   UNL     1     -11.210   7.058  69.853  1.00  0.00    -0.286 A  
HETATM   13  C   UNL     1     -10.205   8.850  68.582  1.00  0.00    -0.221 A  
HETATM   14  C   UNL     1     -10.705   8.356  69.789  1.00  0.00    -0.211 A  
HETATM   15  C   UNL     1     -10.718   6.747  67.501  1.00  0.00    -0.381 A  
HETATM   16  C   UNL     1     -11.219   6.256  68.711  1.00  0.00    -0.357 A  
ENDBRANCH   2  11
TORSDOF 4
ENDMDL
MODEL      121
REMARK 921   NORMALIZED FREE ENERGY PREDICTED BY IDOCK:   -4.04 KCAL/MOL
REMARK 922        TOTAL FREE ENERGY PREDICTED BY IDOCK:   -5.49 KCAL/MOL
REMARK 923 INTER-LIGAND FREE ENERGY PREDICTED BY IDOCK:   -5.18 KCAL/MOL
REMARK 924 INTRA-LIGAND FREE ENERGY PREDICTED BY IDOCK:   -0.32 KCAL/MOL
REMARK 927      BINDING AFFINITY PREDICTED BY RF-SCORE:    0.00 PKD
ROOT
HETATM    1  O   UNL     1     -12.642  10.233  71.555  1.00  0.00    -0.374 OA 
HETATM    2  C   UNL     1     -12.523  11.165  70.772  1.00  0.00    -0.384 C  
ENDROOT
BRANCH   2   3
HETATM    3  O   UNL     1     -12.227  11.064  69.455  1.00  0.00    -0.336 OA 
BRANCH   3   4
HETATM    4  C   UNL     1     -11.134  10.197  69.120  1.00  0.00    -0.212 C  
BRANCH   4   5
HETATM    5  C   UNL     1     -10.037  11.029  68.509  1.00  0.00    -0.198 A  
HETATM    6  C   UNL     1      -9.255  13.118  67.549  1.00  0.00    -0.206 A  
HETATM    7  C   UNL     1      -8.010  12.544  67.298  1.00  0.00    -0.173 A  
HETATM    8  C   UNL     1     -10.265  12.365  68.150  1.00  0.00    -0.225 A  
HETATM    9  C   UNL     1      -7.773  11.216  67.650  1.00  0.00    -0.113 A  
HETATM   10  C   UNL     1      -8.780  10.461  68.251  1.00  0.00    -0.128 A  
ENDBRANCH   4   5
ENDBRANCH   3   4
ENDBRANCH   2   3
BRANCH   2  11
HETATM   11  C   UNL     1     -12.688  12.588  71.179  1.00  0.00    -0.340 A  
HETATM   12  C   UNL     1     -12.903  15.298  71.861  1.00  0.00    -0.447 A  
HETATM   13  C   UNL     1     -12.051  13.569  70.406  1.00  0.00    -0.415 A  
HETATM   14  C   UNL     1     -12.157  14.920  70.747  1.00  0.00    -0.377 A  
HETATM   15  C   UNL     1     -13.441  12.976  72.295  1.00  0.00    -0.645 A  
HETATM   16  C   UNL     1     -13.547  14.330  72.633  1.00  0.00    -0.601 A  
ENDBRANCH   2  11
TORSDOF 4
ENDMDL
MODEL      122
REMARK 921   NORMALIZED FREE ENERGY PREDICTED BY IDOCK:   -4.03 KCAL/MOL
REMARK 922        TOTAL FREE ENERGY PREDICTED BY IDOCK:   -5.48 KCAL/MOL
REMARK 923 INTER-LIGAND FREE ENERGY PREDICTED BY IDOCK:   -4.47 KCAL/MOL
REMARK 924 INTRA-LIGAND FREE ENERGY PREDICTED BY IDOCK:   -1.01 KCAL/MOL
REMARK 927      BINDING AFFINITY PREDICTED BY RF-SCORE:    0.00 PKD
ROOT
HETATM    1  O   UNL     1      -8.760   8.043  73.838  1.00  0.00    -0.266 OA 
HETATM    2  C   UNL     1      -9.181   8.409  72.750  1.00  0.00    -0.241 C  
ENDROOT
BRANCH   2   3
HETATM    3  O   UNL     1      -8.485   9.104  71.820  1.00  0.00    -0.340 OA 
BRANCH   3   4
HETATM    4  C   UNL     1      -8.042   8.356  70.678  1.00  0.00    -0.114 C  
BRANCH   4   5
HETATM    5  C   UNL     1      -8.896   8.742  69.497  1.00  0.00    -0.144 A  
HETATM    6  C   UNL     1     -10.040  10.430  68.180  1.00  0.00    -0.179 A  
HETATM    7  C   UNL     1     -10.552   9.440  67.344  1.00  0.00    -0.326 A  
HETATM    8  C   UNL     1      -9.217  10.084  69.253  1.00  0.00    -0.212 A  
HETATM    9  C   UNL     1     -10.240   8.101  67.578  1.00  0.00    -0.309 A  
HETATM   10  C   UNL     1      -9.418   7.753  68.650  1.00  0.00    -0.152 A  
ENDBRANCH   4   5
ENDBRANCH   3   4
ENDBRANCH   2   3
BRANCH   2  11
HETATM   11  C   UNL     1     -10.569   8.132  72.287  1.00  0.00    -0.378 A  
HETATM   12  C   UNL     1     -13.149   7.486  71.402  1.00  0.00    -0.373 A  
HETATM   13  C   UNL     1     -10.974   6.793  72.191  1.00  0.00    -0.270 A  
HETATM   14  C   UNL     1     -12.259   6.471  71.748  1.00  0.00    -0.374 A  
HETATM   15  C   UNL     1     -11.471   9.148  71.941  1.00  0.00    -0.423 A  
HETATM   16  C   UNL     1     -12.758   8.822  71.501  1.00  0.00    -0.372 A  
ENDBRANCH   2  11
TORSDOF 4
ENDMDL
MODEL      123
REMARK 921   NORMALIZED FREE ENERGY PREDICTED BY IDOCK:   -4.01 KCAL/MOL
REMARK 922        TOTAL FREE ENERGY PREDICTED BY IDOCK:   -5.45 KCAL/MOL
REMARK 923 INTER-LIGAND FREE ENERGY PREDICTED BY IDOCK:   -5.07 KCAL/MOL
REMARK 924 INTRA-LIGAND FREE ENERGY PREDICTED BY IDOCK:   -0.38 KCAL/MOL
REMARK 927      BINDING AFFINITY PREDICTED BY RF-SCORE:    0.00 PKD
ROOT
HETATM    1  O   UNL     1     -12.802  14.648  69.735  1.00  0.00    -0.121 OA 
HETATM    2  C   UNL     1     -11.948  13.792  69.550  1.00  0.00    -0.345 C  
ENDROOT
BRANCH   2   3
HETATM    3  O   UNL     1     -10.825  13.936  68.809  1.00  0.00    -0.252 OA 
BRANCH   3   4
HETATM    4  C   UNL     1      -9.852  14.861  69.315  1.00  0.00    -0.159 C  
BRANCH   4   5
HETATM    5  C   UNL     1      -9.816  16.059  68.403  1.00  0.00    -0.213 A  
HETATM    6  C   UNL     1     -10.546  18.305  67.836  1.00  0.00    -0.392 A  
HETATM    7  C   UNL     1      -9.805  18.254  66.657  1.00  0.00    -0.354 A  
HETATM    8  C   UNL     1     -10.554  17.213  68.705  1.00  0.00    -0.336 A  
HETATM    9  C   UNL     1      -9.068  17.112  66.346  1.00  0.00    -0.285 A  
HETATM   10  C   UNL     1      -9.075  16.019  67.213  1.00  0.00    -0.217 A  
ENDBRANCH   4   5
ENDBRANCH   3   4
ENDBRANCH   2   3
BRANCH   2  11
HETATM   11  C   UNL     1     -12.036  12.425  70.134  1.00  0.00    -0.376 A  
HETATM   12  C   UNL     1     -12.254   9.903  71.340  1.00  0.00    -0.499 A  
HETATM   13  C   UNL     1     -12.810  12.254  71.290  1.00  0.00    -0.337 A  
HETATM   14  C   UNL     1     -12.918  10.997  71.892  1.00  0.00    -0.485 A  
HETATM   15  C   UNL     1     -11.375  11.319  69.582  1.00  0.00    -0.359 A  
HETATM   16  C   UNL     1     -11.486  10.062  70.185  1.00  0.00    -0.344 A  
ENDBRANCH   2  11
TORSDOF 4
ENDMDL
MODEL      124
REMARK 921   NORMALIZED FREE ENERGY PREDICTED BY IDOCK:   -3.95 KCAL/MOL
REMARK 922        TOTAL FREE ENERGY PREDICTED BY IDOCK:   -5.38 KCAL/MOL
REMARK 923 INTER-LIGAND FREE ENERGY PREDICTED BY IDOCK:   -4.69 KCAL/MOL
REMARK 924 INTRA-LIGAND FREE ENERGY PREDICTED BY IDOCK:   -0.69 KCAL/MOL
REMARK 927      BINDING AFFINITY PREDICTED BY RF-SCORE:    0.00 PKD
ROOT
HETATM    1  O   UNL     1     -10.283  10.445  65.290  1.00  0.00    -0.299 OA 
HETATM    2  C   UNL     1      -9.975   9.865  66.321  1.00  0.00    -0.256 C  
ENDROOT
BRANCH   2   3
HETATM    3  O   UNL     1      -9.661  10.450  67.500  1.00  0.00    -0.165 OA 
BRANCH   3   4
HETATM    4  C   UNL     1     -10.671  11.295  68.071  1.00  0.00    -0.203 C  
BRANCH   4   5
HETATM    5  C   UNL     1     -11.166  10.652  69.341  1.00  0.00    -0.329 A  
HETATM    6  C   UNL     1     -12.887  10.363  71.029  1.00  0.00    -0.494 A  
HETATM    7  C   UNL     1     -12.048   9.514  71.748  1.00  0.00    -0.459 A  
HETATM    8  C   UNL     1     -12.449  10.932  69.832  1.00  0.00    -0.292 A  
HETATM    9  C   UNL     1     -10.770   9.230  71.269  1.00  0.00    -0.422 A  
HETATM   10  C   UNL     1     -10.329   9.797  70.073  1.00  0.00    -0.307 A  
ENDBRANCH   4   5
ENDBRANCH   3   4
ENDBRANCH   2   3
BRANCH   2  11
HETATM   11  C   UNL     1      -9.898   8.381  66.421  1.00  0.00    -0.310 A  
HETATM   12  C   UNL     1      -9.839   5.592  66.705  1.00  0.00    -0.191 A  
HETATM   13  C   UNL     1     -10.861   7.724  67.199  1.00  0.00    -0.227 A  
HETATM   14  C   UNL     1     -10.831   6.335  67.342  1.00  0.00    -0.448 A  
HETATM   15  C   UNL     1      -8.906   7.627  65.778  1.00  0.00    -0.134 A  
HETATM   16  C   UNL     1      -8.880   6.236  65.922  1.00  0.00    -0.148 A  
ENDBRANCH   2  11
TORSDOF 4
ENDMDL
MODEL      125
REMARK 921   NORMALIZED FREE ENERGY PREDICTED BY IDOCK:   -3.95 KCAL/MOL
REMARK 922        TOTAL FREE ENERGY PREDICTED BY IDOCK:   -5.38 KCAL/MOL
REMARK 923 INTER-LIGAND FREE ENERGY PREDICTED BY IDOCK:   -5.02 KCAL/MOL
REMARK 924 INTRA-LIGAND FREE ENERGY PREDICTED BY IDOCK:   -0.36 KCAL/MOL
REMARK 927      BINDING AFFINITY PREDICTED BY RF-SCORE:    0.00 PKD
ROOT
HETATM    1  O   UNL     1     -11.518  10.717  67.322  1.00  0.00    -0.412 OA 
HETATM    2  C   UNL     1     -11.718  11.384  68.326  1.00  0.00    -0.288 C  
ENDROOT
BRANCH   2   3
HETATM    3  O   UNL     1     -12.280  10.944  69.476  1.00  0.00    -0.336 OA 
BRANCH   3   4
HETATM    4  C   UNL     1     -11.368  10.554  70.513  1.00  0.00    -0.314 C  
BRANCH   4   5
HETATM    5  C   UNL     1     -11.439   9.058  70.671  1.00  0.00    -0.291 A  
HETATM    6  C   UNL     1     -10.883   6.823  69.899  1.00  0.00    -0.310 A  
HETATM    7  C   UNL     1     -11.645   6.272  70.927  1.00  0.00    -0.338 A  
HETATM    8  C   UNL     1     -10.781   8.209  69.769  1.00  0.00    -0.229 A  
HETATM    9  C   UNL     1     -12.303   7.106  71.830  1.00  0.00    -0.385 A  
HETATM   10  C   UNL     1     -12.203   8.491  71.702  1.00  0.00    -0.371 A  
ENDBRANCH   4   5
ENDBRANCH   3   4
ENDBRANCH   2   3
BRANCH   2  11
HETATM   11  C   UNL     1     -11.362  12.827  68.421  1.00  0.00    -0.331 A  
HETATM   12  C   UNL     1     -10.571  15.513  68.556  1.00  0.00    -0.246 A  
HETATM   13  C   UNL     1     -10.170  13.249  67.816  1.00  0.00    -0.228 A  
HETATM   14  C   UNL     1      -9.775  14.588  67.884  1.00  0.00    -0.218 A  
HETATM   15  C   UNL     1     -12.160  13.765  69.091  1.00  0.00    -0.374 A  
HETATM   16  C   UNL     1     -11.763  15.104  69.156  1.00  0.00    -0.349 A  
ENDBRANCH   2  11
TORSDOF 4
ENDMDL
MODEL      126
REMARK 921   NORMALIZED FREE ENERGY PREDICTED BY IDOCK:   -3.91 KCAL/MOL
REMARK 922        TOTAL FREE ENERGY PREDICTED BY IDOCK:   -5.33 KCAL/MOL
REMARK 923 INTER-LIGAND FREE ENERGY PREDICTED BY IDOCK:   -4.98 KCAL/MOL
REMARK 924 INTRA-LIGAND FREE ENERGY PREDICTED BY IDOCK:   -0.35 KCAL/MOL
REMARK 927      BINDING AFFINITY PREDICTED BY RF-SCORE:    0.00 PKD
ROOT
HETATM    1  O   UNL     1     -11.250  10.478  68.274  1.00  0.00    -0.278 OA 
HETATM    2  C   UNL     1     -10.694   9.637  67.584  1.00  0.00    -0.262 C  
ENDROOT
BRANCH   2   3
HETATM    3  O   UNL     1     -10.118   9.851  66.378  1.00  0.00    -0.228 OA 
BRANCH   3   4
HETATM    4  C   UNL     1      -9.454  11.112  66.213  1.00  0.00    -0.196 C  
BRANCH   4   5
HETATM    5  C   UNL     1     -10.341  12.013  65.394  1.00  0.00    -0.301 A  
HETATM    6  C   UNL     1     -11.935  12.335  63.591  1.00  0.00    -0.633 A  
HETATM    7  C   UNL     1     -11.926  13.710  63.820  1.00  0.00    -0.425 A  
HETATM    8  C   UNL     1     -11.145  11.490  64.371  1.00  0.00    -0.359 A  
HETATM    9  C   UNL     1     -11.129  14.241  64.834  1.00  0.00    -0.396 A  
HETATM   10  C   UNL     1     -10.339  13.398  65.615  1.00  0.00    -0.295 A  
ENDBRANCH   4   5
ENDBRANCH   3   4
ENDBRANCH   2   3
BRANCH   2  11
HETATM   11  C   UNL     1     -10.575   8.209  67.990  1.00  0.00    -0.188 A  
HETATM   12  C   UNL     1     -10.377   5.487  68.631  1.00  0.00    -0.255 A  
HETATM   13  C   UNL     1     -10.493   7.243  66.977  1.00  0.00    -0.398 A  
HETATM   14  C   UNL     1     -10.395   5.887  67.296  1.00  0.00    -0.279 A  
HETATM   15  C   UNL     1     -10.551   7.800  69.330  1.00  0.00    -0.211 A  
HETATM   16  C   UNL     1     -10.451   6.441  69.647  1.00  0.00    -0.278 A  
ENDBRANCH   2  11
TORSDOF 4
ENDMDL
MODEL      127
REMARK 921   NORMALIZED FREE ENERGY PREDICTED BY IDOCK:   -3.91 KCAL/MOL
REMARK 922        TOTAL FREE ENERGY PREDICTED BY IDOCK:   -5.33 KCAL/MOL
REMARK 923 INTER-LIGAND FREE ENERGY PREDICTED BY IDOCK:   -4.97 KCAL/MOL
REMARK 924 INTRA-LIGAND FREE ENERGY PREDICTED BY IDOCK:   -0.36 KCAL/MOL
REMARK 927      BINDING AFFINITY PREDICTED BY RF-SCORE:    0.00 PKD
ROOT
HETATM    1  O   UNL     1      -9.570   7.600  68.182  1.00  0.00    -0.146 OA 
HETATM    2  C   UNL     1      -9.908   8.642  67.638  1.00  0.00    -0.180 C  
ENDROOT
BRANCH   2   3
HETATM    3  O   UNL     1     -10.656   9.623  68.194  1.00  0.00    -0.211 OA 
BRANCH   3   4
HETATM    4  C   UNL     1     -10.246  10.066  69.496  1.00  0.00    -0.234 C  
BRANCH   4   5
HETATM    5  C   UNL     1     -11.387   9.843  70.454  1.00  0.00    -0.376 A  
HETATM    6  C   UNL     1     -13.228  10.704  71.784  1.00  0.00    -0.526 A  
HETATM    7  C   UNL     1     -13.456   9.431  72.303  1.00  0.00    -0.539 A  
HETATM    8  C   UNL     1     -12.197  10.911  70.865  1.00  0.00    -0.485 A  
HETATM    9  C   UNL     1     -12.656   8.362  71.901  1.00  0.00    -0.389 A  
HETATM   10  C   UNL     1     -11.625   8.566  70.984  1.00  0.00    -0.317 A  
ENDBRANCH   4   5
ENDBRANCH   3   4
ENDBRANCH   2   3
BRANCH   2  11
HETATM   11  C   UNL     1      -9.531   8.981  66.238  1.00  0.00    -0.306 A  
HETATM   12  C   UNL     1      -8.721   9.535  63.612  1.00  0.00    -0.239 A  
HETATM   13  C   UNL     1      -8.583   8.168  65.599  1.00  0.00    -0.181 A  
HETATM   14  C   UNL     1      -8.179   8.445  64.290  1.00  0.00    -0.130 A  
HETATM   15  C   UNL     1     -10.075  10.072  65.547  1.00  0.00    -0.325 A  
HETATM   16  C   UNL     1      -9.670  10.346  64.237  1.00  0.00    -0.389 A  
ENDBRANCH   2  11
TORSDOF 4
ENDMDL
MODEL      128
REMARK 921   NORMALIZED FREE ENERGY PREDICTED BY IDOCK:   -3.90 KCAL/MOL
REMARK 922        TOTAL FREE ENERGY PREDICTED BY IDOCK:   -5.32 KCAL/MOL
REMARK 923 INTER-LIGAND FREE ENERGY PREDICTED BY IDOCK:   -4.97 KCAL/MOL
REMARK 924 INTRA-LIGAND FREE ENERGY PREDICTED BY IDOCK:   -0.35 KCAL/MOL
REMARK 927      BINDING AFFINITY PREDICTED BY RF-SCORE:    0.00 PKD
ROOT
HETATM    1  O   UNL     1      -9.003  11.559  68.793  1.00  0.00    -0.143 OA 
HETATM    2  C   UNL     1      -9.974  10.832  68.644  1.00  0.00    -0.182 C  
ENDROOT
BRANCH   2   3
HETATM    3  O   UNL     1     -10.302  10.164  67.514  1.00  0.00    -0.200 OA 
BRANCH   3   4
HETATM    4  C   UNL     1     -10.943  10.937  66.489  1.00  0.00    -0.121 C  
BRANCH   4   5
HETATM    5  C   UNL     1     -10.158  10.779  65.213  1.00  0.00    -0.353 A  
HETATM    6  C   UNL     1      -9.525  11.581  63.010  1.00  0.00    -0.346 A  
HETATM    7  C   UNL     1      -8.758  10.435  62.807  1.00  0.00    -0.222 A  
HETATM    8  C   UNL     1     -10.224  11.753  64.206  1.00  0.00    -0.344 A  
HETATM    9  C   UNL     1      -8.686   9.461  63.802  1.00  0.00    -0.223 A  
HETATM   10  C   UNL     1      -9.384   9.630  64.997  1.00  0.00    -0.319 A  
ENDBRANCH   4   5
ENDBRANCH   3   4
ENDBRANCH   2   3
BRANCH   2  11
HETATM   11  C   UNL     1     -10.965  10.578  69.725  1.00  0.00    -0.350 A  
HETATM   12  C   UNL     1     -12.798   9.974  71.760  1.00  0.00    -0.546 A  
HETATM   13  C   UNL     1     -10.917   9.340  70.382  1.00  0.00    -0.302 A  
HETATM   14  C   UNL     1     -11.831   9.038  71.395  1.00  0.00    -0.395 A  
HETATM   15  C   UNL     1     -11.937  11.515  70.101  1.00  0.00    -0.452 A  
HETATM   16  C   UNL     1     -12.850  11.211  71.116  1.00  0.00    -0.473 A  
ENDBRANCH   2  11
TORSDOF 4
ENDMDL
MODEL      129
REMARK 921   NORMALIZED FREE ENERGY PREDICTED BY IDOCK:   -3.89 KCAL/MOL
REMARK 922        TOTAL FREE ENERGY PREDICTED BY IDOCK:   -5.31 KCAL/MOL
REMARK 923 INTER-LIGAND FREE ENERGY PREDICTED BY IDOCK:   -4.37 KCAL/MOL
REMARK 924 INTRA-LIGAND FREE ENERGY PREDICTED BY IDOCK:   -0.93 KCAL/MOL
REMARK 927      BINDING AFFINITY PREDICTED BY RF-SCORE:    0.00 PKD
ROOT
HETATM    1  O   UNL     1      -8.762   6.846  68.159  1.00  0.00    -0.126 OA 
HETATM    2  C   UNL     1      -9.791   7.461  68.398  1.00  0.00    -0.158 C  
ENDROOT
BRANCH   2   3
HETATM    3  O   UNL     1     -10.616   8.018  67.481  1.00  0.00    -0.259 OA 
BRANCH   3   4
HETATM    4  C   UNL     1     -10.026   9.000  66.618  1.00  0.00    -0.278 C  
BRANCH   4   5
HETATM    5  C   UNL     1     -10.128  10.345  67.289  1.00  0.00    -0.244 A  
HETATM    6  C   UNL     1      -9.079  12.348  68.176  1.00  0.00    -0.200 A  
HETATM    7  C   UNL     1     -10.319  12.811  68.613  1.00  0.00    -0.194 A  
HETATM    8  C   UNL     1      -8.982  11.120  67.519  1.00  0.00    -0.139 A  
HETATM    9  C   UNL     1     -11.464  12.048  68.390  1.00  0.00    -0.356 A  
HETATM   10  C   UNL     1     -11.370  10.821  67.734  1.00  0.00    -0.354 A  
ENDBRANCH   4   5
ENDBRANCH   3   4
ENDBRANCH   2   3
BRANCH   2  11
HETATM   11  C   UNL     1     -10.291   7.691  69.781  1.00  0.00    -0.223 A  
HETATM   12  C   UNL     1     -11.329   8.044  72.362  1.00  0.00    -0.443 A  
HETATM   13  C   UNL     1     -11.287   6.835  70.271  1.00  0.00    -0.404 A  
HETATM   14  C   UNL     1     -11.805   7.011  71.556  1.00  0.00    -0.351 A  
HETATM   15  C   UNL     1      -9.813   8.725  70.599  1.00  0.00    -0.237 A  
HETATM   16  C   UNL     1     -10.333   8.898  71.886  1.00  0.00    -0.407 A  
ENDBRANCH   2  11
TORSDOF 4
ENDMDL
MODEL      130
REMARK 921   NORMALIZED FREE ENERGY PREDICTED BY IDOCK:   -3.89 KCAL/MOL
REMARK 922        TOTAL FREE ENERGY PREDICTED BY IDOCK:   -5.30 KCAL/MOL
REMARK 923 INTER-LIGAND FREE ENERGY PREDICTED BY IDOCK:   -4.98 KCAL/MOL
REMARK 924 INTRA-LIGAND FREE ENERGY PREDICTED BY IDOCK:   -0.32 KCAL/MOL
REMARK 927      BINDING AFFINITY PREDICTED BY RF-SCORE:    0.00 PKD
ROOT
HETATM    1  O   UNL     1     -10.171   9.034  72.007  1.00  0.00    -0.339 OA 
HETATM    2  C   UNL     1     -10.045   9.024  70.791  1.00  0.00    -0.241 C  
ENDROOT
BRANCH   2   3
HETATM    3  O   UNL     1      -9.974  10.111  69.989  1.00  0.00    -0.240 OA 
BRANCH   3   4
HETATM    4  C   UNL     1     -11.181  10.466  69.301  1.00  0.00    -0.248 C  
BRANCH   4   5
HETATM    5  C   UNL     1     -11.842  11.594  70.049  1.00  0.00    -0.435 A  
HETATM    6  C   UNL     1     -12.264  13.966  70.353  1.00  0.00    -0.438 A  
HETATM    7  C   UNL     1     -13.009  13.693  71.499  1.00  0.00    -0.443 A  
HETATM    8  C   UNL     1     -11.681  12.923  69.632  1.00  0.00    -0.367 A  
HETATM    9  C   UNL     1     -13.175  12.376  71.923  1.00  0.00    -0.486 A  
HETATM   10  C   UNL     1     -12.593  11.331  71.204  1.00  0.00    -0.501 A  
ENDBRANCH   4   5
ENDBRANCH   3   4
ENDBRANCH   2   3
BRANCH   2  11
HETATM   11  C   UNL     1      -9.956   7.765  70.000  1.00  0.00    -0.187 A  
HETATM   12  C   UNL     1      -9.868   5.341  68.595  1.00  0.00    -0.216 A  
HETATM   13  C   UNL     1     -10.870   6.742  70.288  1.00  0.00    -0.314 A  
HETATM   14  C   UNL     1     -10.826   5.534  69.589  1.00  0.00    -0.279 A  
HETATM   15  C   UNL     1      -8.999   7.566  68.995  1.00  0.00    -0.131 A  
HETATM   16  C   UNL     1      -8.958   6.355  68.296  1.00  0.00    -0.116 A  
ENDBRANCH   2  11
TORSDOF 4
ENDMDL
MODEL      131
REMARK 921   NORMALIZED FREE ENERGY PREDICTED BY IDOCK:   -3.88 KCAL/MOL
REMARK 922        TOTAL FREE ENERGY PREDICTED BY IDOCK:   -5.30 KCAL/MOL
REMARK 923 INTER-LIGAND FREE ENERGY PREDICTED BY IDOCK:   -4.92 KCAL/MOL
REMARK 924 INTRA-LIGAND FREE ENERGY PREDICTED BY IDOCK:   -0.38 KCAL/MOL
REMARK 927      BINDING AFFINITY PREDICTED BY RF-SCORE:    0.00 PKD
ROOT
HETATM    1  O   UNL     1     -12.182  14.344  67.623  1.00  0.00    -0.328 OA 
HETATM    2  C   UNL     1     -11.297  13.915  66.896  1.00  0.00    -0.328 C  
ENDROOT
BRANCH   2   3
HETATM    3  O   UNL     1     -10.531  14.649  66.056  1.00  0.00    -0.284 OA 
BRANCH   3   4
HETATM    4  C   UNL     1     -11.086  15.902  65.633  1.00  0.00    -0.108 C  
BRANCH   4   5
HETATM    5  C   UNL     1     -10.090  16.991  65.940  1.00  0.00    -0.281 A  
HETATM    6  C   UNL     1      -7.849  17.690  66.560  1.00  0.00    -0.307 A  
HETATM    7  C   UNL     1      -8.266  19.019  66.590  1.00  0.00    -0.301 A  
HETATM    8  C   UNL     1      -8.757  16.679  66.239  1.00  0.00    -0.359 A  
HETATM    9  C   UNL     1      -9.590  19.341  66.294  1.00  0.00    -0.411 A  
HETATM   10  C   UNL     1     -10.499  18.332  65.973  1.00  0.00    -0.380 A  
ENDBRANCH   4   5
ENDBRANCH   3   4
ENDBRANCH   2   3
BRANCH   2  11
HETATM   11  C   UNL     1     -10.934  12.472  66.832  1.00  0.00    -0.296 A  
HETATM   12  C   UNL     1     -10.206   9.775  66.591  1.00  0.00    -0.296 A  
HETATM   13  C   UNL     1     -10.131  12.044  65.765  1.00  0.00    -0.267 A  
HETATM   14  C   UNL     1      -9.770  10.700  65.644  1.00  0.00    -0.283 A  
HETATM   15  C   UNL     1     -11.364  11.537  67.784  1.00  0.00    -0.364 A  
HETATM   16  C   UNL     1     -10.999  10.192  67.661  1.00  0.00    -0.331 A  
ENDBRANCH   2  11
TORSDOF 4
ENDMDL
MODEL      132
REMARK 921   NORMALIZED FREE ENERGY PREDICTED BY IDOCK:   -3.88 KCAL/MOL
REMARK 922        TOTAL FREE ENERGY PREDICTED BY IDOCK:   -5.30 KCAL/MOL
REMARK 923 INTER-LIGAND FREE ENERGY PREDICTED BY IDOCK:   -4.39 KCAL/MOL
REMARK 924 INTRA-LIGAND FREE ENERGY PREDICTED BY IDOCK:   -0.91 KCAL/MOL
REMARK 927      BINDING AFFINITY PREDICTED BY RF-SCORE:    0.00 PKD
ROOT
HETATM    1  O   UNL     1      -9.310   7.181  73.673  1.00  0.00    -0.172 OA 
HETATM    2  C   UNL     1      -9.430   7.356  72.469  1.00  0.00    -0.152 C  
ENDROOT
BRANCH   2   3
HETATM    3  O   UNL     1      -8.670   6.791  71.502  1.00  0.00    -0.127 OA 
BRANCH   3   4
HETATM    4  C   UNL     1      -9.276   5.713  70.775  1.00  0.00    -0.151 C  
BRANCH   4   5
HETATM    5  C   UNL     1      -9.500   6.164  69.355  1.00  0.00    -0.153 A  
HETATM    6  C   UNL     1     -10.958   6.453  67.435  1.00  0.00    -0.463 A  
HETATM    7  C   UNL     1      -9.885   6.930  66.684  1.00  0.00    -0.217 A  
HETATM    8  C   UNL     1     -10.767   6.069  68.764  1.00  0.00    -0.375 A  
HETATM    9  C   UNL     1      -8.620   7.028  67.262  1.00  0.00    -0.121 A  
HETATM   10  C   UNL     1      -8.427   6.645  68.589  1.00  0.00    -0.122 A  
ENDBRANCH   4   5
ENDBRANCH   3   4
ENDBRANCH   2   3
BRANCH   2  11
HETATM   11  C   UNL     1     -10.466   8.252  71.883  1.00  0.00    -0.342 A  
HETATM   12  C   UNL     1     -12.321  10.015  70.738  1.00  0.00    -0.396 A  
HETATM   13  C   UNL     1     -10.043   9.253  70.998  1.00  0.00    -0.373 A  
HETATM   14  C   UNL     1     -10.967  10.133  70.429  1.00  0.00    -0.386 A  
HETATM   15  C   UNL     1     -11.830   8.136  72.186  1.00  0.00    -0.417 A  
HETATM   16  C   UNL     1     -12.753   9.017  71.613  1.00  0.00    -0.421 A  
ENDBRANCH   2  11
TORSDOF 4
ENDMDL
MODEL      133
REMARK 921   NORMALIZED FREE ENERGY PREDICTED BY IDOCK:   -3.88 KCAL/MOL
REMARK 922        TOTAL FREE ENERGY PREDICTED BY IDOCK:   -5.30 KCAL/MOL
REMARK 923 INTER-LIGAND FREE ENERGY PREDICTED BY IDOCK:   -4.78 KCAL/MOL
REMARK 924 INTRA-LIGAND FREE ENERGY PREDICTED BY IDOCK:   -0.51 KCAL/MOL
REMARK 927      BINDING AFFINITY PREDICTED BY RF-SCORE:    0.00 PKD
ROOT
HETATM    1  O   UNL     1      -9.341   4.286  69.584  1.00  0.00    -0.130 OA 
HETATM    2  C   UNL     1      -9.830   4.888  70.529  1.00  0.00    -0.227 C  
ENDROOT
BRANCH   2   3
HETATM    3  O   UNL     1     -10.202   6.189  70.537  1.00  0.00    -0.186 OA 
BRANCH   3   4
HETATM    4  C   UNL     1     -11.476   6.482  69.947  1.00  0.00    -0.403 C  
BRANCH   4   5
HETATM    5  C   UNL     1     -12.133   7.574  70.750  1.00  0.00    -0.190 A  
HETATM    6  C   UNL     1     -14.008   8.402  72.052  1.00  0.00    -0.468 A  
HETATM    7  C   UNL     1     -13.383   9.642  72.175  1.00  0.00    -0.545 A  
HETATM    8  C   UNL     1     -13.389   7.373  71.342  1.00  0.00    -0.398 A  
HETATM    9  C   UNL     1     -12.136   9.853  71.591  1.00  0.00    -0.457 A  
HETATM   10  C   UNL     1     -11.514   8.826  70.880  1.00  0.00    -0.330 A  
ENDBRANCH   4   5
ENDBRANCH   3   4
ENDBRANCH   2   3
BRANCH   2  11
HETATM   11  C   UNL     1     -10.087   4.247  71.849  1.00  0.00    -0.237 A  
HETATM   12  C   UNL     1     -10.564   2.925  74.275  1.00  0.00    -0.233 A  
HETATM   13  C   UNL     1      -9.891   2.863  71.955  1.00  0.00    -0.242 A  
HETATM   14  C   UNL     1     -10.130   2.204  73.164  1.00  0.00    -0.186 A  
HETATM   15  C   UNL     1     -10.518   4.967  72.972  1.00  0.00    -0.251 A  
HETATM   16  C   UNL     1     -10.755   4.304  74.181  1.00  0.00    -0.303 A  
ENDBRANCH   2  11
TORSDOF 4
ENDMDL
MODEL      134
REMARK 921   NORMALIZED FREE ENERGY PREDICTED BY IDOCK:   -3.87 KCAL/MOL
REMARK 922        TOTAL FREE ENERGY PREDICTED BY IDOCK:   -5.29 KCAL/MOL
REMARK 923 INTER-LIGAND FREE ENERGY PREDICTED BY IDOCK:   -4.83 KCAL/MOL
REMARK 924 INTRA-LIGAND FREE ENERGY PREDICTED BY IDOCK:   -0.46 KCAL/MOL
REMARK 927      BINDING AFFINITY PREDICTED BY RF-SCORE:    0.00 PKD
ROOT
HETATM    1  O   UNL     1     -11.127   6.819  68.690  1.00  0.00    -0.219 OA 
HETATM    2  C   UNL     1     -10.166   7.574  68.647  1.00  0.00    -0.197 C  
ENDROOT
BRANCH   2   3
HETATM    3  O   UNL     1      -9.366   7.905  69.686  1.00  0.00    -0.153 OA 
BRANCH   3   4
HETATM    4  C   UNL     1      -9.454   9.263  70.141  1.00  0.00    -0.226 C  
BRANCH   4   5
HETATM    5  C   UNL     1     -10.779   9.448  70.833  1.00  0.00    -0.393 A  
HETATM    6  C   UNL     1     -12.446   8.708  72.437  1.00  0.00    -0.428 A  
HETATM    7  C   UNL     1     -13.283   9.755  72.059  1.00  0.00    -0.557 A  
HETATM    8  C   UNL     1     -11.200   8.552  71.826  1.00  0.00    -0.379 A  
HETATM    9  C   UNL     1     -12.875  10.652  71.072  1.00  0.00    -0.496 A  
HETATM   10  C   UNL     1     -11.631  10.498  70.460  1.00  0.00    -0.441 A  
ENDBRANCH   4   5
ENDBRANCH   3   4
ENDBRANCH   2   3
BRANCH   2  11
HETATM   11  C   UNL     1      -9.735   8.260  67.397  1.00  0.00    -0.225 A  
HETATM   12  C   UNL     1      -9.040   9.610  65.040  1.00  0.00    -0.284 A  
HETATM   13  C   UNL     1     -10.531   9.310  66.917  1.00  0.00    -0.284 A  
HETATM   14  C   UNL     1     -10.186   9.982  65.742  1.00  0.00    -0.270 A  
HETATM   15  C   UNL     1      -8.582   7.896  66.689  1.00  0.00    -0.138 A  
HETATM   16  C   UNL     1      -8.238   8.571  65.514  1.00  0.00    -0.138 A  
ENDBRANCH   2  11
TORSDOF 4
ENDMDL
MODEL      135
REMARK 921   NORMALIZED FREE ENERGY PREDICTED BY IDOCK:   -3.86 KCAL/MOL
REMARK 922        TOTAL FREE ENERGY PREDICTED BY IDOCK:   -5.27 KCAL/MOL
REMARK 923 INTER-LIGAND FREE ENERGY PREDICTED BY IDOCK:   -4.80 KCAL/MOL
REMARK 924 INTRA-LIGAND FREE ENERGY PREDICTED BY IDOCK:   -0.47 KCAL/MOL
REMARK 927      BINDING AFFINITY PREDICTED BY RF-SCORE:    0.00 PKD
ROOT
HETATM    1  O   UNL     1      -8.525   8.410  65.108  1.00  0.00    -0.168 OA 
HETATM    2  C   UNL     1      -9.490   8.841  65.721  1.00  0.00    -0.169 C  
ENDROOT
BRANCH   2   3
HETATM    3  O   UNL     1     -10.216   9.936  65.395  1.00  0.00    -0.273 OA 
BRANCH   3   4
HETATM    4  C   UNL     1      -9.497  11.177  65.351  1.00  0.00    -0.222 C  
BRANCH   4   5
HETATM    5  C   UNL     1     -10.375  12.256  65.928  1.00  0.00    -0.280 A  
HETATM    6  C   UNL     1     -12.469  13.486  65.957  1.00  0.00    -0.456 A  
HETATM    7  C   UNL     1     -11.971  14.322  66.954  1.00  0.00    -0.467 A  
HETATM    8  C   UNL     1     -11.675  12.459  65.443  1.00  0.00    -0.452 A  
HETATM    9  C   UNL     1     -10.680  14.130  67.443  1.00  0.00    -0.284 A  
HETATM   10  C   UNL     1      -9.884  13.105  66.932  1.00  0.00    -0.249 A  
ENDBRANCH   4   5
ENDBRANCH   3   4
ENDBRANCH   2   3
BRANCH   2  11
HETATM   11  C   UNL     1     -10.014   8.198  66.958  1.00  0.00    -0.329 A  
HETATM   12  C   UNL     1     -10.952   7.087  69.354  1.00  0.00    -0.232 A  
HETATM   13  C   UNL     1     -10.029   8.957  68.136  1.00  0.00    -0.208 A  
HETATM   14  C   UNL     1     -10.495   8.403  69.331  1.00  0.00    -0.222 A  
HETATM   15  C   UNL     1     -10.481   6.876  66.988  1.00  0.00    -0.374 A  
HETATM   16  C   UNL     1     -10.948   6.325  68.185  1.00  0.00    -0.412 A  
ENDBRANCH   2  11
TORSDOF 4
ENDMDL
MODEL      136
REMARK 921   NORMALIZED FREE ENERGY PREDICTED BY IDOCK:   -3.85 KCAL/MOL
REMARK 922        TOTAL FREE ENERGY PREDICTED BY IDOCK:   -5.25 KCAL/MOL
REMARK 923 INTER-LIGAND FREE ENERGY PREDICTED BY IDOCK:   -4.72 KCAL/MOL
REMARK 924 INTRA-LIGAND FREE ENERGY PREDICTED BY IDOCK:   -0.54 KCAL/MOL
REMARK 927      BINDING AFFINITY PREDICTED BY RF-SCORE:    0.00 PKD
ROOT
HETATM    1  O   UNL     1      -9.154   8.432  69.739  1.00  0.00    -0.150 OA 
HETATM    2  C   UNL     1      -9.760   8.438  70.801  1.00  0.00    -0.176 C  
ENDROOT
BRANCH   2   3
HETATM    3  O   UNL     1      -9.472   7.681  71.886  1.00  0.00    -0.142 OA 
BRANCH   3   4
HETATM    4  C   UNL     1      -8.705   6.494  71.639  1.00  0.00    -0.132 C  
BRANCH   4   5
HETATM    5  C   UNL     1      -9.462   5.315  72.193  1.00  0.00    -0.168 A  
HETATM    6  C   UNL     1     -11.238   4.406  73.577  1.00  0.00    -0.375 A  
HETATM    7  C   UNL     1     -10.813   3.112  73.283  1.00  0.00    -0.283 A  
HETATM    8  C   UNL     1     -10.565   5.503  73.037  1.00  0.00    -0.274 A  
HETATM    9  C   UNL     1      -9.717   2.913  72.445  1.00  0.00    -0.217 A  
HETATM   10  C   UNL     1      -9.042   4.008  71.904  1.00  0.00    -0.167 A  
ENDBRANCH   4   5
ENDBRANCH   3   4
ENDBRANCH   2   3
BRANCH   2  11
HETATM   11  C   UNL     1     -10.942   9.308  71.052  1.00  0.00    -0.390 A  
HETATM   12  C   UNL     1     -13.225  10.847  71.582  1.00  0.00    -0.471 A  
HETATM   13  C   UNL     1     -11.923   8.844  71.939  1.00  0.00    -0.441 A  
HETATM   14  C   UNL     1     -13.061   9.609  72.202  1.00  0.00    -0.520 A  
HETATM   15  C   UNL     1     -11.111  10.556  70.436  1.00  0.00    -0.321 A  
HETATM   16  C   UNL     1     -12.250  11.321  70.702  1.00  0.00    -0.489 A  
ENDBRANCH   2  11
TORSDOF 4
ENDMDL
MODEL      137
REMARK 921   NORMALIZED FREE ENERGY PREDICTED BY IDOCK:   -3.84 KCAL/MOL
REMARK 922        TOTAL FREE ENERGY PREDICTED BY IDOCK:   -5.24 KCAL/MOL
REMARK 923 INTER-LIGAND FREE ENERGY PREDICTED BY IDOCK:   -4.42 KCAL/MOL
REMARK 924 INTRA-LIGAND FREE ENERGY PREDICTED BY IDOCK:   -0.82 KCAL/MOL
REMARK 927      BINDING AFFINITY PREDICTED BY RF-SCORE:    0.00 PKD
ROOT
HETATM    1  O   UNL     1     -11.887  11.434  69.018  1.00  0.00    -0.306 OA 
HETATM    2  C   UNL     1     -11.215  10.528  69.489  1.00  0.00    -0.271 C  
ENDROOT
BRANCH   2   3
HETATM    3  O   UNL     1     -11.124  10.201  70.799  1.00  0.00    -0.322 OA 
BRANCH   3   4
HETATM    4  C   UNL     1     -12.212   9.432  71.332  1.00  0.00    -0.356 C  
BRANCH   4   5
HETATM    5  C   UNL     1     -11.704   8.051  71.655  1.00  0.00    -0.325 A  
HETATM    6  C   UNL     1     -10.633   6.499  73.184  1.00  0.00    -0.290 A  
HETATM    7  C   UNL     1     -10.688   5.498  72.217  1.00  0.00    -0.285 A  
HETATM    8  C   UNL     1     -11.136   7.770  72.906  1.00  0.00    -0.457 A  
HETATM    9  C   UNL     1     -11.251   5.766  70.969  1.00  0.00    -0.208 A  
HETATM   10  C   UNL     1     -11.754   7.036  70.688  1.00  0.00    -0.384 A  
ENDBRANCH   4   5
ENDBRANCH   3   4
ENDBRANCH   2   3
BRANCH   2  11
HETATM   11  C   UNL     1     -10.371   9.631  68.652  1.00  0.00    -0.226 A  
HETATM   12  C   UNL     1      -8.687   7.951  67.167  1.00  0.00    -0.133 A  
HETATM   13  C   UNL     1      -9.207   9.100  69.227  1.00  0.00    -0.146 A  
HETATM   14  C   UNL     1      -8.367   8.264  68.487  1.00  0.00    -0.129 A  
HETATM   15  C   UNL     1     -10.689   9.307  67.326  1.00  0.00    -0.244 A  
HETATM   16  C   UNL     1      -9.847   8.468  66.588  1.00  0.00    -0.342 A  
ENDBRANCH   2  11
TORSDOF 4
ENDMDL
MODEL      138
REMARK 921   NORMALIZED FREE ENERGY PREDICTED BY IDOCK:   -3.82 KCAL/MOL
REMARK 922        TOTAL FREE ENERGY PREDICTED BY IDOCK:   -5.23 KCAL/MOL
REMARK 923 INTER-LIGAND FREE ENERGY PREDICTED BY IDOCK:   -4.61 KCAL/MOL
REMARK 924 INTRA-LIGAND FREE ENERGY PREDICTED BY IDOCK:   -0.62 KCAL/MOL
REMARK 927      BINDING AFFINITY PREDICTED BY RF-SCORE:    0.00 PKD
ROOT
HETATM    1  O   UNL     1     -12.582  13.615  69.752  1.00  0.00    -0.201 OA 
HETATM    2  C   UNL     1     -12.021  12.652  69.250  1.00  0.00    -0.246 C  
ENDROOT
BRANCH   2   3
HETATM    3  O   UNL     1     -11.550  12.576  67.984  1.00  0.00    -0.300 OA 
BRANCH   3   4
HETATM    4  C   UNL     1     -11.113  13.811  67.400  1.00  0.00    -0.296 C  
BRANCH   4   5
HETATM    5  C   UNL     1      -9.691  14.063  67.829  1.00  0.00    -0.228 A  
HETATM    6  C   UNL     1      -7.336  13.468  67.792  1.00  0.00    -0.166 A  
HETATM    7  C   UNL     1      -7.058  14.491  68.698  1.00  0.00    -0.113 A  
HETATM    8  C   UNL     1      -8.646  13.253  67.361  1.00  0.00    -0.204 A  
HETATM    9  C   UNL     1      -8.089  15.302  69.170  1.00  0.00    -0.228 A  
HETATM   10  C   UNL     1      -9.399  15.089  68.741  1.00  0.00    -0.200 A  
ENDBRANCH   4   5
ENDBRANCH   3   4
ENDBRANCH   2   3
BRANCH   2  11
HETATM   11  C   UNL     1     -11.776  11.384  69.992  1.00  0.00    -0.416 A  
HETATM   12  C   UNL     1     -11.403   9.035  71.476  1.00  0.00    -0.416 A  
HETATM   13  C   UNL     1     -12.667  11.042  71.019  1.00  0.00    -0.485 A  
HETATM   14  C   UNL     1     -12.480   9.872  71.760  1.00  0.00    -0.487 A  
HETATM   15  C   UNL     1     -10.698  10.534  69.709  1.00  0.00    -0.314 A  
HETATM   16  C   UNL     1     -10.515   9.363  70.451  1.00  0.00    -0.311 A  
ENDBRANCH   2  11
TORSDOF 4
ENDMDL
MODEL      139
REMARK 921   NORMALIZED FREE ENERGY PREDICTED BY IDOCK:   -3.82 KCAL/MOL
REMARK 922        TOTAL FREE ENERGY PREDICTED BY IDOCK:   -5.22 KCAL/MOL
REMARK 923 INTER-LIGAND FREE ENERGY PREDICTED BY IDOCK:   -4.94 KCAL/MOL
REMARK 924 INTRA-LIGAND FREE ENERGY PREDICTED BY IDOCK:   -0.28 KCAL/MOL
REMARK 927      BINDING AFFINITY PREDICTED BY RF-SCORE:    0.00 PKD
ROOT
HETATM    1  O   UNL     1      -9.317   8.447  70.184  1.00  0.00    -0.160 OA 
HETATM    2  C   UNL     1     -10.507   8.265  70.395  1.00  0.00    -0.215 C  
ENDROOT
BRANCH   2   3
HETATM    3  O   UNL     1     -11.168   7.091  70.266  1.00  0.00    -0.275 OA 
BRANCH   3   4
HETATM    4  C   UNL     1     -10.556   5.953  70.891  1.00  0.00    -0.256 C  
BRANCH   4   5
HETATM    5  C   UNL     1     -10.096   5.008  69.811  1.00  0.00    -0.337 A  
HETATM    6  C   UNL     1      -9.770   4.481  67.464  1.00  0.00    -0.213 A  
HETATM    7  C   UNL     1      -9.313   3.210  67.806  1.00  0.00    -0.252 A  
HETATM    8  C   UNL     1     -10.162   5.376  68.460  1.00  0.00    -0.237 A  
HETATM    9  C   UNL     1      -9.243   2.833  69.147  1.00  0.00    -0.215 A  
HETATM   10  C   UNL     1      -9.635   3.726  70.145  1.00  0.00    -0.258 A  
ENDBRANCH   4   5
ENDBRANCH   3   4
ENDBRANCH   2   3
BRANCH   2  11
HETATM   11  C   UNL     1     -11.424   9.352  70.836  1.00  0.00    -0.382 A  
HETATM   12  C   UNL     1     -13.226  11.308  71.722  1.00  0.00    -0.480 A  
HETATM   13  C   UNL     1     -12.405   9.038  71.788  1.00  0.00    -0.438 A  
HETATM   14  C   UNL     1     -13.304  10.012  72.228  1.00  0.00    -0.387 A  
HETATM   15  C   UNL     1     -11.349  10.659  70.335  1.00  0.00    -0.389 A  
HETATM   16  C   UNL     1     -12.249  11.633  70.780  1.00  0.00    -0.443 A  
ENDBRANCH   2  11
TORSDOF 4
ENDMDL
MODEL      140
REMARK 921   NORMALIZED FREE ENERGY PREDICTED BY IDOCK:   -3.81 KCAL/MOL
REMARK 922        TOTAL FREE ENERGY PREDICTED BY IDOCK:   -5.21 KCAL/MOL
REMARK 923 INTER-LIGAND FREE ENERGY PREDICTED BY IDOCK:   -4.84 KCAL/MOL
REMARK 924 INTRA-LIGAND FREE ENERGY PREDICTED BY IDOCK:   -0.36 KCAL/MOL
REMARK 927      BINDING AFFINITY PREDICTED BY RF-SCORE:    0.00 PKD
ROOT
HETATM    1  O   UNL     1     -10.510  10.914  68.143  1.00  0.00    -0.168 OA 
HETATM    2  C   UNL     1     -10.611  10.847  66.927  1.00  0.00    -0.261 C  
ENDROOT
BRANCH   2   3
HETATM    3  O   UNL     1     -10.263   9.790  66.156  1.00  0.00    -0.259 OA 
BRANCH   3   4
HETATM    4  C   UNL     1      -9.032   9.138  66.501  1.00  0.00    -0.148 C  
BRANCH   4   5
HETATM    5  C   UNL     1      -9.297   7.660  66.631  1.00  0.00    -0.239 A  
HETATM    6  C   UNL     1     -10.791   5.821  67.162  1.00  0.00    -0.308 A  
HETATM    7  C   UNL     1      -9.756   4.912  66.949  1.00  0.00    -0.193 A  
HETATM    8  C   UNL     1     -10.563   7.189  67.006  1.00  0.00    -0.413 A  
HETATM    9  C   UNL     1      -8.493   5.369  66.577  1.00  0.00    -0.113 A  
HETATM   10  C   UNL     1      -8.263   6.736  66.421  1.00  0.00    -0.117 A  
ENDBRANCH   4   5
ENDBRANCH   3   4
ENDBRANCH   2   3
BRANCH   2  11
HETATM   11  C   UNL     1     -11.145  11.963  66.098  1.00  0.00    -0.374 A  
HETATM   12  C   UNL     1     -12.097  14.009  64.434  1.00  0.00    -0.486 A  
HETATM   13  C   UNL     1     -11.089  11.830  64.703  1.00  0.00    -0.363 A  
HETATM   14  C   UNL     1     -11.561  12.850  63.874  1.00  0.00    -0.515 A  
HETATM   15  C   UNL     1     -11.690  13.129  66.654  1.00  0.00    -0.427 A  
HETATM   16  C   UNL     1     -12.164  14.147  65.821  1.00  0.00    -0.458 A  
ENDBRANCH   2  11
TORSDOF 4
ENDMDL
MODEL      141
REMARK 921   NORMALIZED FREE ENERGY PREDICTED BY IDOCK:   -3.81 KCAL/MOL
REMARK 922        TOTAL FREE ENERGY PREDICTED BY IDOCK:   -5.20 KCAL/MOL
REMARK 923 INTER-LIGAND FREE ENERGY PREDICTED BY IDOCK:   -4.29 KCAL/MOL
REMARK 924 INTRA-LIGAND FREE ENERGY PREDICTED BY IDOCK:   -0.91 KCAL/MOL
REMARK 927      BINDING AFFINITY PREDICTED BY RF-SCORE:    0.00 PKD
ROOT
HETATM    1  O   UNL     1      -8.204  10.664  64.513  1.00  0.00    -0.118 OA 
HETATM    2  C   UNL     1      -9.241  10.886  65.121  1.00  0.00    -0.214 C  
ENDROOT
BRANCH   2   3
HETATM    3  O   UNL     1      -9.608  10.331  66.299  1.00  0.00    -0.172 OA 
BRANCH   3   4
HETATM    4  C   UNL     1      -8.964  10.856  67.469  1.00  0.00    -0.136 C  
BRANCH   4   5
HETATM    5  C   UNL     1      -9.764  12.032  67.966  1.00  0.00    -0.198 A  
HETATM    6  C   UNL     1     -11.889  13.028  68.589  1.00  0.00    -0.353 A  
HETATM    7  C   UNL     1     -11.257  14.250  68.813  1.00  0.00    -0.286 A  
HETATM    8  C   UNL     1     -11.148  11.924  68.165  1.00  0.00    -0.294 A  
HETATM    9  C   UNL     1      -9.882  14.369  68.617  1.00  0.00    -0.231 A  
HETATM   10  C   UNL     1      -9.139  13.267  68.193  1.00  0.00    -0.207 A  
ENDBRANCH   4   5
ENDBRANCH   3   4
ENDBRANCH   2   3
BRANCH   2  11
HETATM   11  C   UNL     1     -10.281  11.829  64.624  1.00  0.00    -0.326 A  
HETATM   12  C   UNL     1     -12.291  13.506  63.620  1.00  0.00    -0.377 A  
HETATM   13  C   UNL     1     -11.391  11.290  63.957  1.00  0.00    -0.136 A  
HETATM   14  C   UNL     1     -12.392  12.126  63.456  1.00  0.00    -0.682 A  
HETATM   15  C   UNL     1     -10.190  13.218  64.790  1.00  0.00    -0.323 A  
HETATM   16  C   UNL     1     -11.194  14.052  64.289  1.00  0.00    -0.236 A  
ENDBRANCH   2  11
TORSDOF 4
ENDMDL
MODEL      142
REMARK 921   NORMALIZED FREE ENERGY PREDICTED BY IDOCK:   -3.79 KCAL/MOL
REMARK 922        TOTAL FREE ENERGY PREDICTED BY IDOCK:   -5.18 KCAL/MOL
REMARK 923 INTER-LIGAND FREE ENERGY PREDICTED BY IDOCK:   -4.69 KCAL/MOL
REMARK 924 INTRA-LIGAND FREE ENERGY PREDICTED BY IDOCK:   -0.49 KCAL/MOL
REMARK 927      BINDING AFFINITY PREDICTED BY RF-SCORE:    0.00 PKD
ROOT
HETATM    1  O   UNL     1     -10.637   7.645  71.657  1.00  0.00    -0.202 OA 
HETATM    2  C   UNL     1     -11.038   7.832  70.517  1.00  0.00    -0.257 C  
ENDROOT
BRANCH   2   3
HETATM    3  O   UNL     1     -11.765   8.892  70.094  1.00  0.00    -0.062 OA 
BRANCH   3   4
HETATM    4  C   UNL     1     -11.563  10.119  70.810  1.00  0.00    -0.357 C  
BRANCH   4   5
HETATM    5  C   UNL     1     -11.671  11.262  69.834  1.00  0.00    -0.430 A  
HETATM    6  C   UNL     1     -12.132  13.599  69.360  1.00  0.00    -0.364 A  
HETATM    7  C   UNL     1     -11.949  13.365  67.999  1.00  0.00    -0.357 A  
HETATM    8  C   UNL     1     -11.997  12.553  70.274  1.00  0.00    -0.364 A  
HETATM    9  C   UNL     1     -11.625  12.086  67.549  1.00  0.00    -0.401 A  
HETATM   10  C   UNL     1     -11.489  11.039  68.461  1.00  0.00    -0.379 A  
ENDBRANCH   4   5
ENDBRANCH   3   4
ENDBRANCH   2   3
BRANCH   2  11
HETATM   11  C   UNL     1     -10.774   6.882  69.402  1.00  0.00    -0.275 A  
HETATM   12  C   UNL     1     -10.202   5.023  67.383  1.00  0.00    -0.201 A  
HETATM   13  C   UNL     1     -10.163   5.659  69.713  1.00  0.00    -0.321 A  
HETATM   14  C   UNL     1      -9.876   4.733  68.707  1.00  0.00    -0.218 A  
HETATM   15  C   UNL     1     -11.102   7.164  68.069  1.00  0.00    -0.046 A  
HETATM   16  C   UNL     1     -10.816   6.234  67.064  1.00  0.00    -0.458 A  
ENDBRANCH   2  11
TORSDOF 4
ENDMDL
MODEL      143
REMARK 921   NORMALIZED FREE ENERGY PREDICTED BY IDOCK:   -3.76 KCAL/MOL
REMARK 922        TOTAL FREE ENERGY PREDICTED BY IDOCK:   -5.15 KCAL/MOL
REMARK 923 INTER-LIGAND FREE ENERGY PREDICTED BY IDOCK:   -4.78 KCAL/MOL
REMARK 924 INTRA-LIGAND FREE ENERGY PREDICTED BY IDOCK:   -0.37 KCAL/MOL
REMARK 927      BINDING AFFINITY PREDICTED BY RF-SCORE:    0.00 PKD
ROOT
HETATM    1  O   UNL     1     -12.294   9.379  71.071  1.00  0.00    -0.297 OA 
HETATM    2  C   UNL     1     -11.265   9.231  70.427  1.00  0.00    -0.247 C  
ENDROOT
BRANCH   2   3
HETATM    3  O   UNL     1     -10.667  10.169  69.656  1.00  0.00    -0.227 OA 
BRANCH   3   4
HETATM    4  C   UNL     1     -11.219  10.349  68.344  1.00  0.00    -0.258 C  
BRANCH   4   5
HETATM    5  C   UNL     1     -11.506  11.815  68.146  1.00  0.00    -0.382 A  
HETATM    6  C   UNL     1     -11.997  14.013  69.055  1.00  0.00    -0.392 A  
HETATM    7  C   UNL     1     -12.122  14.524  67.765  1.00  0.00    -0.269 A  
HETATM    8  C   UNL     1     -11.692  12.664  69.246  1.00  0.00    -0.379 A  
HETATM    9  C   UNL     1     -11.940  13.689  66.663  1.00  0.00    -0.458 A  
HETATM   10  C   UNL     1     -11.636  12.341  66.852  1.00  0.00    -0.427 A  
ENDBRANCH   4   5
ENDBRANCH   3   4
ENDBRANCH   2   3
BRANCH   2  11
HETATM   11  C   UNL     1     -10.506   7.950  70.401  1.00  0.00    -0.218 A  
HETATM   12  C   UNL     1      -9.190   5.475  70.359  1.00  0.00    -0.182 A  
HETATM   13  C   UNL     1     -11.225   6.766  70.188  1.00  0.00    -0.387 A  
HETATM   14  C   UNL     1     -10.569   5.532  70.168  1.00  0.00    -0.367 A  
HETATM   15  C   UNL     1      -9.118   7.886  70.587  1.00  0.00    -0.153 A  
HETATM   16  C   UNL     1      -8.464   6.650  70.565  1.00  0.00    -0.138 A  
ENDBRANCH   2  11
TORSDOF 4
ENDMDL
MODEL      144
REMARK 921   NORMALIZED FREE ENERGY PREDICTED BY IDOCK:   -3.76 KCAL/MOL
REMARK 922        TOTAL FREE ENERGY PREDICTED BY IDOCK:   -5.15 KCAL/MOL
REMARK 923 INTER-LIGAND FREE ENERGY PREDICTED BY IDOCK:   -4.49 KCAL/MOL
REMARK 924 INTRA-LIGAND FREE ENERGY PREDICTED BY IDOCK:   -0.66 KCAL/MOL
REMARK 927      BINDING AFFINITY PREDICTED BY RF-SCORE:    0.00 PKD
ROOT
HETATM    1  O   UNL     1     -12.518  11.319  71.530  1.00  0.00    -0.312 OA 
HETATM    2  C   UNL     1     -12.207  11.356  70.348  1.00  0.00    -0.362 C  
ENDROOT
BRANCH   2   3
HETATM    3  O   UNL     1     -12.475  12.363  69.485  1.00  0.00    -0.010 OA 
BRANCH   3   4
HETATM    4  C   UNL     1     -11.847  13.621  69.772  1.00  0.00    -0.327 C  
BRANCH   4   5
HETATM    5  C   UNL     1     -11.061  14.047  68.559  1.00  0.00    -0.279 A  
HETATM    6  C   UNL     1     -10.955  14.594  66.195  1.00  0.00    -0.329 A  
HETATM    7  C   UNL     1      -9.575  14.762  66.290  1.00  0.00    -0.339 A  
HETATM    8  C   UNL     1     -11.696  14.236  67.323  1.00  0.00    -0.422 A  
HETATM    9  C   UNL     1      -8.934  14.576  67.514  1.00  0.00    -0.191 A  
HETATM   10  C   UNL     1      -9.671  14.218  68.642  1.00  0.00    -0.213 A  
ENDBRANCH   4   5
ENDBRANCH   3   4
ENDBRANCH   2   3
BRANCH   2  11
HETATM   11  C   UNL     1     -11.467  10.253  69.674  1.00  0.00    -0.297 A  
HETATM   12  C   UNL     1     -10.109   8.228  68.290  1.00  0.00    -0.231 A  
HETATM   13  C   UNL     1     -11.243  10.361  68.294  1.00  0.00    -0.330 A  
HETATM   14  C   UNL     1     -10.567   9.351  67.604  1.00  0.00    -0.333 A  
HETATM   15  C   UNL     1     -10.999   9.123  70.358  1.00  0.00    -0.290 A  
HETATM   16  C   UNL     1     -10.321   8.115  69.665  1.00  0.00    -0.221 A  
ENDBRANCH   2  11
TORSDOF 4
ENDMDL
MODEL      145
REMARK 921   NORMALIZED FREE ENERGY PREDICTED BY IDOCK:   -3.75 KCAL/MOL
REMARK 922        TOTAL FREE ENERGY PREDICTED BY IDOCK:   -5.13 KCAL/MOL
REMARK 923 INTER-LIGAND FREE ENERGY PREDICTED BY IDOCK:   -4.71 KCAL/MOL
REMARK 924 INTRA-LIGAND FREE ENERGY PREDICTED BY IDOCK:   -0.42 KCAL/MOL
REMARK 927      BINDING AFFINITY PREDICTED BY RF-SCORE:    0.00 PKD
ROOT
HETATM    1  O   UNL     1      -9.999   8.035  66.972  1.00  0.00    -0.202 OA 
HETATM    2  C   UNL     1     -10.503   9.014  67.503  1.00  0.00    -0.272 C  
ENDROOT
BRANCH   2   3
HETATM    3  O   UNL     1     -10.853  10.165  66.883  1.00  0.00    -0.201 OA 
BRANCH   3   4
HETATM    4  C   UNL     1     -10.002  10.582  65.805  1.00  0.00    -0.258 C  
BRANCH   4   5
HETATM    5  C   UNL     1     -10.088  12.081  65.684  1.00  0.00    -0.272 A  
HETATM    6  C   UNL     1     -10.823  14.066  64.495  1.00  0.00    -0.362 A  
HETATM    7  C   UNL     1     -10.170  14.872  65.425  1.00  0.00    -0.409 A  
HETATM    8  C   UNL     1     -10.781  12.677  64.621  1.00  0.00    -0.353 A  
HETATM    9  C   UNL     1      -9.478  14.291  66.486  1.00  0.00    -0.306 A  
HETATM   10  C   UNL     1      -9.434  12.903  66.615  1.00  0.00    -0.255 A  
ENDBRANCH   4   5
ENDBRANCH   3   4
ENDBRANCH   2   3
BRANCH   2  11
HETATM   11  C   UNL     1     -10.807   9.075  68.960  1.00  0.00    -0.092 A  
HETATM   12  C   UNL     1     -11.396   9.318  71.690  1.00  0.00    -0.467 A  
HETATM   13  C   UNL     1     -11.360  10.260  69.466  1.00  0.00    -0.299 A  
HETATM   14  C   UNL     1     -11.653  10.381  70.826  1.00  0.00    -0.450 A  
HETATM   15  C   UNL     1     -10.556   8.008  69.834  1.00  0.00    -0.242 A  
HETATM   16  C   UNL     1     -10.852   8.132  71.195  1.00  0.00    -0.268 A  
ENDBRANCH   2  11
TORSDOF 4
ENDMDL
MODEL      146
REMARK 921   NORMALIZED FREE ENERGY PREDICTED BY IDOCK:   -3.73 KCAL/MOL
REMARK 922        TOTAL FREE ENERGY PREDICTED BY IDOCK:   -5.11 KCAL/MOL
REMARK 923 INTER-LIGAND FREE ENERGY PREDICTED BY IDOCK:   -4.20 KCAL/MOL
REMARK 924 INTRA-LIGAND FREE ENERGY PREDICTED BY IDOCK:   -0.91 KCAL/MOL
REMARK 927      BINDING AFFINITY PREDICTED BY RF-SCORE:    0.00 PKD
ROOT
HETATM    1  O   UNL     1     -11.888   9.773  71.527  1.00  0.00    -0.379 OA 
HETATM    2  C   UNL     1     -11.557   8.598  71.592  1.00  0.00    -0.310 C  
ENDROOT
BRANCH   2   3
HETATM    3  O   UNL     1     -11.704   7.787  72.665  1.00  0.00    -0.349 OA 
BRANCH   3   4
HETATM    4  C   UNL     1     -10.492   7.380  73.317  1.00  0.00    -0.374 C  
BRANCH   4   5
HETATM    5  C   UNL     1     -10.246   5.928  73.000  1.00  0.00    -0.211 A  
HETATM    6  C   UNL     1     -10.909   3.596  73.128  1.00  0.00    -0.252 A  
HETATM    7  C   UNL     1      -9.737   3.220  72.476  1.00  0.00    -0.205 A  
HETATM    8  C   UNL     1     -11.163   4.943  73.391  1.00  0.00    -0.415 A  
HETATM    9  C   UNL     1      -8.817   4.191  72.083  1.00  0.00    -0.128 A  
HETATM   10  C   UNL     1      -9.068   5.538  72.345  1.00  0.00    -0.147 A  
ENDBRANCH   4   5
ENDBRANCH   3   4
ENDBRANCH   2   3
BRANCH   2  11
HETATM   11  C   UNL     1     -10.919   7.875  70.456  1.00  0.00    -0.250 A  
HETATM   12  C   UNL     1      -9.804   6.418  68.337  1.00  0.00    -0.141 A  
HETATM   13  C   UNL     1     -11.584   6.756  69.934  1.00  0.00    -0.326 A  
HETATM   14  C   UNL     1     -11.027   6.029  68.879  1.00  0.00    -0.395 A  
HETATM   15  C   UNL     1      -9.691   8.263  69.902  1.00  0.00    -0.180 A  
HETATM   16  C   UNL     1      -9.138   7.534  68.845  1.00  0.00    -0.140 A  
ENDBRANCH   2  11
TORSDOF 4
ENDMDL
MODEL      147
REMARK 921   NORMALIZED FREE ENERGY PREDICTED BY IDOCK:   -3.73 KCAL/MOL
REMARK 922        TOTAL FREE ENERGY PREDICTED BY IDOCK:   -5.11 KCAL/MOL
REMARK 923 INTER-LIGAND FREE ENERGY PREDICTED BY IDOCK:   -4.99 KCAL/MOL
REMARK 924 INTRA-LIGAND FREE ENERGY PREDICTED BY IDOCK:   -0.11 KCAL/MOL
REMARK 927      BINDING AFFINITY PREDICTED BY RF-SCORE:    0.00 PKD
ROOT
HETATM    1  O   UNL     1     -10.770   7.576  68.050  1.00  0.00    -0.186 OA 
HETATM    2  C   UNL     1     -10.096   8.595  68.010  1.00  0.00    -0.196 C  
ENDROOT
BRANCH   2   3
HETATM    3  O   UNL     1      -9.036   8.880  68.802  1.00  0.00    -0.134 OA 
BRANCH   3   4
HETATM    4  C   UNL     1      -9.277   9.816  69.862  1.00  0.00    -0.234 C  
BRANCH   4   5
HETATM    5  C   UNL     1      -9.865   9.070  71.031  1.00  0.00    -0.352 A  
HETATM    6  C   UNL     1      -9.663   7.425  72.805  1.00  0.00    -0.220 A  
HETATM    7  C   UNL     1     -10.996   7.628  73.154  1.00  0.00    -0.411 A  
HETATM    8  C   UNL     1      -9.099   8.140  71.748  1.00  0.00    -0.229 A  
HETATM    9  C   UNL     1     -11.768   8.550  72.448  1.00  0.00    -0.429 A  
HETATM   10  C   UNL     1     -11.207   9.266  71.391  1.00  0.00    -0.433 A  
ENDBRANCH   4   5
ENDBRANCH   3   4
ENDBRANCH   2   3
BRANCH   2  11
HETATM   11  C   UNL     1     -10.364   9.704  67.053  1.00  0.00    -0.315 A  
HETATM   12  C   UNL     1     -10.949  11.843  65.337  1.00  0.00    -0.352 A  
HETATM   13  C   UNL     1     -11.038  10.836  67.531  1.00  0.00    -0.374 A  
HETATM   14  C   UNL     1     -11.331  11.902  66.677  1.00  0.00    -0.400 A  
HETATM   15  C   UNL     1      -9.979   9.654  65.706  1.00  0.00    -0.342 A  
HETATM   16  C   UNL     1     -10.272  10.723  64.853  1.00  0.00    -0.388 A  
ENDBRANCH   2  11
TORSDOF 4
ENDMDL
MODEL      148
REMARK 921   NORMALIZED FREE ENERGY PREDICTED BY IDOCK:   -3.68 KCAL/MOL
REMARK 922        TOTAL FREE ENERGY PREDICTED BY IDOCK:   -5.05 KCAL/MOL
REMARK 923 INTER-LIGAND FREE ENERGY PREDICTED BY IDOCK:   -4.70 KCAL/MOL
REMARK 924 INTRA-LIGAND FREE ENERGY PREDICTED BY IDOCK:   -0.35 KCAL/MOL
REMARK 927      BINDING AFFINITY PREDICTED BY RF-SCORE:    0.00 PKD
ROOT
HETATM    1  O   UNL     1      -9.279  11.586  67.630  1.00  0.00    -0.165 OA 
HETATM    2  C   UNL     1     -10.341  11.168  67.191  1.00  0.00    -0.212 C  
ENDROOT
BRANCH   2   3
HETATM    3  O   UNL     1     -11.132  10.237  67.774  1.00  0.00    -0.299 OA 
BRANCH   3   4
HETATM    4  C   UNL     1     -10.757   9.834  69.099  1.00  0.00    -0.221 C  
BRANCH   4   5
HETATM    5  C   UNL     1     -10.073   8.494  69.014  1.00  0.00    -0.207 A  
HETATM    6  C   UNL     1      -8.491   6.871  69.883  1.00  0.00    -0.140 A  
HETATM    7  C   UNL     1      -8.746   6.032  68.800  1.00  0.00    -0.111 A  
HETATM    8  C   UNL     1      -9.149   8.097  69.990  1.00  0.00    -0.151 A  
HETATM    9  C   UNL     1      -9.663   6.417  67.823  1.00  0.00    -0.127 A  
HETATM   10  C   UNL     1     -10.322   7.643  67.927  1.00  0.00    -0.270 A  
ENDBRANCH   4   5
ENDBRANCH   3   4
ENDBRANCH   2   3
BRANCH   2  11
HETATM   11  C   UNL     1     -10.925  11.640  65.906  1.00  0.00    -0.334 A  
HETATM   12  C   UNL     1     -12.122  12.587  63.554  1.00  0.00    -0.653 A  
HETATM   13  C   UNL     1     -11.948  12.598  65.963  1.00  0.00    -0.478 A  
HETATM   14  C   UNL     1     -12.545  13.068  64.791  1.00  0.00    -0.460 A  
HETATM   15  C   UNL     1     -10.501  11.165  64.658  1.00  0.00    -0.400 A  
HETATM   16  C   UNL     1     -11.099  11.639  63.486  1.00  0.00    -0.476 A  
ENDBRANCH   2  11
TORSDOF 4
ENDMDL
MODEL      149
REMARK 921   NORMALIZED FREE ENERGY PREDICTED BY IDOCK:   -3.68 KCAL/MOL
REMARK 922        TOTAL FREE ENERGY PREDICTED BY IDOCK:   -5.05 KCAL/MOL
REMARK 923 INTER-LIGAND FREE ENERGY PREDICTED BY IDOCK:   -4.84 KCAL/MOL
REMARK 924 INTRA-LIGAND FREE ENERGY PREDICTED BY IDOCK:   -0.21 KCAL/MOL
REMARK 927      BINDING AFFINITY PREDICTED BY RF-SCORE:    0.00 PKD
ROOT
HETATM    1  O   UNL     1     -11.979   6.351  72.116  1.00  0.00    -0.325 OA 
HETATM    2  C   UNL     1     -11.351   6.400  71.069  1.00  0.00    -0.328 C  
ENDROOT
BRANCH   2   3
HETATM    3  O   UNL     1     -11.339   7.433  70.195  1.00  0.00    -0.255 OA 
BRANCH   3   4
HETATM    4  C   UNL     1     -10.499   8.542  70.544  1.00  0.00    -0.204 C  
BRANCH   4   5
HETATM    5  C   UNL     1     -11.379   9.718  70.880  1.00  0.00    -0.439 A  
HETATM    6  C   UNL     1     -13.168  10.713  72.186  1.00  0.00    -0.379 A  
HETATM    7  C   UNL     1     -13.067  11.886  71.442  1.00  0.00    -0.303 A  
HETATM    8  C   UNL     1     -12.330   9.632  71.906  1.00  0.00    -0.437 A  
HETATM    9  C   UNL     1     -12.125  11.983  70.419  1.00  0.00    -0.407 A  
HETATM   10  C   UNL     1     -11.286  10.904  70.137  1.00  0.00    -0.367 A  
ENDBRANCH   4   5
ENDBRANCH   3   4
ENDBRANCH   2   3
BRANCH   2  11
HETATM   11  C   UNL     1     -10.486   5.284  70.594  1.00  0.00    -0.306 A  
HETATM   12  C   UNL     1      -8.824   3.162  69.823  1.00  0.00    -0.149 A  
HETATM   13  C   UNL     1      -9.980   4.393  71.550  1.00  0.00    -0.250 A  
HETATM   14  C   UNL     1      -9.151   3.336  71.167  1.00  0.00    -0.181 A  
HETATM   15  C   UNL     1     -10.157   5.100  69.244  1.00  0.00    -0.283 A  
HETATM   16  C   UNL     1      -9.328   4.040  68.862  1.00  0.00    -0.230 A  
ENDBRANCH   2  11
TORSDOF 4
ENDMDL
MODEL      150
REMARK 921   NORMALIZED FREE ENERGY PREDICTED BY IDOCK:   -3.67 KCAL/MOL
REMARK 922        TOTAL FREE ENERGY PREDICTED BY IDOCK:   -5.03 KCAL/MOL
REMARK 923 INTER-LIGAND FREE ENERGY PREDICTED BY IDOCK:   -4.31 KCAL/MOL
REMARK 924 INTRA-LIGAND FREE ENERGY PREDICTED BY IDOCK:   -0.72 KCAL/MOL
REMARK 927      BINDING AFFINITY PREDICTED BY RF-SCORE:    0.00 PKD
ROOT
HETATM    1  O   UNL     1     -10.549  10.165  69.673  1.00  0.00    -0.222 OA 
HETATM    2  C   UNL     1     -10.961  10.406  68.548  1.00  0.00    -0.254 C  
ENDROOT
BRANCH   2   3
HETATM    3  O   UNL     1     -11.143   9.503  67.557  1.00  0.00    -0.173 OA 
BRANCH   3   4
HETATM    4  C   UNL     1     -10.090   8.545  67.377  1.00  0.00    -0.234 C  
BRANCH   4   5
HETATM    5  C   UNL     1      -9.072   9.129  66.432  1.00  0.00    -0.211 A  
HETATM    6  C   UNL     1      -8.500  10.110  64.286  1.00  0.00    -0.179 A  
HETATM    7  C   UNL     1      -7.156  10.139  64.651  1.00  0.00    -0.124 A  
HETATM    8  C   UNL     1      -9.455   9.606  65.171  1.00  0.00    -0.332 A  
HETATM    9  C   UNL     1      -6.764   9.667  65.903  1.00  0.00    -0.084 A  
HETATM   10  C   UNL     1      -7.716   9.163  66.789  1.00  0.00    -0.097 A  
ENDBRANCH   4   5
ENDBRANCH   3   4
ENDBRANCH   2   3
BRANCH   2  11
HETATM   11  C   UNL     1     -11.328  11.778  68.100  1.00  0.00    -0.348 A  
HETATM   12  C   UNL     1     -11.995  14.323  67.133  1.00  0.00    -0.449 A  
HETATM   13  C   UNL     1     -11.529  11.988  66.728  1.00  0.00    -0.410 A  
HETATM   14  C   UNL     1     -11.860  13.257  66.246  1.00  0.00    -0.444 A  
HETATM   15  C   UNL     1     -11.469  12.855  68.986  1.00  0.00    -0.358 A  
HETATM   16  C   UNL     1     -11.802  14.123  68.500  1.00  0.00    -0.390 A  
ENDBRANCH   2  11
TORSDOF 4
ENDMDL
MODEL      151
REMARK 921   NORMALIZED FREE ENERGY PREDICTED BY IDOCK:   -3.64 KCAL/MOL
REMARK 922        TOTAL FREE ENERGY PREDICTED BY IDOCK:   -5.00 KCAL/MOL
REMARK 923 INTER-LIGAND FREE ENERGY PREDICTED BY IDOCK:   -4.65 KCAL/MOL
REMARK 924 INTRA-LIGAND FREE ENERGY PREDICTED BY IDOCK:   -0.36 KCAL/MOL
REMARK 927      BINDING AFFINITY PREDICTED BY RF-SCORE:    0.00 PKD
ROOT
HETATM    1  O   UNL     1     -12.391  14.106  68.280  1.00  0.00    -0.246 OA 
HETATM    2  C   UNL     1     -11.357  13.505  68.028  1.00  0.00    -0.285 C  
ENDROOT
BRANCH   2   3
HETATM    3  O   UNL     1     -10.253  14.029  67.446  1.00  0.00    -0.245 OA 
BRANCH   3   4
HETATM    4  C   UNL     1     -10.470  15.157  66.587  1.00  0.00    -0.287 C  
BRANCH   4   5
HETATM    5  C   UNL     1      -9.880  16.377  67.246  1.00  0.00    -0.245 A  
HETATM    6  C   UNL     1     -10.155  18.473  68.442  1.00  0.00    -0.423 A  
HETATM    7  C   UNL     1      -8.779  18.685  68.398  1.00  0.00    -0.361 A  
HETATM    8  C   UNL     1     -10.705  17.326  67.867  1.00  0.00    -0.351 A  
HETATM    9  C   UNL     1      -7.949  17.749  67.783  1.00  0.00    -0.225 A  
HETATM   10  C   UNL     1      -8.496  16.602  67.208  1.00  0.00    -0.214 A  
ENDBRANCH   4   5
ENDBRANCH   3   4
ENDBRANCH   2   3
BRANCH   2  11
HETATM   11  C   UNL     1     -11.168  12.060  68.334  1.00  0.00    -0.313 A  
HETATM   12  C   UNL     1     -10.814   9.315  68.783  1.00  0.00    -0.123 A  
HETATM   13  C   UNL     1     -10.839  11.202  67.275  1.00  0.00    -0.326 A  
HETATM   14  C   UNL     1     -10.664   9.834  67.498  1.00  0.00    -0.327 A  
HETATM   15  C   UNL     1     -11.312  11.531  69.624  1.00  0.00    -0.329 A  
HETATM   16  C   UNL     1     -11.134  10.162  69.845  1.00  0.00    -0.346 A  
ENDBRANCH   2  11
TORSDOF 4
ENDMDL
MODEL      152
REMARK 921   NORMALIZED FREE ENERGY PREDICTED BY IDOCK:   -3.63 KCAL/MOL
REMARK 922        TOTAL FREE ENERGY PREDICTED BY IDOCK:   -4.99 KCAL/MOL
REMARK 923 INTER-LIGAND FREE ENERGY PREDICTED BY IDOCK:   -4.44 KCAL/MOL
REMARK 924 INTRA-LIGAND FREE ENERGY PREDICTED BY IDOCK:   -0.55 KCAL/MOL
REMARK 927      BINDING AFFINITY PREDICTED BY RF-SCORE:    0.00 PKD
ROOT
HETATM    1  O   UNL     1      -8.761   8.741  66.601  1.00  0.00    -0.119 OA 
HETATM    2  C   UNL     1      -9.797   9.057  67.167  1.00  0.00    -0.203 C  
ENDROOT
BRANCH   2   3
HETATM    3  O   UNL     1     -10.781   8.213  67.556  1.00  0.00    -0.242 OA 
BRANCH   3   4
HETATM    4  C   UNL     1     -10.365   7.071  68.319  1.00  0.00    -0.194 C  
BRANCH   4   5
HETATM    5  C   UNL     1     -10.748   7.296  69.758  1.00  0.00    -0.253 A  
HETATM    6  C   UNL     1     -12.100   6.738  71.697  1.00  0.00    -0.404 A  
HETATM    7  C   UNL     1     -11.510   7.777  72.414  1.00  0.00    -0.418 A  
HETATM    8  C   UNL     1     -11.723   6.499  70.374  1.00  0.00    -0.439 A  
HETATM    9  C   UNL     1     -10.539   8.576  71.812  1.00  0.00    -0.371 A  
HETATM   10  C   UNL     1     -10.161   8.339  70.491  1.00  0.00    -0.213 A  
ENDBRANCH   4   5
ENDBRANCH   3   4
ENDBRANCH   2   3
BRANCH   2  11
HETATM   11  C   UNL     1     -10.130  10.467  67.512  1.00  0.00    -0.231 A  
HETATM   12  C   UNL     1     -10.630  13.144  68.179  1.00  0.00    -0.257 A  
HETATM   13  C   UNL     1      -9.079  11.393  67.576  1.00  0.00    -0.157 A  
HETATM   14  C   UNL     1      -9.328  12.726  67.910  1.00  0.00    -0.208 A  
HETATM   15  C   UNL     1     -11.438  10.895  67.779  1.00  0.00    -0.323 A  
HETATM   16  C   UNL     1     -11.684  12.231  68.111  1.00  0.00    -0.408 A  
ENDBRANCH   2  11
TORSDOF 4
ENDMDL
MODEL      153
REMARK 921   NORMALIZED FREE ENERGY PREDICTED BY IDOCK:   -3.60 KCAL/MOL
REMARK 922        TOTAL FREE ENERGY PREDICTED BY IDOCK:   -4.95 KCAL/MOL
REMARK 923 INTER-LIGAND FREE ENERGY PREDICTED BY IDOCK:   -4.52 KCAL/MOL
REMARK 924 INTRA-LIGAND FREE ENERGY PREDICTED BY IDOCK:   -0.44 KCAL/MOL
REMARK 927      BINDING AFFINITY PREDICTED BY RF-SCORE:    0.00 PKD
ROOT
HETATM    1  O   UNL     1     -10.451   7.053  73.862  1.00  0.00    -0.375 OA 
HETATM    2  C   UNL     1     -10.575   7.240  72.660  1.00  0.00    -0.266 C  
ENDROOT
BRANCH   2   3
HETATM    3  O   UNL     1      -9.995   6.514  71.677  1.00  0.00    -0.178 OA 
BRANCH   3   4
HETATM    4  C   UNL     1     -10.724   5.360  71.234  1.00  0.00    -0.179 C  
BRANCH   4   5
HETATM    5  C   UNL     1     -10.116   4.139  71.876  1.00  0.00    -0.224 A  
HETATM    6  C   UNL     1     -10.183   2.375  73.543  1.00  0.00    -0.192 A  
HETATM    7  C   UNL     1      -8.938   1.917  73.117  1.00  0.00    -0.069 A  
HETATM    8  C   UNL     1     -10.770   3.482  72.928  1.00  0.00    -0.185 A  
HETATM    9  C   UNL     1      -8.279   2.564  72.073  1.00  0.00    -0.057 A  
HETATM   10  C   UNL     1      -8.863   3.670  71.456  1.00  0.00    -0.140 A  
ENDBRANCH   4   5
ENDBRANCH   3   4
ENDBRANCH   2   3
BRANCH   2  11
HETATM   11  C   UNL     1     -11.410   8.337  72.097  1.00  0.00    -0.419 A  
HETATM   12  C   UNL     1     -12.872  10.459  70.991  1.00  0.00    -0.494 A  
HETATM   13  C   UNL     1     -10.804   9.229  71.200  1.00  0.00    -0.407 A  
HETATM   14  C   UNL     1     -11.532  10.287  70.651  1.00  0.00    -0.435 A  
HETATM   15  C   UNL     1     -12.760   8.514  72.431  1.00  0.00    -0.394 A  
HETATM   16  C   UNL     1     -13.487   9.573  71.877  1.00  0.00    -0.502 A  
ENDBRANCH   2  11
TORSDOF 4
ENDMDL
MODEL      154
REMARK 921   NORMALIZED FREE ENERGY PREDICTED BY IDOCK:   -3.60 KCAL/MOL
REMARK 922        TOTAL FREE ENERGY PREDICTED BY IDOCK:   -4.95 KCAL/MOL
REMARK 923 INTER-LIGAND FREE ENERGY PREDICTED BY IDOCK:   -4.62 KCAL/MOL
REMARK 924 INTRA-LIGAND FREE ENERGY PREDICTED BY IDOCK:   -0.33 KCAL/MOL
REMARK 927      BINDING AFFINITY PREDICTED BY RF-SCORE:    0.00 PKD
ROOT
HETATM    1  O   UNL     1     -10.980   5.652  71.304  1.00  0.00    -0.246 OA 
HETATM    2  C   UNL     1     -11.012   6.657  70.609  1.00  0.00    -0.280 C  
ENDROOT
BRANCH   2   3
HETATM    3  O   UNL     1     -10.419   6.811  69.403  1.00  0.00    -0.196 OA 
BRANCH   3   4
HETATM    4  C   UNL     1     -11.128   6.269  68.280  1.00  0.00    -0.269 C  
BRANCH   4   5
HETATM    5  C   UNL     1     -10.133   5.966  67.190  1.00  0.00    -0.213 A  
HETATM    6  C   UNL     1      -8.273   6.640  65.782  1.00  0.00    -0.135 A  
HETATM    7  C   UNL     1      -8.339   5.424  65.103  1.00  0.00    -0.144 A  
HETATM    8  C   UNL     1      -9.167   6.912  66.819  1.00  0.00    -0.177 A  
HETATM    9  C   UNL     1      -9.296   4.477  65.463  1.00  0.00    -0.162 A  
HETATM   10  C   UNL     1     -10.191   4.747  66.499  1.00  0.00    -0.294 A  
ENDBRANCH   4   5
ENDBRANCH   3   4
ENDBRANCH   2   3
BRANCH   2  11
HETATM   11  C   UNL     1     -11.732   7.896  71.016  1.00  0.00    -0.293 A  
HETATM   12  C   UNL     1     -12.987  10.298  71.734  1.00  0.00    -0.574 A  
HETATM   13  C   UNL     1     -11.249   9.123  70.536  1.00  0.00    -0.309 A  
HETATM   14  C   UNL     1     -11.874  10.319  70.895  1.00  0.00    -0.473 A  
HETATM   15  C   UNL     1     -12.854   7.883  71.855  1.00  0.00    -0.331 A  
HETATM   16  C   UNL     1     -13.478   9.082  72.211  1.00  0.00    -0.529 A  
ENDBRANCH   2  11
TORSDOF 4
ENDMDL
MODEL      155
REMARK 921   NORMALIZED FREE ENERGY PREDICTED BY IDOCK:   -3.58 KCAL/MOL
REMARK 922        TOTAL FREE ENERGY PREDICTED BY IDOCK:   -4.92 KCAL/MOL
REMARK 923 INTER-LIGAND FREE ENERGY PREDICTED BY IDOCK:   -3.89 KCAL/MOL
REMARK 924 INTRA-LIGAND FREE ENERGY PREDICTED BY IDOCK:   -1.03 KCAL/MOL
REMARK 927      BINDING AFFINITY PREDICTED BY RF-SCORE:    0.00 PKD
ROOT
HETATM    1  O   UNL     1     -13.407   7.168  71.882  1.00  0.00    -0.303 OA 
HETATM    2  C   UNL     1     -12.257   7.565  71.771  1.00  0.00    -0.314 C  
ENDROOT
BRANCH   2   3
HETATM    3  O   UNL     1     -11.462   7.996  72.778  1.00  0.00    -0.402 OA 
BRANCH   3   4
HETATM    4  C   UNL     1     -10.635   7.000  73.397  1.00  0.00    -0.364 C  
BRANCH   4   5
HETATM    5  C   UNL     1      -9.297   6.996  72.704  1.00  0.00    -0.159 A  
HETATM    6  C   UNL     1      -7.453   5.793  71.680  1.00  0.00    -0.094 A  
HETATM    7  C   UNL     1      -6.770   6.993  71.488  1.00  0.00    -0.052 A  
HETATM    8  C   UNL     1      -8.710   5.793  72.287  1.00  0.00    -0.132 A  
HETATM    9  C   UNL     1      -7.344   8.195  71.900  1.00  0.00    -0.099 A  
HETATM   10  C   UNL     1      -8.600   8.197  72.507  1.00  0.00    -0.255 A  
ENDBRANCH   4   5
ENDBRANCH   3   4
ENDBRANCH   2   3
BRANCH   2  11
HETATM   11  C   UNL     1     -11.550   7.634  70.462  1.00  0.00    -0.195 A  
HETATM   12  C   UNL     1     -10.221   7.634  67.994  1.00  0.00    -0.248 A  
HETATM   13  C   UNL     1     -11.476   6.464  69.694  1.00  0.00    -0.446 A  
HETATM   14  C   UNL     1     -10.813   6.464  68.464  1.00  0.00    -0.382 A  
HETATM   15  C   UNL     1     -10.956   8.809  69.980  1.00  0.00    -0.216 A  
HETATM   16  C   UNL     1     -10.295   8.806  68.748  1.00  0.00    -0.234 A  
ENDBRANCH   2  11
TORSDOF 4
ENDMDL
MODEL      156
REMARK 921   NORMALIZED FREE ENERGY PREDICTED BY IDOCK:   -3.57 KCAL/MOL
REMARK 922        TOTAL FREE ENERGY PREDICTED BY IDOCK:   -4.91 KCAL/MOL
REMARK 923 INTER-LIGAND FREE ENERGY PREDICTED BY IDOCK:   -4.30 KCAL/MOL
REMARK 924 INTRA-LIGAND FREE ENERGY PREDICTED BY IDOCK:   -0.61 KCAL/MOL
REMARK 927      BINDING AFFINITY PREDICTED BY RF-SCORE:    0.00 PKD
ROOT
HETATM    1  O   UNL     1      -7.930   9.859  67.897  1.00  0.00    -0.103 OA 
HETATM    2  C   UNL     1      -8.623  10.424  67.064  1.00  0.00    -0.130 C  
ENDROOT
BRANCH   2   3
HETATM    3  O   UNL     1      -9.663  11.250  67.321  1.00  0.00    -0.172 OA 
BRANCH   3   4
HETATM    4  C   UNL     1      -9.366  12.654  67.326  1.00  0.00    -0.195 C  
BRANCH   4   5
HETATM    5  C   UNL     1     -10.304  13.342  66.369  1.00  0.00    -0.286 A  
HETATM    6  C   UNL     1     -10.925  15.282  65.046  1.00  0.00    -0.450 A  
HETATM    7  C   UNL     1     -12.100  14.644  64.652  1.00  0.00    -0.466 A  
HETATM    8  C   UNL     1     -10.032  14.636  65.902  1.00  0.00    -0.352 A  
HETATM    9  C   UNL     1     -12.381  13.358  65.110  1.00  0.00    -0.501 A  
HETATM   10  C   UNL     1     -11.490  12.710  65.966  1.00  0.00    -0.414 A  
ENDBRANCH   4   5
ENDBRANCH   3   4
ENDBRANCH   2   3
BRANCH   2  11
HETATM   11  C   UNL     1      -8.410  10.270  65.598  1.00  0.00    -0.159 A  
HETATM   12  C   UNL     1      -7.883  10.001  62.857  1.00  0.00    -0.140 A  
HETATM   13  C   UNL     1      -7.092  10.152  65.135  1.00  0.00    -0.137 A  
HETATM   14  C   UNL     1      -6.829  10.020  63.769  1.00  0.00    -0.126 A  
HETATM   15  C   UNL     1      -9.465  10.245  64.675  1.00  0.00    -0.351 A  
HETATM   16  C   UNL     1      -9.199  10.110  63.309  1.00  0.00    -0.320 A  
ENDBRANCH   2  11
TORSDOF 4
ENDMDL
MODEL      157
REMARK 921   NORMALIZED FREE ENERGY PREDICTED BY IDOCK:   -3.57 KCAL/MOL
REMARK 922        TOTAL FREE ENERGY PREDICTED BY IDOCK:   -4.91 KCAL/MOL
REMARK 923 INTER-LIGAND FREE ENERGY PREDICTED BY IDOCK:   -4.12 KCAL/MOL
REMARK 924 INTRA-LIGAND FREE ENERGY PREDICTED BY IDOCK:   -0.79 KCAL/MOL
REMARK 927      BINDING AFFINITY PREDICTED BY RF-SCORE:    0.00 PKD
ROOT
HETATM    1  O   UNL     1     -12.435   9.052  72.663  1.00  0.00    -0.303 OA 
HETATM    2  C   UNL     1     -12.235   8.569  71.558  1.00  0.00    -0.311 C  
ENDROOT
BRANCH   2   3
HETATM    3  O   UNL     1     -12.427   7.276  71.208  1.00  0.00    -0.344 OA 
BRANCH   3   4
HETATM    4  C   UNL     1     -11.829   6.296  72.069  1.00  0.00    -0.318 C  
BRANCH   4   5
HETATM    5  C   UNL     1     -10.475   5.938  71.514  1.00  0.00    -0.287 A  
HETATM    6  C   UNL     1      -9.102   4.862  69.824  1.00  0.00    -0.157 A  
HETATM    7  C   UNL     1      -7.951   5.206  70.532  1.00  0.00    -0.090 A  
HETATM    8  C   UNL     1     -10.358   5.224  70.313  1.00  0.00    -0.350 A  
HETATM    9  C   UNL     1      -8.055   5.916  71.727  1.00  0.00    -0.118 A  
HETATM   10  C   UNL     1      -9.310   6.278  72.218  1.00  0.00    -0.146 A  
ENDBRANCH   4   5
ENDBRANCH   3   4
ENDBRANCH   2   3
BRANCH   2  11
HETATM   11  C   UNL     1     -11.729   9.367  70.407  1.00  0.00    -0.195 A  
HETATM   12  C   UNL     1     -10.868  10.960  68.266  1.00  0.00    -0.272 A  
HETATM   13  C   UNL     1     -12.176  10.690  70.279  1.00  0.00    -0.417 A  
HETATM   14  C   UNL     1     -11.748  11.483  69.212  1.00  0.00    -0.397 A  
HETATM   15  C   UNL     1     -10.840   8.849  69.455  1.00  0.00    -0.163 A  
HETATM   16  C   UNL     1     -10.412   9.647  68.389  1.00  0.00    -0.258 A  
ENDBRANCH   2  11
TORSDOF 4
ENDMDL
MODEL      158
REMARK 921   NORMALIZED FREE ENERGY PREDICTED BY IDOCK:   -3.57 KCAL/MOL
REMARK 922        TOTAL FREE ENERGY PREDICTED BY IDOCK:   -4.91 KCAL/MOL
REMARK 923 INTER-LIGAND FREE ENERGY PREDICTED BY IDOCK:   -4.16 KCAL/MOL
REMARK 924 INTRA-LIGAND FREE ENERGY PREDICTED BY IDOCK:   -0.75 KCAL/MOL
REMARK 927      BINDING AFFINITY PREDICTED BY RF-SCORE:    0.00 PKD
ROOT
HETATM    1  O   UNL     1     -10.397   7.851  67.690  1.00  0.00    -0.210 OA 
HETATM    2  C   UNL     1     -10.610   7.043  68.582  1.00  0.00    -0.210 C  
ENDROOT
BRANCH   2   3
HETATM    3  O   UNL     1     -10.603   5.696  68.454  1.00  0.00    -0.208 OA 
BRANCH   3   4
HETATM    4  C   UNL     1      -9.312   5.070  68.466  1.00  0.00    -0.127 C  
BRANCH   4   5
HETATM    5  C   UNL     1      -9.346   3.927  69.447  1.00  0.00    -0.246 A  
HETATM    6  C   UNL     1      -9.343   1.544  69.914  1.00  0.00    -0.162 A  
HETATM    7  C   UNL     1      -9.494   1.805  71.275  1.00  0.00    -0.198 A  
HETATM    8  C   UNL     1      -9.272   2.599  69.003  1.00  0.00    -0.216 A  
HETATM    9  C   UNL     1      -9.570   3.121  71.727  1.00  0.00    -0.227 A  
HETATM   10  C   UNL     1      -9.499   4.177  70.818  1.00  0.00    -0.242 A  
ENDBRANCH   4   5
ENDBRANCH   3   4
ENDBRANCH   2   3
BRANCH   2  11
HETATM   11  C   UNL     1     -10.921   7.448  69.981  1.00  0.00    -0.264 A  
HETATM   12  C   UNL     1     -11.621   8.148  72.604  1.00  0.00    -0.441 A  
HETATM   13  C   UNL     1     -12.006   6.829  70.617  1.00  0.00    -0.418 A  
HETATM   14  C   UNL     1     -12.356   7.179  71.924  1.00  0.00    -0.352 A  
HETATM   15  C   UNL     1     -10.184   8.419  70.673  1.00  0.00    -0.222 A  
HETATM   16  C   UNL     1     -10.535   8.765  71.982  1.00  0.00    -0.414 A  
ENDBRANCH   2  11
TORSDOF 4
ENDMDL
MODEL      159
REMARK 921   NORMALIZED FREE ENERGY PREDICTED BY IDOCK:   -3.52 KCAL/MOL
REMARK 922        TOTAL FREE ENERGY PREDICTED BY IDOCK:   -4.85 KCAL/MOL
REMARK 923 INTER-LIGAND FREE ENERGY PREDICTED BY IDOCK:   -4.50 KCAL/MOL
REMARK 924 INTRA-LIGAND FREE ENERGY PREDICTED BY IDOCK:   -0.35 KCAL/MOL
REMARK 927      BINDING AFFINITY PREDICTED BY RF-SCORE:    0.00 PKD
ROOT
HETATM    1  O   UNL     1     -10.786   9.263  67.484  1.00  0.00    -0.259 OA 
HETATM    2  C   UNL     1     -10.149   8.877  66.514  1.00  0.00    -0.286 C  
ENDROOT
BRANCH   2   3
HETATM    3  O   UNL     1     -10.021   9.528  65.335  1.00  0.00    -0.284 OA 
BRANCH   3   4
HETATM    4  C   UNL     1      -9.384  10.813  65.393  1.00  0.00    -0.207 C  
BRANCH   4   5
HETATM    5  C   UNL     1     -10.419  11.870  65.109  1.00  0.00    -0.330 A  
HETATM    6  C   UNL     1     -11.838  13.692  65.861  1.00  0.00    -0.406 A  
HETATM    7  C   UNL     1     -12.405  13.782  64.591  1.00  0.00    -0.410 A  
HETATM    8  C   UNL     1     -10.851  12.740  66.121  1.00  0.00    -0.303 A  
HETATM    9  C   UNL     1     -11.983  12.922  63.578  1.00  0.00    -0.629 A  
HETATM   10  C   UNL     1     -10.997  11.969  63.835  1.00  0.00    -0.465 A  
ENDBRANCH   4   5
ENDBRANCH   3   4
ENDBRANCH   2   3
BRANCH   2  11
HETATM   11  C   UNL     1      -9.404   7.587  66.499  1.00  0.00    -0.231 A  
HETATM   12  C   UNL     1      -8.105   5.103  66.528  1.00  0.00    -0.108 A  
HETATM   13  C   UNL     1     -10.114   6.416  66.802  1.00  0.00    -0.239 A  
HETATM   14  C   UNL     1      -9.466   5.179  66.818  1.00  0.00    -0.143 A  
HETATM   15  C   UNL     1      -8.037   7.503  66.203  1.00  0.00    -0.116 A  
HETATM   16  C   UNL     1      -7.391   6.262  66.219  1.00  0.00    -0.081 A  
ENDBRANCH   2  11
TORSDOF 4
ENDMDL
MODEL      160
REMARK 921   NORMALIZED FREE ENERGY PREDICTED BY IDOCK:   -3.52 KCAL/MOL
REMARK 922        TOTAL FREE ENERGY PREDICTED BY IDOCK:   -4.85 KCAL/MOL
REMARK 923 INTER-LIGAND FREE ENERGY PREDICTED BY IDOCK:   -4.09 KCAL/MOL
REMARK 924 INTRA-LIGAND FREE ENERGY PREDICTED BY IDOCK:   -0.76 KCAL/MOL
REMARK 927      BINDING AFFINITY PREDICTED BY RF-SCORE:    0.00 PKD
ROOT
HETATM    1  O   UNL     1     -11.967   9.675  71.750  1.00  0.00    -0.381 OA 
HETATM    2  C   UNL     1     -11.786  10.127  70.629  1.00  0.00    -0.338 C  
ENDROOT
BRANCH   2   3
HETATM    3  O   UNL     1     -11.403   9.422  69.539  1.00  0.00    -0.104 OA 
BRANCH   3   4
HETATM    4  C   UNL     1     -10.112   8.802  69.612  1.00  0.00    -0.204 C  
BRANCH   4   5
HETATM    5  C   UNL     1      -9.134   9.646  68.837  1.00  0.00    -0.144 A  
HETATM    6  C   UNL     1      -8.253  10.454  66.723  1.00  0.00    -0.126 A  
HETATM    7  C   UNL     1      -7.257  11.156  67.400  1.00  0.00    -0.107 A  
HETATM    8  C   UNL     1      -9.187   9.701  67.437  1.00  0.00    -0.148 A  
HETATM    9  C   UNL     1      -7.195  11.108  68.792  1.00  0.00    -0.098 A  
HETATM   10  C   UNL     1      -8.126  10.355  69.507  1.00  0.00    -0.145 A  
ENDBRANCH   4   5
ENDBRANCH   3   4
ENDBRANCH   2   3
BRANCH   2  11
HETATM   11  C   UNL     1     -11.964  11.569  70.301  1.00  0.00    -0.455 A  
HETATM   12  C   UNL     1     -12.376  14.294  69.789  1.00  0.00    -0.342 A  
HETATM   13  C   UNL     1     -12.555  12.394  71.269  1.00  0.00    -0.332 A  
HETATM   14  C   UNL     1     -12.762  13.751  71.013  1.00  0.00    -0.416 A  
HETATM   15  C   UNL     1     -11.573  12.123  69.074  1.00  0.00    -0.374 A  
HETATM   16  C   UNL     1     -11.780  13.483  68.822  1.00  0.00    -0.373 A  
ENDBRANCH   2  11
TORSDOF 4
ENDMDL
MODEL      161
REMARK 921   NORMALIZED FREE ENERGY PREDICTED BY IDOCK:   -3.48 KCAL/MOL
REMARK 922        TOTAL FREE ENERGY PREDICTED BY IDOCK:   -4.80 KCAL/MOL
REMARK 923 INTER-LIGAND FREE ENERGY PREDICTED BY IDOCK:   -4.25 KCAL/MOL
REMARK 924 INTRA-LIGAND FREE ENERGY PREDICTED BY IDOCK:   -0.55 KCAL/MOL
REMARK 927      BINDING AFFINITY PREDICTED BY RF-SCORE:    0.00 PKD
ROOT
HETATM    1  O   UNL     1      -9.067   8.567  72.797  1.00  0.00    -0.267 OA 
HETATM    2  C   UNL     1      -9.698   8.838  71.786  1.00  0.00    -0.310 C  
ENDROOT
BRANCH   2   3
HETATM    3  O   UNL     1      -9.173   9.175  70.586  1.00  0.00    -0.216 OA 
BRANCH   3   4
HETATM    4  C   UNL     1      -8.223   8.252  70.034  1.00  0.00    -0.119 C  
BRANCH   4   5
HETATM    5  C   UNL     1      -8.588   7.996  68.595  1.00  0.00    -0.128 A  
HETATM    6  C   UNL     1      -8.045   7.098  66.405  1.00  0.00    -0.116 A  
HETATM    7  C   UNL     1      -9.243   7.597  65.897  1.00  0.00    -0.053 A  
HETATM    8  C   UNL     1      -7.717   7.298  67.747  1.00  0.00    -0.112 A  
HETATM    9  C   UNL     1     -10.117   8.293  66.731  1.00  0.00    -0.373 A  
HETATM   10  C   UNL     1      -9.791   8.494  68.072  1.00  0.00    -0.202 A  
ENDBRANCH   4   5
ENDBRANCH   3   4
ENDBRANCH   2   3
BRANCH   2  11
HETATM   11  C   UNL     1     -11.187   8.837  71.740  1.00  0.00    -0.410 A  
HETATM   12  C   UNL     1     -13.987   8.964  71.679  1.00  0.00    -0.417 A  
HETATM   13  C   UNL     1     -11.843  10.076  71.697  1.00  0.00    -0.315 A  
HETATM   14  C   UNL     1     -13.238  10.139  71.668  1.00  0.00    -0.518 A  
HETATM   15  C   UNL     1     -11.947   7.659  71.746  1.00  0.00    -0.333 A  
HETATM   16  C   UNL     1     -13.344   7.726  71.714  1.00  0.00    -0.362 A  
ENDBRANCH   2  11
TORSDOF 4
ENDMDL
MODEL      162
REMARK 921   NORMALIZED FREE ENERGY PREDICTED BY IDOCK:   -3.43 KCAL/MOL
REMARK 922        TOTAL FREE ENERGY PREDICTED BY IDOCK:   -4.74 KCAL/MOL
REMARK 923 INTER-LIGAND FREE ENERGY PREDICTED BY IDOCK:   -4.18 KCAL/MOL
REMARK 924 INTRA-LIGAND FREE ENERGY PREDICTED BY IDOCK:   -0.57 KCAL/MOL
REMARK 927      BINDING AFFINITY PREDICTED BY RF-SCORE:    0.00 PKD
ROOT
HETATM    1  O   UNL     1      -8.753  10.578  64.654  1.00  0.00    -0.183 OA 
HETATM    2  C   UNL     1      -9.281  10.755  65.742  1.00  0.00    -0.189 C  
ENDROOT
BRANCH   2   3
HETATM    3  O   UNL     1      -8.947  10.138  66.899  1.00  0.00    -0.132 OA 
BRANCH   3   4
HETATM    4  C   UNL     1      -9.491   8.824  67.090  1.00  0.00    -0.162 C  
BRANCH   4   5
HETATM    5  C   UNL     1      -9.714   8.612  68.565  1.00  0.00    -0.174 A  
HETATM    6  C   UNL     1      -9.356   9.277  70.873  1.00  0.00    -0.313 A  
HETATM    7  C   UNL     1     -10.069   8.163  71.311  1.00  0.00    -0.240 A  
HETATM    8  C   UNL     1      -9.177   9.501  69.507  1.00  0.00    -0.198 A  
HETATM    9  C   UNL     1     -10.607   7.272  70.383  1.00  0.00    -0.240 A  
HETATM   10  C   UNL     1     -10.430   7.493  69.018  1.00  0.00    -0.216 A  
ENDBRANCH   4   5
ENDBRANCH   3   4
ENDBRANCH   2   3
BRANCH   2  11
HETATM   11  C   UNL     1     -10.409  11.706  65.947  1.00  0.00    -0.289 A  
HETATM   12  C   UNL     1     -12.559  13.487  66.206  1.00  0.00    -0.298 A  
HETATM   13  C   UNL     1     -11.340  11.854  64.909  1.00  0.00    -0.337 A  
HETATM   14  C   UNL     1     -12.410  12.743  65.038  1.00  0.00    -0.559 A  
HETATM   15  C   UNL     1     -10.567  12.455  67.122  1.00  0.00    -0.247 A  
HETATM   16  C   UNL     1     -11.641  13.342  67.248  1.00  0.00    -0.400 A  
ENDBRANCH   2  11
TORSDOF 4
ENDMDL
MODEL      163
REMARK 921   NORMALIZED FREE ENERGY PREDICTED BY IDOCK:   -3.43 KCAL/MOL
REMARK 922        TOTAL FREE ENERGY PREDICTED BY IDOCK:   -4.73 KCAL/MOL
REMARK 923 INTER-LIGAND FREE ENERGY PREDICTED BY IDOCK:   -4.36 KCAL/MOL
REMARK 924 INTRA-LIGAND FREE ENERGY PREDICTED BY IDOCK:   -0.37 KCAL/MOL
REMARK 927      BINDING AFFINITY PREDICTED BY RF-SCORE:    0.00 PKD
ROOT
HETATM    1  O   UNL     1     -13.879   7.172  71.683  1.00  0.00    -0.375 OA 
HETATM    2  C   UNL     1     -12.791   7.660  71.414  1.00  0.00    -0.319 C  
ENDROOT
BRANCH   2   3
HETATM    3  O   UNL     1     -11.631   6.982  71.257  1.00  0.00    -0.272 OA 
BRANCH   3   4
HETATM    4  C   UNL     1     -11.475   5.808  72.068  1.00  0.00    -0.197 C  
BRANCH   4   5
HETATM    5  C   UNL     1     -10.004   5.594  72.315  1.00  0.00    -0.204 A  
HETATM    6  C   UNL     1      -7.879   6.355  73.211  1.00  0.00    -0.097 A  
HETATM    7  C   UNL     1      -7.250   5.222  72.697  1.00  0.00    -0.089 A  
HETATM    8  C   UNL     1      -9.249   6.542  73.020  1.00  0.00    -0.141 A  
HETATM    9  C   UNL     1      -7.991   4.273  71.994  1.00  0.00    -0.090 A  
HETATM   10  C   UNL     1      -9.360   4.458  71.801  1.00  0.00    -0.195 A  
ENDBRANCH   4   5
ENDBRANCH   3   4
ENDBRANCH   2   3
BRANCH   2  11
HETATM   11  C   UNL     1     -12.588   9.123  71.219  1.00  0.00    -0.351 A  
HETATM   12  C   UNL     1     -12.314  11.897  70.924  1.00  0.00    -0.400 A  
HETATM   13  C   UNL     1     -13.356  10.001  71.997  1.00  0.00    -0.513 A  
HETATM   14  C   UNL     1     -13.221  11.383  71.849  1.00  0.00    -0.485 A  
HETATM   15  C   UNL     1     -11.675   9.647  70.294  1.00  0.00    -0.213 A  
HETATM   16  C   UNL     1     -11.540  11.032  70.149  1.00  0.00    -0.421 A  
ENDBRANCH   2  11
TORSDOF 4
ENDMDL
MODEL      164
REMARK 921   NORMALIZED FREE ENERGY PREDICTED BY IDOCK:   -3.40 KCAL/MOL
REMARK 922        TOTAL FREE ENERGY PREDICTED BY IDOCK:   -4.70 KCAL/MOL
REMARK 923 INTER-LIGAND FREE ENERGY PREDICTED BY IDOCK:   -3.95 KCAL/MOL
REMARK 924 INTRA-LIGAND FREE ENERGY PREDICTED BY IDOCK:   -0.75 KCAL/MOL
REMARK 927      BINDING AFFINITY PREDICTED BY RF-SCORE:    0.00 PKD
ROOT
HETATM    1  O   UNL     1      -8.540   7.225  65.433  1.00  0.00    -0.121 OA 
HETATM    2  C   UNL     1      -9.266   7.761  66.258  1.00  0.00    -0.166 C  
ENDROOT
BRANCH   2   3
HETATM    3  O   UNL     1      -9.930   8.929  66.094  1.00  0.00    -0.291 OA 
BRANCH   3   4
HETATM    4  C   UNL     1      -9.201  10.119  66.431  1.00  0.00    -0.158 C  
BRANCH   4   5
HETATM    5  C   UNL     1     -10.093  11.004  67.262  1.00  0.00    -0.222 A  
HETATM    6  C   UNL     1     -11.413  11.389  69.264  1.00  0.00    -0.370 A  
HETATM    7  C   UNL     1     -11.819  12.625  68.765  1.00  0.00    -0.341 A  
HETATM    8  C   UNL     1     -10.556  10.580  68.516  1.00  0.00    -0.234 A  
HETATM    9  C   UNL     1     -11.366  13.056  67.519  1.00  0.00    -0.346 A  
HETATM   10  C   UNL     1     -10.510  12.249  66.770  1.00  0.00    -0.242 A  
ENDBRANCH   4   5
ENDBRANCH   3   4
ENDBRANCH   2   3
BRANCH   2  11
HETATM   11  C   UNL     1      -9.523   7.182  67.605  1.00  0.00    -0.141 A  
HETATM   12  C   UNL     1     -10.133   6.089  70.114  1.00  0.00    -0.249 A  
HETATM   13  C   UNL     1     -10.800   6.664  67.865  1.00  0.00    -0.353 A  
HETATM   14  C   UNL     1     -11.105   6.121  69.115  1.00  0.00    -0.448 A  
HETATM   15  C   UNL     1      -8.550   7.142  68.613  1.00  0.00    -0.124 A  
HETATM   16  C   UNL     1      -8.857   6.595  69.864  1.00  0.00    -0.144 A  
ENDBRANCH   2  11
TORSDOF 4
ENDMDL
MODEL      165
REMARK 921   NORMALIZED FREE ENERGY PREDICTED BY IDOCK:   -3.39 KCAL/MOL
REMARK 922        TOTAL FREE ENERGY PREDICTED BY IDOCK:   -4.69 KCAL/MOL
REMARK 923 INTER-LIGAND FREE ENERGY PREDICTED BY IDOCK:   -3.86 KCAL/MOL
REMARK 924 INTRA-LIGAND FREE ENERGY PREDICTED BY IDOCK:   -0.83 KCAL/MOL
REMARK 927      BINDING AFFINITY PREDICTED BY RF-SCORE:    0.00 PKD
ROOT
HETATM    1  O   UNL     1      -9.806   5.923  67.710  1.00  0.00    -0.114 OA 
HETATM    2  C   UNL     1     -10.480   6.677  68.396  1.00  0.00    -0.211 C  
ENDROOT
BRANCH   2   3
HETATM    3  O   UNL     1     -11.352   6.308  69.363  1.00  0.00    -0.412 OA 
BRANCH   3   4
HETATM    4  C   UNL     1     -10.864   5.360  70.322  1.00  0.00    -0.144 C  
BRANCH   4   5
HETATM    5  C   UNL     1     -10.295   6.118  71.493  1.00  0.00    -0.253 A  
HETATM    6  C   UNL     1     -10.588   7.606  73.390  1.00  0.00    -0.353 A  
HETATM    7  C   UNL     1      -9.213   7.592  73.621  1.00  0.00    -0.320 A  
HETATM    8  C   UNL     1     -11.127   6.875  72.330  1.00  0.00    -0.296 A  
HETATM    9  C   UNL     1      -8.376   6.843  72.794  1.00  0.00    -0.118 A  
HETATM   10  C   UNL     1      -8.913   6.112  71.734  1.00  0.00    -0.141 A  
ENDBRANCH   4   5
ENDBRANCH   3   4
ENDBRANCH   2   3
BRANCH   2  11
HETATM   11  C   UNL     1     -10.432   8.159  68.253  1.00  0.00    -0.210 A  
HETATM   12  C   UNL     1     -10.324  10.932  67.856  1.00  0.00    -0.216 A  
HETATM   13  C   UNL     1     -10.500   8.696  66.960  1.00  0.00    -0.354 A  
HETATM   14  C   UNL     1     -10.445  10.078  66.762  1.00  0.00    -0.267 A  
HETATM   15  C   UNL     1     -10.315   9.025  69.349  1.00  0.00    -0.217 A  
HETATM   16  C   UNL     1     -10.262  10.408  69.148  1.00  0.00    -0.239 A  
ENDBRANCH   2  11
TORSDOF 4
ENDMDL
MODEL      166
REMARK 921   NORMALIZED FREE ENERGY PREDICTED BY IDOCK:   -3.32 KCAL/MOL
REMARK 922        TOTAL FREE ENERGY PREDICTED BY IDOCK:   -4.61 KCAL/MOL
REMARK 923 INTER-LIGAND FREE ENERGY PREDICTED BY IDOCK:   -4.31 KCAL/MOL
REMARK 924 INTRA-LIGAND FREE ENERGY PREDICTED BY IDOCK:   -0.30 KCAL/MOL
REMARK 927      BINDING AFFINITY PREDICTED BY RF-SCORE:    0.00 PKD
ROOT
HETATM    1  O   UNL     1      -9.837  10.102  63.744  1.00  0.00    -0.252 OA 
HETATM    2  C   UNL     1      -9.782  10.174  64.963  1.00  0.00    -0.318 C  
ENDROOT
BRANCH   2   3
HETATM    3  O   UNL     1     -10.028  11.278  65.707  1.00  0.00    -0.218 OA 
BRANCH   3   4
HETATM    4  C   UNL     1     -10.227  12.497  64.977  1.00  0.00    -0.279 C  
BRANCH   4   5
HETATM    5  C   UNL     1     -10.460  13.610  65.965  1.00  0.00    -0.300 A  
HETATM    6  C   UNL     1     -11.591  14.494  67.924  1.00  0.00    -0.371 A  
HETATM    7  C   UNL     1     -10.946  15.718  67.751  1.00  0.00    -0.314 A  
HETATM    8  C   UNL     1     -11.351  13.445  67.035  1.00  0.00    -0.346 A  
HETATM    9  C   UNL     1     -10.058  15.893  66.691  1.00  0.00    -0.287 A  
HETATM   10  C   UNL     1      -9.817  14.846  65.801  1.00  0.00    -0.380 A  
ENDBRANCH   4   5
ENDBRANCH   3   4
ENDBRANCH   2   3
BRANCH   2  11
HETATM   11  C   UNL     1      -9.420   9.015  65.825  1.00  0.00    -0.305 A  
HETATM   12  C   UNL     1      -8.842   6.858  67.520  1.00  0.00    -0.118 A  
HETATM   13  C   UNL     1     -10.369   8.567  66.755  1.00  0.00    -0.346 A  
HETATM   14  C   UNL     1     -10.081   7.493  67.600  1.00  0.00    -0.243 A  
HETATM   15  C   UNL     1      -8.179   8.368  65.746  1.00  0.00    -0.131 A  
HETATM   16  C   UNL     1      -7.894   7.293  66.593  1.00  0.00    -0.102 A  
ENDBRANCH   2  11
TORSDOF 4
ENDMDL
MODEL      167
REMARK 921   NORMALIZED FREE ENERGY PREDICTED BY IDOCK:   -3.28 KCAL/MOL
REMARK 922        TOTAL FREE ENERGY PREDICTED BY IDOCK:   -4.56 KCAL/MOL
REMARK 923 INTER-LIGAND FREE ENERGY PREDICTED BY IDOCK:   -4.04 KCAL/MOL
REMARK 924 INTRA-LIGAND FREE ENERGY PREDICTED BY IDOCK:   -0.52 KCAL/MOL
REMARK 927      BINDING AFFINITY PREDICTED BY RF-SCORE:    0.00 PKD
ROOT
HETATM    1  O   UNL     1      -9.689   7.531  69.816  1.00  0.00    -0.170 OA 
HETATM    2  C   UNL     1     -10.088   8.686  69.768  1.00  0.00    -0.199 C  
ENDROOT
BRANCH   2   3
HETATM    3  O   UNL     1      -9.585   9.669  68.985  1.00  0.00    -0.158 OA 
BRANCH   3   4
HETATM    4  C   UNL     1      -8.191   9.961  69.159  1.00  0.00    -0.128 C  
BRANCH   4   5
HETATM    5  C   UNL     1      -7.951  11.392  68.756  1.00  0.00    -0.122 A  
HETATM    6  C   UNL     1      -6.516  13.349  68.666  1.00  0.00    -0.091 A  
HETATM    7  C   UNL     1      -7.542  14.082  68.073  1.00  0.00    -0.143 A  
HETATM    8  C   UNL     1      -6.718  12.011  69.008  1.00  0.00    -0.100 A  
HETATM    9  C   UNL     1      -8.772  13.477  67.818  1.00  0.00    -0.189 A  
HETATM   10  C   UNL     1      -8.977  12.140  68.160  1.00  0.00    -0.195 A  
ENDBRANCH   4   5
ENDBRANCH   3   4
ENDBRANCH   2   3
BRANCH   2  11
HETATM   11  C   UNL     1     -11.220   9.184  70.597  1.00  0.00    -0.322 A  
HETATM   12  C   UNL     1     -13.378   9.999  72.189  1.00  0.00    -0.469 A  
HETATM   13  C   UNL     1     -11.839   8.281  71.473  1.00  0.00    -0.335 A  
HETATM   14  C   UNL     1     -12.915   8.687  72.266  1.00  0.00    -0.430 A  
HETATM   15  C   UNL     1     -11.688  10.504  70.529  1.00  0.00    -0.443 A  
HETATM   16  C   UNL     1     -12.765  10.907  71.325  1.00  0.00    -0.542 A  
ENDBRANCH   2  11
TORSDOF 4
ENDMDL
MODEL      168
REMARK 921   NORMALIZED FREE ENERGY PREDICTED BY IDOCK:   -3.28 KCAL/MOL
REMARK 922        TOTAL FREE ENERGY PREDICTED BY IDOCK:   -4.55 KCAL/MOL
REMARK 923 INTER-LIGAND FREE ENERGY PREDICTED BY IDOCK:   -4.35 KCAL/MOL
REMARK 924 INTRA-LIGAND FREE ENERGY PREDICTED BY IDOCK:   -0.20 KCAL/MOL
REMARK 927      BINDING AFFINITY PREDICTED BY RF-SCORE:    0.00 PKD
ROOT
HETATM    1  O   UNL     1      -9.337   8.000  70.564  1.00  0.00    -0.154 OA 
HETATM    2  C   UNL     1      -9.832   8.994  70.053  1.00  0.00    -0.184 C  
ENDROOT
BRANCH   2   3
HETATM    3  O   UNL     1      -9.413   9.599  68.918  1.00  0.00    -0.150 OA 
BRANCH   3   4
HETATM    4  C   UNL     1     -10.162   9.298  67.731  1.00  0.00    -0.218 C  
BRANCH   4   5
HETATM    5  C   UNL     1      -9.297   9.595  66.534  1.00  0.00    -0.212 A  
HETATM    6  C   UNL     1      -9.044   9.934  64.143  1.00  0.00    -0.294 A  
HETATM    7  C   UNL     1      -7.666  10.068  64.302  1.00  0.00    -0.141 A  
HETATM    8  C   UNL     1      -9.857   9.696  65.253  1.00  0.00    -0.269 A  
HETATM    9  C   UNL     1      -7.099   9.968  65.572  1.00  0.00    -0.132 A  
HETATM   10  C   UNL     1      -7.909   9.731  66.682  1.00  0.00    -0.109 A  
ENDBRANCH   4   5
ENDBRANCH   3   4
ENDBRANCH   2   3
BRANCH   2  11
HETATM   11  C   UNL     1     -11.005   9.702  70.638  1.00  0.00    -0.386 A  
HETATM   12  C   UNL     1     -13.258  10.920  71.778  1.00  0.00    -0.513 A  
HETATM   13  C   UNL     1     -11.842   8.983  71.503  1.00  0.00    -0.415 A  
HETATM   14  C   UNL     1     -12.965   9.589  72.070  1.00  0.00    -0.514 A  
HETATM   15  C   UNL     1     -11.303  11.042  70.353  1.00  0.00    -0.222 A  
HETATM   16  C   UNL     1     -12.428  11.647  70.923  1.00  0.00    -0.440 A  
ENDBRANCH   2  11
TORSDOF 4
ENDMDL
MODEL      169
REMARK 921   NORMALIZED FREE ENERGY PREDICTED BY IDOCK:   -3.27 KCAL/MOL
REMARK 922        TOTAL FREE ENERGY PREDICTED BY IDOCK:   -4.54 KCAL/MOL
REMARK 923 INTER-LIGAND FREE ENERGY PREDICTED BY IDOCK:   -4.17 KCAL/MOL
REMARK 924 INTRA-LIGAND FREE ENERGY PREDICTED BY IDOCK:   -0.37 KCAL/MOL
REMARK 927      BINDING AFFINITY PREDICTED BY RF-SCORE:    0.00 PKD
ROOT
HETATM    1  O   UNL     1      -7.814   8.091  65.553  1.00  0.00    -0.094 OA 
HETATM    2  C   UNL     1      -8.687   8.859  65.929  1.00  0.00    -0.170 C  
ENDROOT
BRANCH   2   3
HETATM    3  O   UNL     1      -9.181   8.949  67.186  1.00  0.00    -0.134 OA 
BRANCH   3   4
HETATM    4  C   UNL     1      -8.450   8.247  68.201  1.00  0.00    -0.132 C  
BRANCH   4   5
HETATM    5  C   UNL     1      -9.161   8.435  69.516  1.00  0.00    -0.153 A  
HETATM    6  C   UNL     1      -9.728   7.648  71.742  1.00  0.00    -0.196 A  
HETATM    7  C   UNL     1     -10.554   8.754  71.929  1.00  0.00    -0.425 A  
HETATM    8  C   UNL     1      -9.035   7.487  70.541  1.00  0.00    -0.152 A  
HETATM    9  C   UNL     1     -10.687   9.703  70.916  1.00  0.00    -0.402 A  
HETATM   10  C   UNL     1      -9.996   9.544  69.715  1.00  0.00    -0.234 A  
ENDBRANCH   4   5
ENDBRANCH   3   4
ENDBRANCH   2   3
BRANCH   2  11
HETATM   11  C   UNL     1      -9.352   9.833  65.020  1.00  0.00    -0.325 A  
HETATM   12  C   UNL     1     -10.519  11.633  63.214  1.00  0.00    -0.438 A  
HETATM   13  C   UNL     1      -9.035   9.779  63.655  1.00  0.00    -0.270 A  
HETATM   14  C   UNL     1      -9.615  10.676  62.755  1.00  0.00    -0.333 A  
HETATM   15  C   UNL     1     -10.265  10.795  65.473  1.00  0.00    -0.330 A  
HETATM   16  C   UNL     1     -10.846  11.691  64.569  1.00  0.00    -0.383 A  
ENDBRANCH   2  11
TORSDOF 4
ENDMDL
MODEL      170
REMARK 921   NORMALIZED FREE ENERGY PREDICTED BY IDOCK:   -3.26 KCAL/MOL
REMARK 922        TOTAL FREE ENERGY PREDICTED BY IDOCK:   -4.53 KCAL/MOL
REMARK 923 INTER-LIGAND FREE ENERGY PREDICTED BY IDOCK:   -4.06 KCAL/MOL
REMARK 924 INTRA-LIGAND FREE ENERGY PREDICTED BY IDOCK:   -0.47 KCAL/MOL
REMARK 927      BINDING AFFINITY PREDICTED BY RF-SCORE:    0.00 PKD
ROOT
HETATM    1  O   UNL     1      -9.557  10.174  63.323  1.00  0.00    -0.301 OA 
HETATM    2  C   UNL     1      -9.872  10.303  64.497  1.00  0.00    -0.315 C  
ENDROOT
BRANCH   2   3
HETATM    3  O   UNL     1     -10.413  11.409  65.059  1.00  0.00    -0.277 OA 
BRANCH   3   4
HETATM    4  C   UNL     1      -9.567  12.134  65.962  1.00  0.00    -0.231 C  
BRANCH   4   5
HETATM    5  C   UNL     1     -10.437  12.821  66.982  1.00  0.00    -0.245 A  
HETATM    6  C   UNL     1     -11.988  14.588  67.588  1.00  0.00    -0.355 A  
HETATM    7  C   UNL     1     -11.990  14.142  68.908  1.00  0.00    -0.376 A  
HETATM    8  C   UNL     1     -11.214  13.934  66.629  1.00  0.00    -0.328 A  
HETATM    9  C   UNL     1     -11.221  13.037  69.271  1.00  0.00    -0.259 A  
HETATM   10  C   UNL     1     -10.446  12.381  68.314  1.00  0.00    -0.234 A  
ENDBRANCH   4   5
ENDBRANCH   3   4
ENDBRANCH   2   3
BRANCH   2  11
HETATM   11  C   UNL     1      -9.691   9.222  65.505  1.00  0.00    -0.247 A  
HETATM   12  C   UNL     1      -9.254   7.137  67.328  1.00  0.00    -0.145 A  
HETATM   13  C   UNL     1      -8.547   8.418  65.406  1.00  0.00    -0.193 A  
HETATM   14  C   UNL     1      -8.330   7.378  66.313  1.00  0.00    -0.132 A  
HETATM   15  C   UNL     1     -10.614   8.977  66.531  1.00  0.00    -0.076 A  
HETATM   16  C   UNL     1     -10.393   7.936  67.439  1.00  0.00    -0.349 A  
ENDBRANCH   2  11
TORSDOF 4
ENDMDL
MODEL      171
REMARK 921   NORMALIZED FREE ENERGY PREDICTED BY IDOCK:   -3.26 KCAL/MOL
REMARK 922        TOTAL FREE ENERGY PREDICTED BY IDOCK:   -4.53 KCAL/MOL
REMARK 923 INTER-LIGAND FREE ENERGY PREDICTED BY IDOCK:   -4.10 KCAL/MOL
REMARK 924 INTRA-LIGAND FREE ENERGY PREDICTED BY IDOCK:   -0.42 KCAL/MOL
REMARK 927      BINDING AFFINITY PREDICTED BY RF-SCORE:    0.00 PKD
ROOT
HETATM    1  O   UNL     1      -8.792   7.420  66.025  1.00  0.00    -0.162 OA 
HETATM    2  C   UNL     1      -8.866   8.454  66.673  1.00  0.00    -0.142 C  
ENDROOT
BRANCH   2   3
HETATM    3  O   UNL     1      -9.109   9.689  66.176  1.00  0.00    -0.147 OA 
BRANCH   3   4
HETATM    4  C   UNL     1      -9.561   9.742  64.815  1.00  0.00    -0.214 C  
BRANCH   4   5
HETATM    5  C   UNL     1     -10.499  10.911  64.670  1.00  0.00    -0.384 A  
HETATM    6  C   UNL     1     -11.685  12.508  63.276  1.00  0.00    -0.478 A  
HETATM    7  C   UNL     1     -12.181  13.141  64.414  1.00  0.00    -0.462 A  
HETATM    8  C   UNL     1     -10.846  11.399  63.402  1.00  0.00    -0.375 A  
HETATM    9  C   UNL     1     -11.843  12.665  65.679  1.00  0.00    -0.488 A  
HETATM   10  C   UNL     1     -11.004  11.557  65.808  1.00  0.00    -0.305 A  
ENDBRANCH   4   5
ENDBRANCH   3   4
ENDBRANCH   2   3
BRANCH   2  11
HETATM   11  C   UNL     1      -8.686   8.496  68.151  1.00  0.00    -0.142 A  
HETATM   12  C   UNL     1      -8.316   8.448  70.929  1.00  0.00    -0.149 A  
HETATM   13  C   UNL     1      -8.055   7.405  68.766  1.00  0.00    -0.128 A  
HETATM   14  C   UNL     1      -7.872   7.381  70.151  1.00  0.00    -0.099 A  
HETATM   15  C   UNL     1      -9.126   9.568  68.940  1.00  0.00    -0.141 A  
HETATM   16  C   UNL     1      -8.939   9.541  70.326  1.00  0.00    -0.288 A  
ENDBRANCH   2  11
TORSDOF 4
ENDMDL
MODEL      172
REMARK 921   NORMALIZED FREE ENERGY PREDICTED BY IDOCK:   -3.25 KCAL/MOL
REMARK 922        TOTAL FREE ENERGY PREDICTED BY IDOCK:   -4.52 KCAL/MOL
REMARK 923 INTER-LIGAND FREE ENERGY PREDICTED BY IDOCK:   -3.45 KCAL/MOL
REMARK 924 INTRA-LIGAND FREE ENERGY PREDICTED BY IDOCK:   -1.07 KCAL/MOL
REMARK 927      BINDING AFFINITY PREDICTED BY RF-SCORE:    0.00 PKD
ROOT
HETATM    1  O   UNL     1     -10.612   6.548  67.673  1.00  0.00    -0.199 OA 
HETATM    2  C   UNL     1     -10.636   6.074  68.799  1.00  0.00    -0.282 C  
ENDROOT
BRANCH   2   3
HETATM    3  O   UNL     1     -11.665   6.151  69.674  1.00  0.00    -0.331 OA 
BRANCH   3   4
HETATM    4  C   UNL     1     -11.780   7.383  70.402  1.00  0.00    -0.134 C  
BRANCH   4   5
HETATM    5  C   UNL     1     -10.881   7.308  71.609  1.00  0.00    -0.246 A  
HETATM    6  C   UNL     1     -10.305   6.329  73.755  1.00  0.00    -0.301 A  
HETATM    7  C   UNL     1      -9.251   7.231  73.890  1.00  0.00    -0.290 A  
HETATM    8  C   UNL     1     -11.118   6.368  72.622  1.00  0.00    -0.294 A  
HETATM    9  C   UNL     1      -9.007   8.170  72.889  1.00  0.00    -0.328 A  
HETATM   10  C   UNL     1      -9.818   8.211  71.756  1.00  0.00    -0.256 A  
ENDBRANCH   4   5
ENDBRANCH   3   4
ENDBRANCH   2   3
BRANCH   2  11
HETATM   11  C   UNL     1      -9.490   5.321  69.382  1.00  0.00    -0.190 A  
HETATM   12  C   UNL     1      -7.419   3.826  70.538  1.00  0.00    -0.041 A  
HETATM   13  C   UNL     1      -9.757   4.084  69.985  1.00  0.00    -0.264 A  
HETATM   14  C   UNL     1      -8.725   3.340  70.562  1.00  0.00    -0.130 A  
HETATM   15  C   UNL     1      -8.174   5.802  69.357  1.00  0.00    -0.108 A  
HETATM   16  C   UNL     1      -7.143   5.054  69.934  1.00  0.00    -0.054 A  
ENDBRANCH   2  11
TORSDOF 4
ENDMDL
MODEL      173
REMARK 921   NORMALIZED FREE ENERGY PREDICTED BY IDOCK:   -3.25 KCAL/MOL
REMARK 922        TOTAL FREE ENERGY PREDICTED BY IDOCK:   -4.51 KCAL/MOL
REMARK 923 INTER-LIGAND FREE ENERGY PREDICTED BY IDOCK:   -3.72 KCAL/MOL
REMARK 924 INTRA-LIGAND FREE ENERGY PREDICTED BY IDOCK:   -0.79 KCAL/MOL
REMARK 927      BINDING AFFINITY PREDICTED BY RF-SCORE:    0.00 PKD
ROOT
HETATM    1  O   UNL     1      -9.466   9.214  66.815  1.00  0.00    -0.154 OA 
HETATM    2  C   UNL     1      -9.305  10.107  67.635  1.00  0.00    -0.148 C  
ENDROOT
BRANCH   2   3
HETATM    3  O   UNL     1     -10.143  10.415  68.652  1.00  0.00    -0.162 OA 
BRANCH   3   4
HETATM    4  C   UNL     1     -11.484  10.763  68.278  1.00  0.00    -0.280 C  
BRANCH   4   5
HETATM    5  C   UNL     1     -11.631  12.259  68.373  1.00  0.00    -0.377 A  
HETATM    6  C   UNL     1     -11.892  14.427  67.311  1.00  0.00    -0.434 A  
HETATM    7  C   UNL     1     -11.822  15.051  68.555  1.00  0.00    -0.319 A  
HETATM    8  C   UNL     1     -11.795  13.038  67.219  1.00  0.00    -0.419 A  
HETATM    9  C   UNL     1     -11.658  14.287  69.709  1.00  0.00    -0.350 A  
HETATM   10  C   UNL     1     -11.561  12.898  69.619  1.00  0.00    -0.318 A  
ENDBRANCH   4   5
ENDBRANCH   3   4
ENDBRANCH   2   3
BRANCH   2  11
HETATM   11  C   UNL     1      -8.123  11.012  67.620  1.00  0.00    -0.116 A  
HETATM   12  C   UNL     1      -5.832  12.626  67.524  1.00  0.00    -0.140 A  
HETATM   13  C   UNL     1      -7.065  10.695  66.756  1.00  0.00    -0.118 A  
HETATM   14  C   UNL     1      -5.923  11.499  66.709  1.00  0.00    -0.139 A  
HETATM   15  C   UNL     1      -8.027  12.150  68.432  1.00  0.00    -0.152 A  
HETATM   16  C   UNL     1      -6.883  12.953  68.382  1.00  0.00    -0.096 A  
ENDBRANCH   2  11
TORSDOF 4
ENDMDL
MODEL      174
REMARK 921   NORMALIZED FREE ENERGY PREDICTED BY IDOCK:   -3.23 KCAL/MOL
REMARK 922        TOTAL FREE ENERGY PREDICTED BY IDOCK:   -4.50 KCAL/MOL
REMARK 923 INTER-LIGAND FREE ENERGY PREDICTED BY IDOCK:   -4.52 KCAL/MOL
REMARK 924 INTRA-LIGAND FREE ENERGY PREDICTED BY IDOCK:    0.03 KCAL/MOL
REMARK 927      BINDING AFFINITY PREDICTED BY RF-SCORE:    0.00 PKD
ROOT
HETATM    1  O   UNL     1     -10.129   5.943  67.967  1.00  0.00    -0.138 OA 
HETATM    2  C   UNL     1     -10.417   5.897  69.154  1.00  0.00    -0.270 C  
ENDROOT
BRANCH   2   3
HETATM    3  O   UNL     1     -11.629   6.168  69.690  1.00  0.00    -0.407 OA 
BRANCH   3   4
HETATM    4  C   UNL     1     -11.637   6.514  71.083  1.00  0.00    -0.335 C  
BRANCH   4   5
HETATM    5  C   UNL     1     -12.078   7.949  71.214  1.00  0.00    -0.317 A  
HETATM    6  C   UNL     1     -11.691  10.319  70.852  1.00  0.00    -0.472 A  
HETATM    7  C   UNL     1     -12.868  10.621  71.535  1.00  0.00    -0.567 A  
HETATM    8  C   UNL     1     -11.296   8.990  70.694  1.00  0.00    -0.311 A  
HETATM    9  C   UNL     1     -13.654   9.594  72.057  1.00  0.00    -0.467 A  
HETATM   10  C   UNL     1     -13.260   8.265  71.899  1.00  0.00    -0.366 A  
ENDBRANCH   4   5
ENDBRANCH   3   4
ENDBRANCH   2   3
BRANCH   2  11
HETATM   11  C   UNL     1      -9.433   5.526  70.209  1.00  0.00    -0.211 A  
HETATM   12  C   UNL     1      -7.513   4.934  72.164  1.00  0.00    -0.088 A  
HETATM   13  C   UNL     1      -8.478   6.482  70.581  1.00  0.00    -0.134 A  
HETATM   14  C   UNL     1      -7.520   6.187  71.554  1.00  0.00    -0.094 A  
HETATM   15  C   UNL     1      -9.423   4.270  70.830  1.00  0.00    -0.239 A  
HETATM   16  C   UNL     1      -8.464   3.978  71.806  1.00  0.00    -0.108 A  
ENDBRANCH   2  11
TORSDOF 4
ENDMDL
MODEL      175
REMARK 921   NORMALIZED FREE ENERGY PREDICTED BY IDOCK:   -3.19 KCAL/MOL
REMARK 922        TOTAL FREE ENERGY PREDICTED BY IDOCK:   -4.44 KCAL/MOL
REMARK 923 INTER-LIGAND FREE ENERGY PREDICTED BY IDOCK:   -4.09 KCAL/MOL
REMARK 924 INTRA-LIGAND FREE ENERGY PREDICTED BY IDOCK:   -0.35 KCAL/MOL
REMARK 927      BINDING AFFINITY PREDICTED BY RF-SCORE:    0.00 PKD
ROOT
HETATM    1  O   UNL     1      -9.528  10.029  66.107  1.00  0.00    -0.169 OA 
HETATM    2  C   UNL     1     -10.447  10.279  66.874  1.00  0.00    -0.229 C  
ENDROOT
BRANCH   2   3
HETATM    3  O   UNL     1     -11.030   9.408  67.729  1.00  0.00    -0.219 OA 
BRANCH   3   4
HETATM    4  C   UNL     1     -10.150   8.741  68.645  1.00  0.00    -0.189 C  
BRANCH   4   5
HETATM    5  C   UNL     1      -9.914   7.341  68.143  1.00  0.00    -0.181 A  
HETATM    6  C   UNL     1      -8.428   5.638  67.253  1.00  0.00    -0.106 A  
HETATM    7  C   UNL     1      -9.501   4.757  67.133  1.00  0.00    -0.164 A  
HETATM    8  C   UNL     1      -8.632   6.925  67.753  1.00  0.00    -0.122 A  
HETATM    9  C   UNL     1     -10.779   5.159  67.517  1.00  0.00     0.024 A  
HETATM   10  C   UNL     1     -10.986   6.445  68.017  1.00  0.00    -0.400 A  
ENDBRANCH   4   5
ENDBRANCH   3   4
ENDBRANCH   2   3
BRANCH   2  11
HETATM   11  C   UNL     1     -11.073  11.627  66.969  1.00  0.00    -0.359 A  
HETATM   12  C   UNL     1     -12.235  14.178  67.019  1.00  0.00    -0.374 A  
HETATM   13  C   UNL     1     -11.419  12.275  65.775  1.00  0.00    -0.417 A  
HETATM   14  C   UNL     1     -11.997  13.547  65.800  1.00  0.00    -0.439 A  
HETATM   15  C   UNL     1     -11.320  12.266  68.192  1.00  0.00    -0.349 A  
HETATM   16  C   UNL     1     -11.900  13.538  68.213  1.00  0.00    -0.401 A  
ENDBRANCH   2  11
TORSDOF 4
ENDMDL
MODEL      176
REMARK 921   NORMALIZED FREE ENERGY PREDICTED BY IDOCK:   -3.18 KCAL/MOL
REMARK 922        TOTAL FREE ENERGY PREDICTED BY IDOCK:   -4.43 KCAL/MOL
REMARK 923 INTER-LIGAND FREE ENERGY PREDICTED BY IDOCK:   -4.14 KCAL/MOL
REMARK 924 INTRA-LIGAND FREE ENERGY PREDICTED BY IDOCK:   -0.29 KCAL/MOL
REMARK 927      BINDING AFFINITY PREDICTED BY RF-SCORE:    0.00 PKD
ROOT
HETATM    1  O   UNL     1      -7.721  10.176  68.278  1.00  0.00    -0.086 OA 
HETATM    2  C   UNL     1      -8.811   9.847  67.832  1.00  0.00    -0.129 C  
ENDROOT
BRANCH   2   3
HETATM    3  O   UNL     1      -9.685   8.995  68.416  1.00  0.00    -0.151 OA 
BRANCH   3   4
HETATM    4  C   UNL     1     -10.529   9.558  69.431  1.00  0.00    -0.217 C  
BRANCH   4   5
HETATM    5  C   UNL     1     -10.323   8.781  70.705  1.00  0.00    -0.264 A  
HETATM    6  C   UNL     1     -11.205   7.434  72.524  1.00  0.00    -0.363 A  
HETATM    7  C   UNL     1      -9.946   7.406  73.121  1.00  0.00    -0.318 A  
HETATM    8  C   UNL     1     -11.395   8.120  71.323  1.00  0.00    -0.300 A  
HETATM    9  C   UNL     1      -8.874   8.060  72.516  1.00  0.00    -0.237 A  
HETATM   10  C   UNL     1      -9.061   8.746  71.316  1.00  0.00    -0.300 A  
ENDBRANCH   4   5
ENDBRANCH   3   4
ENDBRANCH   2   3
BRANCH   2  11
HETATM   11  C   UNL     1      -9.340  10.355  66.536  1.00  0.00    -0.193 A  
HETATM   12  C   UNL     1     -10.248  11.238  64.035  1.00  0.00    -0.403 A  
HETATM   13  C   UNL     1      -8.934   9.706  65.362  1.00  0.00    -0.231 A  
HETATM   14  C   UNL     1      -9.385  10.146  64.115  1.00  0.00    -0.340 A  
HETATM   15  C   UNL     1     -10.212  11.449  66.448  1.00  0.00    -0.270 A  
HETATM   16  C   UNL     1     -10.664  11.886  65.199  1.00  0.00    -0.339 A  
ENDBRANCH   2  11
TORSDOF 4
ENDMDL
MODEL      177
REMARK 921   NORMALIZED FREE ENERGY PREDICTED BY IDOCK:   -3.14 KCAL/MOL
REMARK 922        TOTAL FREE ENERGY PREDICTED BY IDOCK:   -4.38 KCAL/MOL
REMARK 923 INTER-LIGAND FREE ENERGY PREDICTED BY IDOCK:   -3.95 KCAL/MOL
REMARK 924 INTRA-LIGAND FREE ENERGY PREDICTED BY IDOCK:   -0.43 KCAL/MOL
REMARK 927      BINDING AFFINITY PREDICTED BY RF-SCORE:    0.00 PKD
ROOT
HETATM    1  O   UNL     1     -10.528   8.333  67.589  1.00  0.00    -0.239 OA 
HETATM    2  C   UNL     1     -10.814   7.413  68.341  1.00  0.00    -0.017 C  
ENDROOT
BRANCH   2   3
HETATM    3  O   UNL     1     -11.033   6.128  67.978  1.00  0.00    -0.312 OA 
BRANCH   3   4
HETATM    4  C   UNL     1     -10.658   5.779  66.638  1.00  0.00    -0.280 C  
BRANCH   4   5
HETATM    5  C   UNL     1      -9.912   4.471  66.678  1.00  0.00    -0.253 A  
HETATM    6  C   UNL     1      -8.613   2.816  67.891  1.00  0.00    -0.116 A  
HETATM    7  C   UNL     1      -8.454   2.075  66.722  1.00  0.00    -0.101 A  
HETATM    8  C   UNL     1      -9.337   4.010  67.870  1.00  0.00    -0.220 A  
HETATM    9  C   UNL     1      -9.021   2.525  65.530  1.00  0.00    -0.133 A  
HETATM   10  C   UNL     1      -9.744   3.718  65.506  1.00  0.00    -0.151 A  
ENDBRANCH   4   5
ENDBRANCH   3   4
ENDBRANCH   2   3
BRANCH   2  11
HETATM   11  C   UNL     1     -10.970   7.591  69.811  1.00  0.00    -0.195 A  
HETATM   12  C   UNL     1     -11.345   7.824  72.579  1.00  0.00    -0.429 A  
HETATM   13  C   UNL     1     -11.613   6.574  70.530  1.00  0.00    -0.455 A  
HETATM   14  C   UNL     1     -11.801   6.691  71.910  1.00  0.00    -0.375 A  
HETATM   15  C   UNL     1     -10.509   8.726  70.492  1.00  0.00    -0.246 A  
HETATM   16  C   UNL     1     -10.697   8.839  71.873  1.00  0.00    -0.429 A  
ENDBRANCH   2  11
TORSDOF 4
ENDMDL
MODEL      178
REMARK 921   NORMALIZED FREE ENERGY PREDICTED BY IDOCK:   -3.10 KCAL/MOL
REMARK 922        TOTAL FREE ENERGY PREDICTED BY IDOCK:   -4.34 KCAL/MOL
REMARK 923 INTER-LIGAND FREE ENERGY PREDICTED BY IDOCK:   -3.92 KCAL/MOL
REMARK 924 INTRA-LIGAND FREE ENERGY PREDICTED BY IDOCK:   -0.41 KCAL/MOL
REMARK 927      BINDING AFFINITY PREDICTED BY RF-SCORE:    0.00 PKD
ROOT
HETATM    1  O   UNL     1      -9.566   8.168  66.139  1.00  0.00    -0.195 OA 
HETATM    2  C   UNL     1     -10.142   8.681  67.088  1.00  0.00    -0.261 C  
ENDROOT
BRANCH   2   3
HETATM    3  O   UNL     1     -10.601   9.952  67.147  1.00  0.00    -0.245 OA 
BRANCH   3   4
HETATM    4  C   UNL     1     -10.275  10.791  66.030  1.00  0.00    -0.251 C  
BRANCH   4   5
HETATM    5  C   UNL     1      -9.419  11.929  66.523  1.00  0.00    -0.226 A  
HETATM    6  C   UNL     1      -9.098  14.297  66.957  1.00  0.00    -0.246 A  
HETATM    7  C   UNL     1      -7.789  14.050  67.366  1.00  0.00    -0.188 A  
HETATM    8  C   UNL     1      -9.910  13.242  66.535  1.00  0.00    -0.281 A  
HETATM    9  C   UNL     1      -7.291  12.749  67.358  1.00  0.00    -0.135 A  
HETATM   10  C   UNL     1      -8.099  11.693  66.936  1.00  0.00    -0.164 A  
ENDBRANCH   4   5
ENDBRANCH   3   4
ENDBRANCH   2   3
BRANCH   2  11
HETATM   11  C   UNL     1     -10.423   7.948  68.353  1.00  0.00    -0.207 A  
HETATM   12  C   UNL     1     -10.898   6.668  70.802  1.00  0.00    -0.299 A  
HETATM   13  C   UNL     1     -10.276   8.645  69.561  1.00  0.00    -0.209 A  
HETATM   14  C   UNL     1     -10.511   8.007  70.781  1.00  0.00    -0.221 A  
HETATM   15  C   UNL     1     -10.818   6.604  68.382  1.00  0.00    -0.320 A  
HETATM   16  C   UNL     1     -11.054   5.968  69.605  1.00  0.00    -0.474 A  
ENDBRANCH   2  11
TORSDOF 4
ENDMDL
MODEL      179
REMARK 921   NORMALIZED FREE ENERGY PREDICTED BY IDOCK:   -3.10 KCAL/MOL
REMARK 922        TOTAL FREE ENERGY PREDICTED BY IDOCK:   -4.33 KCAL/MOL
REMARK 923 INTER-LIGAND FREE ENERGY PREDICTED BY IDOCK:   -3.98 KCAL/MOL
REMARK 924 INTRA-LIGAND FREE ENERGY PREDICTED BY IDOCK:   -0.36 KCAL/MOL
REMARK 927      BINDING AFFINITY PREDICTED BY RF-SCORE:    0.00 PKD
ROOT
HETATM    1  O   UNL     1     -10.454  10.357  65.280  1.00  0.00    -0.249 OA 
HETATM    2  C   UNL     1     -10.669  10.343  66.483  1.00  0.00    -0.092 C  
ENDROOT
BRANCH   2   3
HETATM    3  O   UNL     1     -11.174  11.364  67.214  1.00  0.00    -0.285 OA 
BRANCH   3   4
HETATM    4  C   UNL     1     -11.530  12.546  66.481  1.00  0.00    -0.362 C  
BRANCH   4   5
HETATM    5  C   UNL     1     -11.012  13.745  67.231  1.00  0.00    -0.302 A  
HETATM    6  C   UNL     1      -9.241  15.338  67.702  1.00  0.00    -0.187 A  
HETATM    7  C   UNL     1     -10.026  15.928  68.691  1.00  0.00    -0.214 A  
HETATM    8  C   UNL     1      -9.729  14.250  66.976  1.00  0.00    -0.253 A  
HETATM    9  C   UNL     1     -11.303  15.433  68.953  1.00  0.00    -0.322 A  
HETATM   10  C   UNL     1     -11.793  14.346  68.229  1.00  0.00    -0.361 A  
ENDBRANCH   4   5
ENDBRANCH   3   4
ENDBRANCH   2   3
BRANCH   2  11
HETATM   11  C   UNL     1     -10.390   9.157  67.340  1.00  0.00    -0.330 A  
HETATM   12  C   UNL     1      -9.886   6.999  69.056  1.00  0.00    -0.154 A  
HETATM   13  C   UNL     1     -10.726   9.235  68.699  1.00  0.00    -0.180 A  
HETATM   14  C   UNL     1     -10.474   8.160  69.554  1.00  0.00    -0.227 A  
HETATM   15  C   UNL     1      -9.803   7.984  66.845  1.00  0.00    -0.318 A  
HETATM   16  C   UNL     1      -9.554   6.909  67.704  1.00  0.00    -0.143 A  
ENDBRANCH   2  11
TORSDOF 4
ENDMDL
MODEL      180
REMARK 921   NORMALIZED FREE ENERGY PREDICTED BY IDOCK:   -3.09 KCAL/MOL
REMARK 922        TOTAL FREE ENERGY PREDICTED BY IDOCK:   -4.32 KCAL/MOL
REMARK 923 INTER-LIGAND FREE ENERGY PREDICTED BY IDOCK:   -3.25 KCAL/MOL
REMARK 924 INTRA-LIGAND FREE ENERGY PREDICTED BY IDOCK:   -1.07 KCAL/MOL
REMARK 927      BINDING AFFINITY PREDICTED BY RF-SCORE:    0.00 PKD
ROOT
HETATM    1  O   UNL     1     -10.908   6.755  68.204  1.00  0.00    -0.233 OA 
HETATM    2  C   UNL     1     -10.376   7.810  68.516  1.00  0.00    -0.197 C  
ENDROOT
BRANCH   2   3
HETATM    3  O   UNL     1      -9.686   8.046  69.657  1.00  0.00    -0.168 OA 
BRANCH   3   4
HETATM    4  C   UNL     1      -8.289   7.723  69.625  1.00  0.00    -0.129 C  
BRANCH   4   5
HETATM    5  C   UNL     1      -7.537   8.916  69.097  1.00  0.00    -0.080 A  
HETATM    6  C   UNL     1      -6.069   9.927  67.447  1.00  0.00    -0.058 A  
HETATM    7  C   UNL     1      -6.074  11.121  68.166  1.00  0.00    -0.049 A  
HETATM    8  C   UNL     1      -6.795   8.828  67.910  1.00  0.00    -0.070 A  
HETATM    9  C   UNL     1      -6.807  11.220  69.347  1.00  0.00    -0.121 A  
HETATM   10  C   UNL     1      -7.533  10.123  69.812  1.00  0.00    -0.166 A  
ENDBRANCH   4   5
ENDBRANCH   3   4
ENDBRANCH   2   3
BRANCH   2  11
HETATM   11  C   UNL     1     -10.419   9.023  67.654  1.00  0.00    -0.324 A  
HETATM   12  C   UNL     1     -10.426  11.245  65.944  1.00  0.00    -0.314 A  
HETATM   13  C   UNL     1      -9.951   8.909  66.337  1.00  0.00    -0.354 A  
HETATM   14  C   UNL     1      -9.953  10.016  65.485  1.00  0.00    -0.367 A  
HETATM   15  C   UNL     1     -10.898  10.260  68.106  1.00  0.00    -0.312 A  
HETATM   16  C   UNL     1     -10.900  11.367  67.251  1.00  0.00    -0.311 A  
ENDBRANCH   2  11
TORSDOF 4
ENDMDL
MODEL      181
REMARK 921   NORMALIZED FREE ENERGY PREDICTED BY IDOCK:   -3.08 KCAL/MOL
REMARK 922        TOTAL FREE ENERGY PREDICTED BY IDOCK:   -4.31 KCAL/MOL
REMARK 923 INTER-LIGAND FREE ENERGY PREDICTED BY IDOCK:   -3.96 KCAL/MOL
REMARK 924 INTRA-LIGAND FREE ENERGY PREDICTED BY IDOCK:   -0.35 KCAL/MOL
REMARK 927      BINDING AFFINITY PREDICTED BY RF-SCORE:    0.00 PKD
ROOT
HETATM    1  O   UNL     1     -10.267   7.851  68.202  1.00  0.00    -0.192 OA 
HETATM    2  C   UNL     1     -10.519   8.629  69.111  1.00  0.00    -0.211 C  
ENDROOT
BRANCH   2   3
HETATM    3  O   UNL     1     -10.419   8.365  70.434  1.00  0.00    -0.205 OA 
BRANCH   3   4
HETATM    4  C   UNL     1      -9.154   7.856  70.880  1.00  0.00    -0.151 C  
BRANCH   4   5
HETATM    5  C   UNL     1      -9.404   6.635  71.726  1.00  0.00    -0.148 A  
HETATM    6  C   UNL     1     -10.114   4.322  71.940  1.00  0.00    -0.237 A  
HETATM    7  C   UNL     1      -9.944   4.392  73.322  1.00  0.00    -0.183 A  
HETATM    8  C   UNL     1      -9.847   5.438  71.145  1.00  0.00    -0.243 A  
HETATM    9  C   UNL     1      -9.504   5.577  73.910  1.00  0.00    -0.139 A  
HETATM   10  C   UNL     1      -9.237   6.693  73.118  1.00  0.00    -0.142 A  
ENDBRANCH   4   5
ENDBRANCH   3   4
ENDBRANCH   2   3
BRANCH   2  11
HETATM   11  C   UNL     1     -10.993  10.021  68.875  1.00  0.00    -0.244 A  
HETATM   12  C   UNL     1     -11.844  12.631  68.307  1.00  0.00    -0.354 A  
HETATM   13  C   UNL     1     -11.069  10.472  67.550  1.00  0.00    -0.358 A  
HETATM   14  C   UNL     1     -11.492  11.773  67.267  1.00  0.00    -0.373 A  
HETATM   15  C   UNL     1     -11.353  10.888  69.916  1.00  0.00    -0.381 A  
HETATM   16  C   UNL     1     -11.777  12.189  69.629  1.00  0.00    -0.396 A  
ENDBRANCH   2  11
TORSDOF 4
ENDMDL
MODEL      182
REMARK 921   NORMALIZED FREE ENERGY PREDICTED BY IDOCK:   -3.07 KCAL/MOL
REMARK 922        TOTAL FREE ENERGY PREDICTED BY IDOCK:   -4.30 KCAL/MOL
REMARK 923 INTER-LIGAND FREE ENERGY PREDICTED BY IDOCK:   -4.03 KCAL/MOL
REMARK 924 INTRA-LIGAND FREE ENERGY PREDICTED BY IDOCK:   -0.27 KCAL/MOL
REMARK 927      BINDING AFFINITY PREDICTED BY RF-SCORE:    0.00 PKD
ROOT
HETATM    1  O   UNL     1      -8.892   8.965  72.417  1.00  0.00    -0.396 OA 
HETATM    2  C   UNL     1      -9.563   8.582  71.469  1.00  0.00    -0.228 C  
ENDROOT
BRANCH   2   3
HETATM    3  O   UNL     1      -9.630   7.314  71.003  1.00  0.00    -0.159 OA 
BRANCH   3   4
HETATM    4  C   UNL     1      -8.478   6.493  71.243  1.00  0.00    -0.126 C  
BRANCH   4   5
HETATM    5  C   UNL     1      -8.847   5.061  70.958  1.00  0.00    -0.153 A  
HETATM    6  C   UNL     1      -9.026   3.191  69.419  1.00  0.00    -0.178 A  
HETATM    7  C   UNL     1      -9.613   2.417  70.418  1.00  0.00    -0.113 A  
HETATM    8  C   UNL     1      -8.646   4.507  69.686  1.00  0.00    -0.102 A  
HETATM    9  C   UNL     1      -9.818   2.957  71.687  1.00  0.00    -0.209 A  
HETATM   10  C   UNL     1      -9.440   4.273  71.956  1.00  0.00    -0.192 A  
ENDBRANCH   4   5
ENDBRANCH   3   4
ENDBRANCH   2   3
BRANCH   2  11
HETATM   11  C   UNL     1     -10.424   9.496  70.669  1.00  0.00    -0.374 A  
HETATM   12  C   UNL     1     -12.144  11.191  69.245  1.00  0.00    -0.377 A  
HETATM   13  C   UNL     1     -11.657   9.882  71.215  1.00  0.00    -0.456 A  
HETATM   14  C   UNL     1     -12.514  10.725  70.505  1.00  0.00    -0.447 A  
HETATM   15  C   UNL     1     -10.057   9.972  69.403  1.00  0.00    -0.235 A  
HETATM   16  C   UNL     1     -10.917  10.818  68.695  1.00  0.00    -0.285 A  
ENDBRANCH   2  11
TORSDOF 4
ENDMDL
MODEL      183
REMARK 921   NORMALIZED FREE ENERGY PREDICTED BY IDOCK:   -3.07 KCAL/MOL
REMARK 922        TOTAL FREE ENERGY PREDICTED BY IDOCK:   -4.29 KCAL/MOL
REMARK 923 INTER-LIGAND FREE ENERGY PREDICTED BY IDOCK:   -3.68 KCAL/MOL
REMARK 924 INTRA-LIGAND FREE ENERGY PREDICTED BY IDOCK:   -0.61 KCAL/MOL
REMARK 927      BINDING AFFINITY PREDICTED BY RF-SCORE:    0.00 PKD
ROOT
HETATM    1  O   UNL     1     -12.018  12.228  69.018  1.00  0.00    -0.300 OA 
HETATM    2  C   UNL     1     -11.429  11.831  68.023  1.00  0.00    -0.319 C  
ENDROOT
BRANCH   2   3
HETATM    3  O   UNL     1     -11.337  12.482  66.840  1.00  0.00    -0.288 OA 
BRANCH   3   4
HETATM    4  C   UNL     1     -11.187  13.907  66.916  1.00  0.00    -0.312 C  
BRANCH   4   5
HETATM    5  C   UNL     1      -9.813  14.212  67.453  1.00  0.00    -0.239 A  
HETATM    6  C   UNL     1      -7.402  13.943  67.362  1.00  0.00    -0.129 A  
HETATM    7  C   UNL     1      -7.266  14.721  68.510  1.00  0.00    -0.115 A  
HETATM    8  C   UNL     1      -8.669  13.687  66.836  1.00  0.00    -0.162 A  
HETATM    9  C   UNL     1      -8.396  15.248  69.133  1.00  0.00    -0.233 A  
HETATM   10  C   UNL     1      -9.664  14.993  68.609  1.00  0.00    -0.219 A  
ENDBRANCH   4   5
ENDBRANCH   3   4
ENDBRANCH   2   3
BRANCH   2  11
HETATM   11  C   UNL     1     -10.711  10.528  67.977  1.00  0.00    -0.287 A  
HETATM   12  C   UNL     1      -9.365   8.068  68.019  1.00  0.00    -0.146 A  
HETATM   13  C   UNL     1     -10.674   9.756  69.147  1.00  0.00    -0.242 A  
HETATM   14  C   UNL     1     -10.003   8.531  69.169  1.00  0.00    -0.194 A  
HETATM   15  C   UNL     1     -10.071  10.053  66.823  1.00  0.00    -0.286 A  
HETATM   16  C   UNL     1      -9.401   8.825  66.847  1.00  0.00    -0.213 A  
ENDBRANCH   2  11
TORSDOF 4
ENDMDL
MODEL      184
REMARK 921   NORMALIZED FREE ENERGY PREDICTED BY IDOCK:   -3.01 KCAL/MOL
REMARK 922        TOTAL FREE ENERGY PREDICTED BY IDOCK:   -4.23 KCAL/MOL
REMARK 923 INTER-LIGAND FREE ENERGY PREDICTED BY IDOCK:   -3.17 KCAL/MOL
REMARK 924 INTRA-LIGAND FREE ENERGY PREDICTED BY IDOCK:   -1.06 KCAL/MOL
REMARK 927      BINDING AFFINITY PREDICTED BY RF-SCORE:    0.00 PKD
ROOT
HETATM    1  O   UNL     1     -11.447   5.578  71.886  1.00  0.00    -0.154 OA 
HETATM    2  C   UNL     1     -10.449   5.752  71.203  1.00  0.00    -0.239 C  
ENDROOT
BRANCH   2   3
HETATM    3  O   UNL     1      -9.234   6.144  71.654  1.00  0.00    -0.146 OA 
BRANCH   3   4
HETATM    4  C   UNL     1      -9.003   7.559  71.688  1.00  0.00    -0.123 C  
BRANCH   4   5
HETATM    5  C   UNL     1      -8.412   7.978  70.367  1.00  0.00    -0.130 A  
HETATM    6  C   UNL     1      -8.385   9.450  68.437  1.00  0.00    -0.119 A  
HETATM    7  C   UNL     1      -7.358   8.698  67.870  1.00  0.00    -0.092 A  
HETATM    8  C   UNL     1      -8.912   9.092  69.678  1.00  0.00    -0.153 A  
HETATM    9  C   UNL     1      -6.853   7.588  68.546  1.00  0.00    -0.066 A  
HETATM   10  C   UNL     1      -7.379   7.227  69.787  1.00  0.00    -0.084 A  
ENDBRANCH   4   5
ENDBRANCH   3   4
ENDBRANCH   2   3
BRANCH   2  11
HETATM   11  C   UNL     1     -10.435   5.553  69.727  1.00  0.00    -0.389 A  
HETATM   12  C   UNL     1     -10.310   5.098  66.964  1.00  0.00    -0.267 A  
HETATM   13  C   UNL     1      -9.658   4.505  69.213  1.00  0.00    -0.258 A  
HETATM   14  C   UNL     1      -9.595   4.279  67.836  1.00  0.00    -0.207 A  
HETATM   15  C   UNL     1     -11.155   6.369  68.844  1.00  0.00    -0.420 A  
HETATM   16  C   UNL     1     -11.091   6.139  67.466  1.00  0.00    -0.318 A  
ENDBRANCH   2  11
TORSDOF 4
ENDMDL
MODEL      185
REMARK 921   NORMALIZED FREE ENERGY PREDICTED BY IDOCK:   -2.93 KCAL/MOL
REMARK 922        TOTAL FREE ENERGY PREDICTED BY IDOCK:   -4.12 KCAL/MOL
REMARK 923 INTER-LIGAND FREE ENERGY PREDICTED BY IDOCK:   -3.08 KCAL/MOL
REMARK 924 INTRA-LIGAND FREE ENERGY PREDICTED BY IDOCK:   -1.04 KCAL/MOL
REMARK 927      BINDING AFFINITY PREDICTED BY RF-SCORE:    0.00 PKD
ROOT
HETATM    1  O   UNL     1     -11.980   6.564  70.488  1.00  0.00    -0.388 OA 
HETATM    2  C   UNL     1     -11.091   6.405  69.665  1.00  0.00    -0.401 C  
ENDROOT
BRANCH   2   3
HETATM    3  O   UNL     1     -10.394   5.263  69.457  1.00  0.00    -0.253 OA 
BRANCH   3   4
HETATM    4  C   UNL     1      -9.315   5.010  70.367  1.00  0.00    -0.158 C  
BRANCH   4   5
HETATM    5  C   UNL     1      -8.144   5.870  69.969  1.00  0.00    -0.109 A  
HETATM    6  C   UNL     1      -6.439   6.504  68.360  1.00  0.00    -0.049 A  
HETATM    7  C   UNL     1      -5.914   7.421  69.269  1.00  0.00    -0.030 A  
HETATM    8  C   UNL     1      -7.548   5.731  68.708  1.00  0.00    -0.089 A  
HETATM    9  C   UNL     1      -6.499   7.568  70.526  1.00  0.00    -0.038 A  
HETATM   10  C   UNL     1      -7.606   6.795  70.876  1.00  0.00    -0.088 A  
ENDBRANCH   4   5
ENDBRANCH   3   4
ENDBRANCH   2   3
BRANCH   2  11
HETATM   11  C   UNL     1     -10.634   7.487  68.750  1.00  0.00    -0.179 A  
HETATM   12  C   UNL     1      -9.785   9.610  67.127  1.00  0.00    -0.222 A  
HETATM   13  C   UNL     1     -10.281   8.720  69.318  1.00  0.00    -0.215 A  
HETATM   14  C   UNL     1      -9.860   9.778  68.509  1.00  0.00    -0.169 A  
HETATM   15  C   UNL     1     -10.552   7.324  67.361  1.00  0.00    -0.370 A  
HETATM   16  C   UNL     1     -10.128   8.385  66.554  1.00  0.00    -0.317 A  
ENDBRANCH   2  11
TORSDOF 4
ENDMDL
MODEL      186
REMARK 921   NORMALIZED FREE ENERGY PREDICTED BY IDOCK:   -2.88 KCAL/MOL
REMARK 922        TOTAL FREE ENERGY PREDICTED BY IDOCK:   -4.06 KCAL/MOL
REMARK 923 INTER-LIGAND FREE ENERGY PREDICTED BY IDOCK:   -3.70 KCAL/MOL
REMARK 924 INTRA-LIGAND FREE ENERGY PREDICTED BY IDOCK:   -0.35 KCAL/MOL
REMARK 927      BINDING AFFINITY PREDICTED BY RF-SCORE:    0.00 PKD
ROOT
HETATM    1  O   UNL     1     -10.020   6.615  67.925  1.00  0.00    -0.125 OA 
HETATM    2  C   UNL     1     -10.143   7.712  68.450  1.00  0.00    -0.186 C  
ENDROOT
BRANCH   2   3
HETATM    3  O   UNL     1      -9.712   8.890  67.943  1.00  0.00    -0.151 OA 
BRANCH   3   4
HETATM    4  C   UNL     1      -8.372   8.901  67.430  1.00  0.00    -0.108 C  
BRANCH   4   5
HETATM    5  C   UNL     1      -8.439   8.875  65.925  1.00  0.00    -0.147 A  
HETATM    6  C   UNL     1      -7.592   8.099  63.786  1.00  0.00    -0.128 A  
HETATM    7  C   UNL     1      -8.520   8.899  63.122  1.00  0.00    -0.162 A  
HETATM    8  C   UNL     1      -7.549   8.088  65.181  1.00  0.00    -0.098 A  
HETATM    9  C   UNL     1      -9.409   9.687  63.851  1.00  0.00    -0.096 A  
HETATM   10  C   UNL     1      -9.368   9.677  65.246  1.00  0.00    -0.322 A  
ENDBRANCH   4   5
ENDBRANCH   3   4
ENDBRANCH   2   3
BRANCH   2  11
HETATM   11  C   UNL     1     -10.807   7.905  69.769  1.00  0.00    -0.202 A  
HETATM   12  C   UNL     1     -12.123   8.160  72.232  1.00  0.00    -0.419 A  
HETATM   13  C   UNL     1     -11.553   6.839  70.291  1.00  0.00    -0.417 A  
HETATM   14  C   UNL     1     -12.210   6.966  71.517  1.00  0.00    -0.415 A  
HETATM   15  C   UNL     1     -10.719   9.101  70.496  1.00  0.00    -0.289 A  
HETATM   16  C   UNL     1     -11.377   9.224  71.724  1.00  0.00    -0.437 A  
ENDBRANCH   2  11
TORSDOF 4
ENDMDL
MODEL      187
REMARK 921   NORMALIZED FREE ENERGY PREDICTED BY IDOCK:   -2.86 KCAL/MOL
REMARK 922        TOTAL FREE ENERGY PREDICTED BY IDOCK:   -4.04 KCAL/MOL
REMARK 923 INTER-LIGAND FREE ENERGY PREDICTED BY IDOCK:   -3.24 KCAL/MOL
REMARK 924 INTRA-LIGAND FREE ENERGY PREDICTED BY IDOCK:   -0.80 KCAL/MOL
REMARK 927      BINDING AFFINITY PREDICTED BY RF-SCORE:    0.00 PKD
ROOT
HETATM    1  O   UNL     1      -7.881   7.636  69.707  1.00  0.00    -0.105 OA 
HETATM    2  C   UNL     1      -8.372   8.464  68.954  1.00  0.00    -0.119 C  
ENDROOT
BRANCH   2   3
HETATM    3  O   UNL     1      -9.668   8.852  68.933  1.00  0.00    -0.165 OA 
BRANCH   3   4
HETATM    4  C   UNL     1     -10.390   8.569  67.726  1.00  0.00    -0.237 C  
BRANCH   4   5
HETATM    5  C   UNL     1     -10.599   9.862  66.983  1.00  0.00    -0.272 A  
HETATM    6  C   UNL     1     -10.292  11.235  65.003  1.00  0.00    -0.359 A  
HETATM    7  C   UNL     1     -10.922  12.303  65.639  1.00  0.00    -0.338 A  
HETATM    8  C   UNL     1     -10.128  10.021  65.672  1.00  0.00    -0.321 A  
HETATM    9  C   UNL     1     -11.394  12.157  66.942  1.00  0.00    -0.402 A  
HETATM   10  C   UNL     1     -11.232  10.945  67.613  1.00  0.00    -0.379 A  
ENDBRANCH   4   5
ENDBRANCH   3   4
ENDBRANCH   2   3
BRANCH   2  11
HETATM   11  C   UNL     1      -7.580   9.181  67.916  1.00  0.00    -0.085 A  
HETATM   12  C   UNL     1      -6.041  10.415  65.924  1.00  0.00    -0.113 A  
HETATM   13  C   UNL     1      -6.958   8.414  66.920  1.00  0.00    -0.074 A  
HETATM   14  C   UNL     1      -6.190   9.029  65.928  1.00  0.00    -0.056 A  
HETATM   15  C   UNL     1      -7.429  10.574  67.903  1.00  0.00    -0.091 A  
HETATM   16  C   UNL     1      -6.661  11.187  66.907  1.00  0.00    -0.128 A  
ENDBRANCH   2  11
TORSDOF 4
ENDMDL
MODEL      188
REMARK 921   NORMALIZED FREE ENERGY PREDICTED BY IDOCK:   -2.86 KCAL/MOL
REMARK 922        TOTAL FREE ENERGY PREDICTED BY IDOCK:   -4.04 KCAL/MOL
REMARK 923 INTER-LIGAND FREE ENERGY PREDICTED BY IDOCK:   -3.71 KCAL/MOL
REMARK 924 INTRA-LIGAND FREE ENERGY PREDICTED BY IDOCK:   -0.33 KCAL/MOL
REMARK 927      BINDING AFFINITY PREDICTED BY RF-SCORE:    0.00 PKD
ROOT
HETATM    1  O   UNL     1      -8.241   6.988  70.120  1.00  0.00    -0.128 OA 
HETATM    2  C   UNL     1      -8.386   7.945  69.374  1.00  0.00    -0.132 C  
ENDROOT
BRANCH   2   3
HETATM    3  O   UNL     1      -8.976   9.121  69.691  1.00  0.00    -0.141 OA 
BRANCH   3   4
HETATM    4  C   UNL     1     -10.232   9.387  69.050  1.00  0.00    -0.205 C  
BRANCH   4   5
HETATM    5  C   UNL     1     -11.218   9.830  70.099  1.00  0.00    -0.324 A  
HETATM    6  C   UNL     1     -12.649   9.331  71.997  1.00  0.00    -0.465 A  
HETATM    7  C   UNL     1     -13.115  10.644  71.998  1.00  0.00    -0.501 A  
HETATM    8  C   UNL     1     -11.706   8.924  71.052  1.00  0.00    -0.340 A  
HETATM    9  C   UNL     1     -12.637  11.553  71.055  1.00  0.00    -0.457 A  
HETATM   10  C   UNL     1     -11.695  11.149  70.109  1.00  0.00    -0.439 A  
ENDBRANCH   4   5
ENDBRANCH   3   4
ENDBRANCH   2   3
BRANCH   2  11
HETATM   11  C   UNL     1      -7.918   7.944  67.960  1.00  0.00    -0.128 A  
HETATM   12  C   UNL     1      -6.982   8.058  65.319  1.00  0.00    -0.063 A  
HETATM   13  C   UNL     1      -6.977   8.911  67.579  1.00  0.00    -0.075 A  
HETATM   14  C   UNL     1      -6.512   8.969  66.263  1.00  0.00    -0.066 A  
HETATM   15  C   UNL     1      -8.382   7.027  67.006  1.00  0.00    -0.121 A  
HETATM   16  C   UNL     1      -7.913   7.086  65.690  1.00  0.00    -0.123 A  
ENDBRANCH   2  11
TORSDOF 4
ENDMDL
MODEL      189
REMARK 921   NORMALIZED FREE ENERGY PREDICTED BY IDOCK:   -2.85 KCAL/MOL
REMARK 922        TOTAL FREE ENERGY PREDICTED BY IDOCK:   -4.03 KCAL/MOL
REMARK 923 INTER-LIGAND FREE ENERGY PREDICTED BY IDOCK:   -3.67 KCAL/MOL
REMARK 924 INTRA-LIGAND FREE ENERGY PREDICTED BY IDOCK:   -0.35 KCAL/MOL
REMARK 927      BINDING AFFINITY PREDICTED BY RF-SCORE:    0.00 PKD
ROOT
HETATM    1  O   UNL     1      -9.804   6.960  68.127  1.00  0.00    -0.133 OA 
HETATM    2  C   UNL     1      -9.657   7.881  68.918  1.00  0.00    -0.155 C  
ENDROOT
BRANCH   2   3
HETATM    3  O   UNL     1      -9.710   9.200  68.623  1.00  0.00    -0.151 OA 
BRANCH   3   4
HETATM    4  C   UNL     1      -9.228   9.574  67.324  1.00  0.00    -0.134 C  
BRANCH   4   5
HETATM    5  C   UNL     1      -9.938  10.832  66.897  1.00  0.00    -0.240 A  
HETATM    6  C   UNL     1     -10.107  12.775  65.449  1.00  0.00    -0.274 A  
HETATM    7  C   UNL     1     -11.219  13.217  66.163  1.00  0.00    -0.320 A  
HETATM    8  C   UNL     1      -9.467  11.589  65.815  1.00  0.00    -0.255 A  
HETATM    9  C   UNL     1     -11.696  12.473  67.242  1.00  0.00    -0.431 A  
HETATM   10  C   UNL     1     -11.057  11.288  67.609  1.00  0.00    -0.336 A  
ENDBRANCH   4   5
ENDBRANCH   3   4
ENDBRANCH   2   3
BRANCH   2  11
HETATM   11  C   UNL     1      -9.385   7.665  70.366  1.00  0.00    -0.160 A  
HETATM   12  C   UNL     1      -8.915   7.379  73.116  1.00  0.00    -0.199 A  
HETATM   13  C   UNL     1      -9.894   8.602  71.277  1.00  0.00    -0.307 A  
HETATM   14  C   UNL     1      -9.659   8.461  72.646  1.00  0.00    -0.337 A  
HETATM   15  C   UNL     1      -8.642   6.577  70.846  1.00  0.00    -0.135 A  
HETATM   16  C   UNL     1      -8.410   6.438  72.218  1.00  0.00    -0.107 A  
ENDBRANCH   2  11
TORSDOF 4
ENDMDL
MODEL      190
REMARK 921   NORMALIZED FREE ENERGY PREDICTED BY IDOCK:   -2.77 KCAL/MOL
REMARK 922        TOTAL FREE ENERGY PREDICTED BY IDOCK:   -3.93 KCAL/MOL
REMARK 923 INTER-LIGAND FREE ENERGY PREDICTED BY IDOCK:   -3.61 KCAL/MOL
REMARK 924 INTRA-LIGAND FREE ENERGY PREDICTED BY IDOCK:   -0.33 KCAL/MOL
REMARK 927      BINDING AFFINITY PREDICTED BY RF-SCORE:    0.00 PKD
ROOT
HETATM    1  O   UNL     1     -10.162   9.064  71.734  1.00  0.00    -0.328 OA 
HETATM    2  C   UNL     1     -10.237   8.027  71.092  1.00  0.00    -0.193 C  
ENDROOT
BRANCH   2   3
HETATM    3  O   UNL     1     -10.448   6.790  71.598  1.00  0.00    -0.208 OA 
BRANCH   3   4
HETATM    4  C   UNL     1      -9.290   6.111  72.104  1.00  0.00    -0.151 C  
BRANCH   4   5
HETATM    5  C   UNL     1      -9.684   4.702  72.464  1.00  0.00    -0.199 A  
HETATM    6  C   UNL     1      -9.416   2.302  72.204  1.00  0.00    -0.175 A  
HETATM    7  C   UNL     1     -10.480   2.083  73.078  1.00  0.00    -0.229 A  
HETATM    8  C   UNL     1      -9.021   3.605  71.896  1.00  0.00    -0.149 A  
HETATM    9  C   UNL     1     -11.147   3.167  73.648  1.00  0.00    -0.321 A  
HETATM   10  C   UNL     1     -10.753   4.469  73.341  1.00  0.00    -0.320 A  
ENDBRANCH   4   5
ENDBRANCH   3   4
ENDBRANCH   2   3
BRANCH   2  11
HETATM   11  C   UNL     1     -10.095   7.984  69.610  1.00  0.00    -0.198 A  
HETATM   12  C   UNL     1      -9.823   8.032  66.820  1.00  0.00    -0.327 A  
HETATM   13  C   UNL     1      -9.720   9.163  68.952  1.00  0.00    -0.165 A  
HETATM   14  C   UNL     1      -9.586   9.188  67.561  1.00  0.00    -0.186 A  
HETATM   15  C   UNL     1     -10.327   6.824  68.858  1.00  0.00    -0.208 A  
HETATM   16  C   UNL     1     -10.191   6.851  67.466  1.00  0.00    -0.249 A  
ENDBRANCH   2  11
TORSDOF 4
ENDMDL
MODEL      191
REMARK 921   NORMALIZED FREE ENERGY PREDICTED BY IDOCK:   -2.75 KCAL/MOL
REMARK 922        TOTAL FREE ENERGY PREDICTED BY IDOCK:   -3.90 KCAL/MOL
REMARK 923 INTER-LIGAND FREE ENERGY PREDICTED BY IDOCK:   -3.39 KCAL/MOL
REMARK 924 INTRA-LIGAND FREE ENERGY PREDICTED BY IDOCK:   -0.51 KCAL/MOL
REMARK 927      BINDING AFFINITY PREDICTED BY RF-SCORE:    0.00 PKD
ROOT
HETATM    1  O   UNL     1     -11.942  11.626  66.313  1.00  0.00    -0.401 OA 
HETATM    2  C   UNL     1     -10.800  11.548  66.740  1.00  0.00    -0.282 C  
ENDROOT
BRANCH   2   3
HETATM    3  O   UNL     1     -10.171  10.415  67.130  1.00  0.00    -0.201 OA 
BRANCH   3   4
HETATM    4  C   UNL     1     -10.857   9.621  68.109  1.00  0.00    -0.190 C  
BRANCH   4   5
HETATM    5  C   UNL     1      -9.833   8.833  68.884  1.00  0.00    -0.183 A  
HETATM    6  C   UNL     1      -9.238   7.420  70.767  1.00  0.00    -0.159 A  
HETATM    7  C   UNL     1      -7.904   7.435  70.364  1.00  0.00    -0.098 A  
HETATM    8  C   UNL     1     -10.199   8.117  70.032  1.00  0.00    -0.202 A  
HETATM    9  C   UNL     1      -7.529   8.145  69.224  1.00  0.00    -0.089 A  
HETATM   10  C   UNL     1      -8.487   8.842  68.488  1.00  0.00    -0.130 A  
ENDBRANCH   4   5
ENDBRANCH   3   4
ENDBRANCH   2   3
BRANCH   2  11
HETATM   11  C   UNL     1      -9.914  12.735  66.897  1.00  0.00    -0.232 A  
HETATM   12  C   UNL     1      -8.319  15.031  67.105  1.00  0.00    -0.244 A  
HETATM   13  C   UNL     1     -10.332  13.946  66.328  1.00  0.00    -0.293 A  
HETATM   14  C   UNL     1      -9.537  15.090  66.430  1.00  0.00    -0.314 A  
HETATM   15  C   UNL     1      -8.690  12.685  67.578  1.00  0.00    -0.184 A  
HETATM   16  C   UNL     1      -7.897  13.832  67.680  1.00  0.00    -0.185 A  
ENDBRANCH   2  11
TORSDOF 4
ENDMDL
MODEL      192
REMARK 921   NORMALIZED FREE ENERGY PREDICTED BY IDOCK:   -2.73 KCAL/MOL
REMARK 922        TOTAL FREE ENERGY PREDICTED BY IDOCK:   -3.88 KCAL/MOL
REMARK 923 INTER-LIGAND FREE ENERGY PREDICTED BY IDOCK:   -3.60 KCAL/MOL
REMARK 924 INTRA-LIGAND FREE ENERGY PREDICTED BY IDOCK:   -0.28 KCAL/MOL
REMARK 927      BINDING AFFINITY PREDICTED BY RF-SCORE:    0.00 PKD
ROOT
HETATM    1  O   UNL     1      -9.401   7.272  66.007  1.00  0.00    -0.100 OA 
HETATM    2  C   UNL     1      -9.810   8.120  66.787  1.00  0.00    -0.259 C  
ENDROOT
BRANCH   2   3
HETATM    3  O   UNL     1      -9.848   9.454  66.564  1.00  0.00    -0.217 OA 
BRANCH   3   4
HETATM    4  C   UNL     1      -9.634   9.871  65.207  1.00  0.00    -0.295 C  
BRANCH   4   5
HETATM    5  C   UNL     1      -8.158  10.097  65.007  1.00  0.00    -0.149 A  
HETATM    6  C   UNL     1      -6.173   9.981  63.612  1.00  0.00    -0.131 A  
HETATM    7  C   UNL     1      -5.395  10.445  64.671  1.00  0.00    -0.140 A  
HETATM    8  C   UNL     1      -7.548   9.805  63.779  1.00  0.00    -0.131 A  
HETATM    9  C   UNL     1      -5.990  10.738  65.896  1.00  0.00    -0.135 A  
HETATM   10  C   UNL     1      -7.364  10.563  66.066  1.00  0.00    -0.137 A  
ENDBRANCH   4   5
ENDBRANCH   3   4
ENDBRANCH   2   3
BRANCH   2  11
HETATM   11  C   UNL     1     -10.337   7.787  68.139  1.00  0.00    -0.248 A  
HETATM   12  C   UNL     1     -11.372   7.046  70.637  1.00  0.00    -0.349 A  
HETATM   13  C   UNL     1     -10.747   6.467  68.377  1.00  0.00    -0.339 A  
HETATM   14  C   UNL     1     -11.264   6.098  69.621  1.00  0.00    -0.488 A  
HETATM   15  C   UNL     1     -10.444   8.733  69.168  1.00  0.00    -0.230 A  
HETATM   16  C   UNL     1     -10.961   8.360  70.413  1.00  0.00    -0.249 A  
ENDBRANCH   2  11
TORSDOF 4
ENDMDL
MODEL      193
REMARK 921   NORMALIZED FREE ENERGY PREDICTED BY IDOCK:   -2.62 KCAL/MOL
REMARK 922        TOTAL FREE ENERGY PREDICTED BY IDOCK:   -3.74 KCAL/MOL
REMARK 923 INTER-LIGAND FREE ENERGY PREDICTED BY IDOCK:   -2.90 KCAL/MOL
REMARK 924 INTRA-LIGAND FREE ENERGY PREDICTED BY IDOCK:   -0.84 KCAL/MOL
REMARK 927      BINDING AFFINITY PREDICTED BY RF-SCORE:    0.00 PKD
ROOT
HETATM    1  O   UNL     1     -12.557   6.801  70.791  1.00  0.00    -0.311 OA 
HETATM    2  C   UNL     1     -11.350   6.997  70.799  1.00  0.00    -0.298 C  
ENDROOT
BRANCH   2   3
HETATM    3  O   UNL     1     -10.699   7.922  71.541  1.00  0.00    -0.222 OA 
BRANCH   3   4
HETATM    4  C   UNL     1     -10.264   7.494  72.840  1.00  0.00    -0.278 C  
BRANCH   4   5
HETATM    5  C   UNL     1      -8.762   7.381  72.825  1.00  0.00    -0.160 A  
HETATM    6  C   UNL     1      -6.714   6.339  73.611  1.00  0.00    -0.075 A  
HETATM    7  C   UNL     1      -5.961   7.233  72.853  1.00  0.00    -0.048 A  
HETATM    8  C   UNL     1      -8.108   6.413  73.600  1.00  0.00    -0.108 A  
HETATM    9  C   UNL     1      -6.601   8.200  72.078  1.00  0.00    -0.067 A  
HETATM   10  C   UNL     1      -7.994   8.276  72.066  1.00  0.00    -0.176 A  
ENDBRANCH   4   5
ENDBRANCH   3   4
ENDBRANCH   2   3
BRANCH   2  11
HETATM   11  C   UNL     1     -10.401   6.218  69.957  1.00  0.00    -0.252 A  
HETATM   12  C   UNL     1      -8.610   4.850  68.288  1.00  0.00    -0.105 A  
HETATM   13  C   UNL     1      -9.748   6.888  68.913  1.00  0.00    -0.142 A  
HETATM   14  C   UNL     1      -8.857   6.206  68.080  1.00  0.00    -0.112 A  
HETATM   15  C   UNL     1     -10.144   4.856  70.163  1.00  0.00    -0.332 A  
HETATM   16  C   UNL     1      -9.250   4.176  69.329  1.00  0.00    -0.213 A  
ENDBRANCH   2  11
TORSDOF 4
ENDMDL
MODEL      194
REMARK 921   NORMALIZED FREE ENERGY PREDICTED BY IDOCK:   -2.61 KCAL/MOL
REMARK 922        TOTAL FREE ENERGY PREDICTED BY IDOCK:   -3.73 KCAL/MOL
REMARK 923 INTER-LIGAND FREE ENERGY PREDICTED BY IDOCK:   -2.93 KCAL/MOL
REMARK 924 INTRA-LIGAND FREE ENERGY PREDICTED BY IDOCK:   -0.80 KCAL/MOL
REMARK 927      BINDING AFFINITY PREDICTED BY RF-SCORE:    0.00 PKD
ROOT
HETATM    1  O   UNL     1     -12.198   6.497  70.358  1.00  0.00    -0.306 OA 
HETATM    2  C   UNL     1     -11.167   5.970  69.966  1.00  0.00    -0.355 C  
ENDROOT
BRANCH   2   3
HETATM    3  O   UNL     1     -10.616   4.836  70.457  1.00  0.00    -0.109 OA 
BRANCH   3   4
HETATM    4  C   UNL     1     -10.485   4.768  71.884  1.00  0.00    -0.130 C  
BRANCH   4   5
HETATM    5  C   UNL     1      -9.357   5.675  72.303  1.00  0.00    -0.157 A  
HETATM    6  C   UNL     1      -6.983   6.167  72.442  1.00  0.00    -0.079 A  
HETATM    7  C   UNL     1      -7.261   7.330  73.158  1.00  0.00    -0.078 A  
HETATM    8  C   UNL     1      -8.026   5.341  72.017  1.00  0.00    -0.113 A  
HETATM    9  C   UNL     1      -8.581   7.671  73.447  1.00  0.00    -0.238 A  
HETATM   10  C   UNL     1      -9.624   6.847  73.025  1.00  0.00    -0.178 A  
ENDBRANCH   4   5
ENDBRANCH   3   4
ENDBRANCH   2   3
BRANCH   2  11
HETATM   11  C   UNL     1     -10.347   6.530  68.856  1.00  0.00    -0.225 A  
HETATM   12  C   UNL     1      -8.736   7.653  66.855  1.00  0.00    -0.132 A  
HETATM   13  C   UNL     1      -9.194   7.254  69.193  1.00  0.00    -0.139 A  
HETATM   14  C   UNL     1      -8.392   7.815  68.196  1.00  0.00    -0.124 A  
HETATM   15  C   UNL     1     -10.683   6.367  67.505  1.00  0.00    -0.396 A  
HETATM   16  C   UNL     1      -9.878   6.929  66.510  1.00  0.00    -0.168 A  
ENDBRANCH   2  11
TORSDOF 4
ENDMDL
MODEL      195
REMARK 921   NORMALIZED FREE ENERGY PREDICTED BY IDOCK:   -2.59 KCAL/MOL
REMARK 922        TOTAL FREE ENERGY PREDICTED BY IDOCK:   -3.70 KCAL/MOL
REMARK 923 INTER-LIGAND FREE ENERGY PREDICTED BY IDOCK:   -3.95 KCAL/MOL
REMARK 924 INTRA-LIGAND FREE ENERGY PREDICTED BY IDOCK:    0.25 KCAL/MOL
REMARK 927      BINDING AFFINITY PREDICTED BY RF-SCORE:    0.00 PKD
ROOT
HETATM    1  O   UNL     1      -8.314  10.937  65.254  1.00  0.00    -0.133 OA 
HETATM    2  C   UNL     1      -8.771  11.528  66.222  1.00  0.00    -0.159 C  
ENDROOT
BRANCH   2   3
HETATM    3  O   UNL     1      -9.091  10.975  67.415  1.00  0.00    -0.141 OA 
BRANCH   3   4
HETATM    4  C   UNL     1     -10.141  11.622  68.147  1.00  0.00    -0.196 C  
BRANCH   4   5
HETATM    5  C   UNL     1     -10.666  10.658  69.179  1.00  0.00    -0.264 A  
HETATM    6  C   UNL     1     -10.715   8.440  70.165  1.00  0.00    -0.238 A  
HETATM    7  C   UNL     1     -11.709   8.850  71.052  1.00  0.00    -0.340 A  
HETATM    8  C   UNL     1     -10.197   9.338  69.231  1.00  0.00    -0.211 A  
HETATM    9  C   UNL     1     -12.183  10.160  71.009  1.00  0.00    -0.474 A  
HETATM   10  C   UNL     1     -11.667  11.060  70.076  1.00  0.00    -0.437 A  
ENDBRANCH   4   5
ENDBRANCH   3   4
ENDBRANCH   2   3
BRANCH   2  11
HETATM   11  C   UNL     1      -9.053  12.991  66.215  1.00  0.00    -0.005 A  
HETATM   12  C   UNL     1      -9.524  15.752  66.318  1.00  0.00    -0.349 A  
HETATM   13  C   UNL     1      -8.412  13.787  67.175  1.00  0.00    -0.189 A  
HETATM   14  C   UNL     1      -8.647  15.162  67.227  1.00  0.00    -0.218 A  
HETATM   15  C   UNL     1      -9.928  13.592  65.300  1.00  0.00    -0.206 A  
HETATM   16  C   UNL     1     -10.161  14.970  65.354  1.00  0.00    -0.396 A  
ENDBRANCH   2  11
TORSDOF 4
ENDMDL
MODEL      196
REMARK 921   NORMALIZED FREE ENERGY PREDICTED BY IDOCK:   -2.54 KCAL/MOL
REMARK 922        TOTAL FREE ENERGY PREDICTED BY IDOCK:   -3.65 KCAL/MOL
REMARK 923 INTER-LIGAND FREE ENERGY PREDICTED BY IDOCK:   -3.31 KCAL/MOL
REMARK 924 INTRA-LIGAND FREE ENERGY PREDICTED BY IDOCK:   -0.34 KCAL/MOL
REMARK 927      BINDING AFFINITY PREDICTED BY RF-SCORE:    0.00 PKD
ROOT
HETATM    1  O   UNL     1      -9.414   5.678  67.122  1.00  0.00    -0.113 OA 
HETATM    2  C   UNL     1      -9.201   6.685  67.781  1.00  0.00    -0.111 C  
ENDROOT
BRANCH   2   3
HETATM    3  O   UNL     1      -9.313   6.796  69.125  1.00  0.00    -0.137 OA 
BRANCH   3   4
HETATM    4  C   UNL     1     -10.634   6.637  69.661  1.00  0.00    -0.234 C  
BRANCH   4   5
HETATM    5  C   UNL     1     -10.549   5.759  70.883  1.00  0.00    -0.329 A  
HETATM    6  C   UNL     1      -9.831   3.706  71.962  1.00  0.00    -0.244 A  
HETATM    7  C   UNL     1     -10.467   4.095  73.139  1.00  0.00    -0.248 A  
HETATM    8  C   UNL     1      -9.872   4.532  70.838  1.00  0.00    -0.269 A  
HETATM    9  C   UNL     1     -11.143   5.313  73.195  1.00  0.00    -0.384 A  
HETATM   10  C   UNL     1     -11.187   6.140  72.073  1.00  0.00    -0.335 A  
ENDBRANCH   4   5
ENDBRANCH   3   4
ENDBRANCH   2   3
BRANCH   2  11
HETATM   11  C   UNL     1      -8.778   7.975  67.169  1.00  0.00    -0.134 A  
HETATM   12  C   UNL     1      -7.858  10.370  66.037  1.00  0.00    -0.142 A  
HETATM   13  C   UNL     1      -7.422   8.137  66.849  1.00  0.00    -0.091 A  
HETATM   14  C   UNL     1      -6.964   9.330  66.286  1.00  0.00    -0.087 A  
HETATM   15  C   UNL     1      -9.672   9.023  66.910  1.00  0.00    -0.260 A  
HETATM   16  C   UNL     1      -9.210  10.216  66.345  1.00  0.00    -0.190 A  
ENDBRANCH   2  11
TORSDOF 4
ENDMDL
MODEL      197
REMARK 921   NORMALIZED FREE ENERGY PREDICTED BY IDOCK:   -2.21 KCAL/MOL
REMARK 922        TOTAL FREE ENERGY PREDICTED BY IDOCK:   -3.24 KCAL/MOL
REMARK 923 INTER-LIGAND FREE ENERGY PREDICTED BY IDOCK:   -2.43 KCAL/MOL
REMARK 924 INTRA-LIGAND FREE ENERGY PREDICTED BY IDOCK:   -0.81 KCAL/MOL
REMARK 927      BINDING AFFINITY PREDICTED BY RF-SCORE:    0.00 PKD
ROOT
HETATM    1  O   UNL     1      -7.280   7.841  65.853  1.00  0.00    -0.070 OA 
HETATM    2  C   UNL     1      -7.640   7.977  67.013  1.00  0.00    -0.096 C  
ENDROOT
BRANCH   2   3
HETATM    3  O   UNL     1      -7.427   7.101  68.022  1.00  0.00    -0.094 OA 
BRANCH   3   4
HETATM    4  C   UNL     1      -8.592   6.445  68.542  1.00  0.00    -0.122 C  
BRANCH   4   5
HETATM    5  C   UNL     1      -8.748   6.831  69.990  1.00  0.00    -0.141 A  
HETATM    6  C   UNL     1      -9.856   8.119  71.725  1.00  0.00    -0.256 A  
HETATM    7  C   UNL     1      -8.978   7.605  72.676  1.00  0.00    -0.205 A  
HETATM    8  C   UNL     1      -9.742   7.737  70.387  1.00  0.00    -0.179 A  
HETATM    9  C   UNL     1      -7.985   6.704  72.293  1.00  0.00    -0.100 A  
HETATM   10  C   UNL     1      -7.869   6.320  70.957  1.00  0.00    -0.111 A  
ENDBRANCH   4   5
ENDBRANCH   3   4
ENDBRANCH   2   3
BRANCH   2  11
HETATM   11  C   UNL     1      -8.396   9.169  67.489  1.00  0.00    -0.116 A  
HETATM   12  C   UNL     1      -9.907  11.390  68.292  1.00  0.00    -0.202 A  
HETATM   13  C   UNL     1      -9.705   9.346  67.020  1.00  0.00    -0.233 A  
HETATM   14  C   UNL     1     -10.458  10.453  67.419  1.00  0.00    -0.299 A  
HETATM   15  C   UNL     1      -7.850  10.113  68.370  1.00  0.00    -0.093 A  
HETATM   16  C   UNL     1      -8.607  11.220  68.769  1.00  0.00    -0.109 A  
ENDBRANCH   2  11
TORSDOF 4
ENDMDL
MODEL      198
REMARK 921   NORMALIZED FREE ENERGY PREDICTED BY IDOCK:   -2.09 KCAL/MOL
REMARK 922        TOTAL FREE ENERGY PREDICTED BY IDOCK:   -3.09 KCAL/MOL
REMARK 923 INTER-LIGAND FREE ENERGY PREDICTED BY IDOCK:   -2.73 KCAL/MOL
REMARK 924 INTRA-LIGAND FREE ENERGY PREDICTED BY IDOCK:   -0.36 KCAL/MOL
REMARK 927      BINDING AFFINITY PREDICTED BY RF-SCORE:    0.00 PKD
ROOT
HETATM    1  O   UNL     1      -7.438   8.056  65.530  1.00  0.00    -0.076 OA 
HETATM    2  C   UNL     1      -8.169   8.774  66.197  1.00  0.00    -0.117 C  
ENDROOT
BRANCH   2   3
HETATM    3  O   UNL     1      -8.295   8.749  67.544  1.00  0.00    -0.109 OA 
BRANCH   3   4
HETATM    4  C   UNL     1      -7.076   8.863  68.292  1.00  0.00    -0.078 C  
BRANCH   4   5
HETATM    5  C   UNL     1      -7.126   7.883  69.435  1.00  0.00    -0.064 A  
HETATM    6  C   UNL     1      -6.098   6.845  71.375  1.00  0.00    -0.037 A  
HETATM    7  C   UNL     1      -7.195   5.997  71.510  1.00  0.00    -0.083 A  
HETATM    8  C   UNL     1      -6.061   7.783  70.341  1.00  0.00    -0.030 A  
HETATM    9  C   UNL     1      -8.259   6.087  70.615  1.00  0.00    -0.120 A  
HETATM   10  C   UNL     1      -8.225   7.023  69.581  1.00  0.00    -0.131 A  
ENDBRANCH   4   5
ENDBRANCH   3   4
ENDBRANCH   2   3
BRANCH   2  11
HETATM   11  C   UNL     1      -9.054   9.809  65.594  1.00  0.00    -0.222 A  
HETATM   12  C   UNL     1     -10.657  11.740  64.345  1.00  0.00    -0.368 A  
HETATM   13  C   UNL     1      -9.042   9.949  64.199  1.00  0.00    -0.294 A  
HETATM   14  C   UNL     1      -9.840  10.913  63.576  1.00  0.00    -0.407 A  
HETATM   15  C   UNL     1      -9.881  10.641  66.359  1.00  0.00    -0.259 A  
HETATM   16  C   UNL     1     -10.680  11.604  65.733  1.00  0.00    -0.331 A  
ENDBRANCH   2  11
TORSDOF 4
ENDMDL
MODEL      199
REMARK 921   NORMALIZED FREE ENERGY PREDICTED BY IDOCK:   -2.07 KCAL/MOL
REMARK 922        TOTAL FREE ENERGY PREDICTED BY IDOCK:   -3.06 KCAL/MOL
REMARK 923 INTER-LIGAND FREE ENERGY PREDICTED BY IDOCK:   -2.36 KCAL/MOL
REMARK 924 INTRA-LIGAND FREE ENERGY PREDICTED BY IDOCK:   -0.69 KCAL/MOL
REMARK 927      BINDING AFFINITY PREDICTED BY RF-SCORE:    0.00 PKD
ROOT
HETATM    1  O   UNL     1      -6.392   8.801  64.870  1.00  0.00    -0.064 OA 
HETATM    2  C   UNL     1      -7.175   8.944  65.799  1.00  0.00    -0.085 C  
ENDROOT
BRANCH   2   3
HETATM    3  O   UNL     1      -7.234   8.181  66.914  1.00  0.00    -0.080 OA 
BRANCH   3   4
HETATM    4  C   UNL     1      -8.362   7.299  67.014  1.00  0.00    -0.118 C  
BRANCH   4   5
HETATM    5  C   UNL     1      -9.279   7.820  68.089  1.00  0.00    -0.138 A  
HETATM    6  C   UNL     1     -11.312   8.968  68.758  1.00  0.00     0.447 A  
HETATM    7  C   UNL     1     -10.940   8.859  70.097  1.00  0.00    -0.245 A  
HETATM    8  C   UNL     1     -10.486   8.453  67.758  1.00  0.00    -0.284 A  
HETATM    9  C   UNL     1      -9.743   8.233  70.438  1.00  0.00    -0.175 A  
HETATM   10  C   UNL     1      -8.915   7.718  69.440  1.00  0.00    -0.142 A  
ENDBRANCH   4   5
ENDBRANCH   3   4
ENDBRANCH   2   3
BRANCH   2  11
HETATM   11  C   UNL     1      -8.209  10.015  65.825  1.00  0.00    -0.130 A  
HETATM   12  C   UNL     1     -10.204  11.984  65.762  1.00  0.00    -0.274 A  
HETATM   13  C   UNL     1      -9.286   9.909  64.934  1.00  0.00    -0.329 A  
HETATM   14  C   UNL     1     -10.280  10.890  64.901  1.00  0.00    -0.381 A  
HETATM   15  C   UNL     1      -8.143  11.115  66.691  1.00  0.00    -0.159 A  
HETATM   16  C   UNL     1      -9.140  12.095  66.657  1.00  0.00    -0.206 A  
ENDBRANCH   2  11
TORSDOF 4
ENDMDL
