MODEL        1
REMARK 921   NORMALIZED FREE ENERGY PREDICTED BY IDOCK:   -4.93 KCAL/MOL
REMARK 922        TOTAL FREE ENERGY PREDICTED BY IDOCK:   -6.10 KCAL/MOL
REMARK 923 INTER-LIGAND FREE ENERGY PREDICTED BY IDOCK:   -5.79 KCAL/MOL
REMARK 924 INTRA-LIGAND FREE ENERGY PREDICTED BY IDOCK:   -0.31 KCAL/MOL
REMARK 927      BINDING AFFINITY PREDICTED BY RF-SCORE:    0.00 PKD
ROOT
HETATM    1  C   UNL     1     -12.337  14.282  70.263  1.00  0.00    -0.418 C  
HETATM    2  C   UNL     1     -12.019  12.824  69.978  1.00  0.00    -0.301 C  
ENDROOT
BRANCH   2   3
HETATM    3  O   UNL     1     -11.088  12.780  68.892  1.00  0.00    -0.252 OA 
BRANCH   3   4
HETATM    4  C   UNL     1     -11.579  12.322  67.715  1.00  0.00    -0.351 C  
HETATM    5  O   UNL     1     -12.103  11.237  67.523  1.00  0.00    -0.530 OA 
BRANCH   4   6
HETATM    6  C   UNL     1     -11.480  13.390  66.688  1.00  0.00    -0.376 A  
HETATM    7  C   UNL     1     -12.361  13.361  65.601  1.00  0.00    -0.521 A  
HETATM    8  C   UNL     1     -12.332  14.385  64.646  1.00  0.00    -0.435 A  
HETATM    9  C   UNL     1     -11.402  15.421  64.740  1.00  0.00    -0.376 A  
HETATM   10  C   UNL     1     -10.575  15.484  65.863  1.00  0.00    -0.350 A  
HETATM   11  N   UNL     1     -11.454  16.500  63.850  1.00  0.00    -1.599 NA 
HETATM   12  H2  UNL     1     -12.390  16.904  63.891  1.00  0.00     0.000 HD 
HETATM   13  H1  UNL     1     -10.774  17.257  63.919  1.00  0.00     0.000 HD 
HETATM   14  C   UNL     1     -10.594  14.466  66.819  1.00  0.00    -0.282 A  
ENDBRANCH   4   6
ENDBRANCH   3   4
ENDBRANCH   2   3
TORSDOF 3
ENDMDL
MODEL        2
REMARK 921   NORMALIZED FREE ENERGY PREDICTED BY IDOCK:   -4.84 KCAL/MOL
REMARK 922        TOTAL FREE ENERGY PREDICTED BY IDOCK:   -6.00 KCAL/MOL
REMARK 923 INTER-LIGAND FREE ENERGY PREDICTED BY IDOCK:   -5.86 KCAL/MOL
REMARK 924 INTRA-LIGAND FREE ENERGY PREDICTED BY IDOCK:   -0.15 KCAL/MOL
REMARK 927      BINDING AFFINITY PREDICTED BY RF-SCORE:    0.00 PKD
ROOT
HETATM    1  C   UNL     1     -12.088  11.413  70.355  1.00  0.00    -0.473 C  
HETATM    2  C   UNL     1     -11.704  10.740  69.049  1.00  0.00    -0.286 C  
ENDROOT
BRANCH   2   3
HETATM    3  O   UNL     1     -12.044  11.629  67.980  1.00  0.00    -0.597 OA 
BRANCH   3   4
HETATM    4  C   UNL     1     -11.203  11.618  66.917  1.00  0.00    -0.313 C  
HETATM    5  O   UNL     1     -10.489  10.693  66.568  1.00  0.00    -0.239 OA 
BRANCH   4   6
HETATM    6  C   UNL     1     -11.350  12.886  66.157  1.00  0.00    -0.356 A  
HETATM    7  C   UNL     1     -10.536  13.973  66.499  1.00  0.00    -0.279 A  
HETATM    8  C   UNL     1     -10.610  15.163  65.765  1.00  0.00    -0.364 A  
HETATM    9  C   UNL     1     -11.519  15.297  64.715  1.00  0.00    -0.363 A  
HETATM   10  C   UNL     1     -12.276  14.188  64.332  1.00  0.00    -0.466 A  
HETATM   11  N   UNL     1     -11.507  16.444  63.913  1.00  0.00    -1.618 NA 
HETATM   12  H2  UNL     1     -10.565  16.565  63.539  1.00  0.00     0.000 HD 
HETATM   13  H1  UNL     1     -12.171  16.543  63.145  1.00  0.00     0.000 HD 
HETATM   14  C   UNL     1     -12.212  12.998  65.060  1.00  0.00    -0.501 A  
ENDBRANCH   4   6
ENDBRANCH   3   4
ENDBRANCH   2   3
TORSDOF 3
ENDMDL
MODEL        3
REMARK 921   NORMALIZED FREE ENERGY PREDICTED BY IDOCK:   -4.71 KCAL/MOL
REMARK 922        TOTAL FREE ENERGY PREDICTED BY IDOCK:   -5.85 KCAL/MOL
REMARK 923 INTER-LIGAND FREE ENERGY PREDICTED BY IDOCK:   -5.64 KCAL/MOL
REMARK 924 INTRA-LIGAND FREE ENERGY PREDICTED BY IDOCK:   -0.20 KCAL/MOL
REMARK 927      BINDING AFFINITY PREDICTED BY RF-SCORE:    0.00 PKD
ROOT
HETATM    1  C   UNL     1     -12.270  12.100  70.412  1.00  0.00    -0.378 C  
HETATM    2  C   UNL     1     -11.660  11.135  69.410  1.00  0.00    -0.318 C  
ENDROOT
BRANCH   2   3
HETATM    3  O   UNL     1     -12.103  11.519  68.104  1.00  0.00    -0.604 OA 
BRANCH   3   4
HETATM    4  C   UNL     1     -11.166  11.464  67.126  1.00  0.00    -0.296 C  
HETATM    5  O   UNL     1     -10.434  10.520  66.876  1.00  0.00    -0.231 OA 
BRANCH   4   6
HETATM    6  C   UNL     1     -11.224  12.708  66.315  1.00  0.00    -0.354 A  
HETATM    7  C   UNL     1     -11.953  12.697  65.121  1.00  0.00    -0.474 A  
HETATM    8  C   UNL     1     -12.075  13.868  64.363  1.00  0.00    -0.477 A  
HETATM    9  C   UNL     1     -11.440  15.045  64.762  1.00  0.00    -0.403 A  
HETATM   10  C   UNL     1     -10.775  15.069  65.989  1.00  0.00    -0.329 A  
HETATM   11  N   UNL     1     -11.661  16.238  64.065  1.00  0.00    -1.504 NA 
HETATM   12  H2  UNL     1     -12.666  16.411  64.034  1.00  0.00     0.000 HD 
HETATM   13  H1  UNL     1     -11.196  17.098  64.356  1.00  0.00     0.000 HD 
HETATM   14  C   UNL     1     -10.644  13.905  66.751  1.00  0.00    -0.277 A  
ENDBRANCH   4   6
ENDBRANCH   3   4
ENDBRANCH   2   3
TORSDOF 3
ENDMDL
MODEL        4
REMARK 921   NORMALIZED FREE ENERGY PREDICTED BY IDOCK:   -4.69 KCAL/MOL
REMARK 922        TOTAL FREE ENERGY PREDICTED BY IDOCK:   -5.82 KCAL/MOL
REMARK 923 INTER-LIGAND FREE ENERGY PREDICTED BY IDOCK:   -5.66 KCAL/MOL
REMARK 924 INTRA-LIGAND FREE ENERGY PREDICTED BY IDOCK:   -0.16 KCAL/MOL
REMARK 927      BINDING AFFINITY PREDICTED BY RF-SCORE:    0.00 PKD
ROOT
HETATM    1  C   UNL     1     -10.189   8.529  66.922  1.00  0.00    -0.375 C  
HETATM    2  C   UNL     1      -9.768   9.923  67.352  1.00  0.00    -0.162 C  
ENDROOT
BRANCH   2   3
HETATM    3  O   UNL     1     -10.335  10.859  66.429  1.00  0.00    -0.237 OA 
BRANCH   3   4
HETATM    4  C   UNL     1     -11.359  11.607  66.907  1.00  0.00    -0.295 C  
HETATM    5  O   UNL     1     -12.073  11.335  67.858  1.00  0.00    -0.634 OA 
BRANCH   4   6
HETATM    6  C   UNL     1     -11.428  12.888  66.156  1.00  0.00    -0.393 A  
HETATM    7  C   UNL     1     -10.331  13.755  66.204  1.00  0.00    -0.301 A  
HETATM    8  C   UNL     1     -10.342  14.942  65.462  1.00  0.00    -0.388 A  
HETATM    9  C   UNL     1     -11.457  15.296  64.700  1.00  0.00    -0.354 A  
HETATM   10  C   UNL     1     -12.517  14.395  64.598  1.00  0.00    -0.364 A  
HETATM   11  N   UNL     1     -11.416  16.423  63.871  1.00  0.00    -1.618 NA 
HETATM   12  H2  UNL     1     -10.616  16.332  63.244  1.00  0.00     0.000 HD 
HETATM   13  H1  UNL     1     -12.231  16.682  63.315  1.00  0.00     0.000 HD 
HETATM   14  C   UNL     1     -12.518  13.210  65.338  1.00  0.00    -0.535 A  
ENDBRANCH   4   6
ENDBRANCH   3   4
ENDBRANCH   2   3
TORSDOF 3
ENDMDL
MODEL        5
REMARK 921   NORMALIZED FREE ENERGY PREDICTED BY IDOCK:   -4.69 KCAL/MOL
REMARK 922        TOTAL FREE ENERGY PREDICTED BY IDOCK:   -5.82 KCAL/MOL
REMARK 923 INTER-LIGAND FREE ENERGY PREDICTED BY IDOCK:   -5.52 KCAL/MOL
REMARK 924 INTRA-LIGAND FREE ENERGY PREDICTED BY IDOCK:   -0.30 KCAL/MOL
REMARK 927      BINDING AFFINITY PREDICTED BY RF-SCORE:    0.00 PKD
ROOT
HETATM    1  C   UNL     1     -10.106  10.179  65.595  1.00  0.00    -0.324 C  
HETATM    2  C   UNL     1     -10.391  10.327  67.080  1.00  0.00    -0.243 C  
ENDROOT
BRANCH   2   3
HETATM    3  O   UNL     1     -11.645  11.004  67.222  1.00  0.00    -0.496 OA 
BRANCH   3   4
HETATM    4  C   UNL     1     -11.597  12.201  67.856  1.00  0.00    -0.347 C  
HETATM    5  O   UNL     1     -11.584  12.381  69.063  1.00  0.00    -0.268 OA 
BRANCH   4   6
HETATM    6  C   UNL     1     -11.458  13.288  66.853  1.00  0.00    -0.376 A  
HETATM    7  C   UNL     1     -12.280  13.266  65.721  1.00  0.00    -0.510 A  
HETATM    8  C   UNL     1     -12.214  14.306  64.785  1.00  0.00    -0.456 A  
HETATM    9  C   UNL     1     -11.303  15.351  64.945  1.00  0.00    -0.363 A  
HETATM   10  C   UNL     1     -10.537  15.405  66.111  1.00  0.00    -0.321 A  
HETATM   11  N   UNL     1     -11.322  16.444  64.071  1.00  0.00    -1.539 NA 
HETATM   12  H2  UNL     1     -12.264  16.837  64.069  1.00  0.00     0.000 HD 
HETATM   13  H1  UNL     1     -10.656  17.208  64.187  1.00  0.00     0.000 HD 
HETATM   14  C   UNL     1     -10.593  14.371  67.048  1.00  0.00    -0.274 A  
ENDBRANCH   4   6
ENDBRANCH   3   4
ENDBRANCH   2   3
TORSDOF 3
ENDMDL
MODEL        6
REMARK 921   NORMALIZED FREE ENERGY PREDICTED BY IDOCK:   -4.67 KCAL/MOL
REMARK 922        TOTAL FREE ENERGY PREDICTED BY IDOCK:   -5.80 KCAL/MOL
REMARK 923 INTER-LIGAND FREE ENERGY PREDICTED BY IDOCK:   -5.54 KCAL/MOL
REMARK 924 INTRA-LIGAND FREE ENERGY PREDICTED BY IDOCK:   -0.25 KCAL/MOL
REMARK 927      BINDING AFFINITY PREDICTED BY RF-SCORE:    0.00 PKD
ROOT
HETATM    1  C   UNL     1     -12.410  15.667  74.323  1.00  0.00    -0.813 C  
HETATM    2  C   UNL     1     -13.383  15.993  73.203  1.00  0.00    -0.533 C  
ENDROOT
BRANCH   2   3
HETATM    3  O   UNL     1     -13.720  14.768  72.543  1.00  0.00    -0.426 OA 
BRANCH   3   4
HETATM    4  C   UNL     1     -13.180  14.597  71.311  1.00  0.00    -0.369 C  
HETATM    5  O   UNL     1     -12.884  15.479  70.521  1.00  0.00    -0.443 OA 
BRANCH   4   6
HETATM    6  C   UNL     1     -12.898  13.155  71.090  1.00  0.00    -0.349 A  
HETATM    7  C   UNL     1     -12.114  12.785  69.992  1.00  0.00    -0.355 A  
HETATM    8  C   UNL     1     -11.782  11.439  69.789  1.00  0.00    -0.418 A  
HETATM    9  C   UNL     1     -12.260  10.450  70.649  1.00  0.00    -0.347 A  
HETATM   10  C   UNL     1     -12.980  10.832  71.782  1.00  0.00    -0.568 A  
HETATM   11  N   UNL     1     -11.830   9.125  70.509  1.00  0.00    -0.451 NA 
HETATM   12  H2  UNL     1     -10.810   9.113  70.541  1.00  0.00     0.000 HD 
HETATM   13  H1  UNL     1     -12.180   8.402  71.137  1.00  0.00     0.000 HD 
HETATM   14  C   UNL     1     -13.319  12.171  71.992  1.00  0.00    -0.470 A  
ENDBRANCH   4   6
ENDBRANCH   3   4
ENDBRANCH   2   3
TORSDOF 3
ENDMDL
MODEL        7
REMARK 921   NORMALIZED FREE ENERGY PREDICTED BY IDOCK:   -4.61 KCAL/MOL
REMARK 922        TOTAL FREE ENERGY PREDICTED BY IDOCK:   -5.73 KCAL/MOL
REMARK 923 INTER-LIGAND FREE ENERGY PREDICTED BY IDOCK:   -5.55 KCAL/MOL
REMARK 924 INTRA-LIGAND FREE ENERGY PREDICTED BY IDOCK:   -0.18 KCAL/MOL
REMARK 927      BINDING AFFINITY PREDICTED BY RF-SCORE:    0.00 PKD
ROOT
HETATM    1  C   UNL     1      -9.434  18.811  66.808  1.00  0.00    -0.335 C  
HETATM    2  C   UNL     1     -10.487  18.304  65.838  1.00  0.00    -0.307 C  
ENDROOT
BRANCH   2   3
HETATM    3  O   UNL     1     -10.126  16.974  65.453  1.00  0.00    -0.581 OA 
BRANCH   3   4
HETATM    4  C   UNL     1     -11.103  16.251  64.853  1.00  0.00    -0.290 C  
HETATM    5  O   UNL     1     -11.701  16.548  63.832  1.00  0.00    -1.148 OA 
BRANCH   4   6
HETATM    6  C   UNL     1     -11.279  14.963  65.573  1.00  0.00    -0.348 A  
HETATM    7  C   UNL     1     -11.019  14.921  66.947  1.00  0.00    -0.327 A  
HETATM    8  C   UNL     1     -11.230  13.737  67.665  1.00  0.00    -0.316 A  
HETATM    9  C   UNL     1     -11.659  12.578  67.018  1.00  0.00    -0.368 A  
HETATM   10  C   UNL     1     -11.985  12.644  65.662  1.00  0.00    -0.507 A  
HETATM   11  N   UNL     1     -11.979  11.433  67.758  1.00  0.00    -0.646 NA 
HETATM   12  H2  UNL     1     -12.677  11.688  68.457  1.00  0.00     0.000 HD 
HETATM   13  H1  UNL     1     -12.292  10.586  67.285  1.00  0.00     0.000 HD 
HETATM   14  C   UNL     1     -11.775  13.819  64.936  1.00  0.00    -0.378 A  
ENDBRANCH   4   6
ENDBRANCH   3   4
ENDBRANCH   2   3
TORSDOF 3
ENDMDL
MODEL        8
REMARK 921   NORMALIZED FREE ENERGY PREDICTED BY IDOCK:   -4.60 KCAL/MOL
REMARK 922        TOTAL FREE ENERGY PREDICTED BY IDOCK:   -5.72 KCAL/MOL
REMARK 923 INTER-LIGAND FREE ENERGY PREDICTED BY IDOCK:   -5.50 KCAL/MOL
REMARK 924 INTRA-LIGAND FREE ENERGY PREDICTED BY IDOCK:   -0.21 KCAL/MOL
REMARK 927      BINDING AFFINITY PREDICTED BY RF-SCORE:    0.00 PKD
ROOT
HETATM    1  C   UNL     1     -10.615  15.324  66.766  1.00  0.00    -0.304 C  
HETATM    2  C   UNL     1     -11.176  14.014  67.291  1.00  0.00    -0.312 C  
ENDROOT
BRANCH   2   3
HETATM    3  O   UNL     1     -12.064  14.317  68.373  1.00  0.00    -0.335 OA 
BRANCH   3   4
HETATM    4  C   UNL     1     -11.974  13.502  69.452  1.00  0.00    -0.330 C  
HETATM    5  O   UNL     1     -11.615  12.337  69.452  1.00  0.00    -0.284 OA 
BRANCH   4   6
HETATM    6  C   UNL     1     -12.284  14.276  70.682  1.00  0.00    -0.427 A  
HETATM    7  C   UNL     1     -13.089  13.684  71.663  1.00  0.00    -0.455 A  
HETATM    8  C   UNL     1     -13.352  14.364  72.858  1.00  0.00    -0.575 A  
HETATM    9  C   UNL     1     -12.855  15.650  73.071  1.00  0.00    -0.490 A  
HETATM   10  C   UNL     1     -11.995  16.206  72.122  1.00  0.00    -0.623 A  
HETATM   11  N   UNL     1     -13.024  16.276  74.312  1.00  0.00    -0.956 NA 
HETATM   12  H2  UNL     1     -12.647  15.663  75.035  1.00  0.00     0.000 HD 
HETATM   13  H1  UNL     1     -12.661  17.216  74.467  1.00  0.00     0.000 HD 
HETATM   14  C   UNL     1     -11.729  15.538  70.925  1.00  0.00    -0.413 A  
ENDBRANCH   4   6
ENDBRANCH   3   4
ENDBRANCH   2   3
TORSDOF 3
ENDMDL
MODEL        9
REMARK 921   NORMALIZED FREE ENERGY PREDICTED BY IDOCK:   -4.58 KCAL/MOL
REMARK 922        TOTAL FREE ENERGY PREDICTED BY IDOCK:   -5.69 KCAL/MOL
REMARK 923 INTER-LIGAND FREE ENERGY PREDICTED BY IDOCK:   -5.72 KCAL/MOL
REMARK 924 INTRA-LIGAND FREE ENERGY PREDICTED BY IDOCK:    0.03 KCAL/MOL
REMARK 927      BINDING AFFINITY PREDICTED BY RF-SCORE:    0.00 PKD
ROOT
HETATM    1  C   UNL     1     -12.658  13.202  71.154  1.00  0.00    -0.403 C  
HETATM    2  C   UNL     1     -12.312  13.866  69.833  1.00  0.00    -0.300 C  
ENDROOT
BRANCH   2   3
HETATM    3  O   UNL     1     -11.324  13.062  69.181  1.00  0.00    -0.261 OA 
BRANCH   3   4
HETATM    4  C   UNL     1     -11.699  12.512  68.000  1.00  0.00    -0.355 C  
HETATM    5  O   UNL     1     -12.066  11.362  67.821  1.00  0.00    -0.637 OA 
BRANCH   4   6
HETATM    6  C   UNL     1     -11.699  13.558  66.945  1.00  0.00    -0.424 A  
HETATM    7  C   UNL     1     -10.789  14.616  67.048  1.00  0.00    -0.304 A  
HETATM    8  C   UNL     1     -10.725  15.587  66.041  1.00  0.00    -0.331 A  
HETATM    9  C   UNL     1     -11.592  15.539  64.948  1.00  0.00    -0.201 A  
HETATM   10  C   UNL     1     -12.447  14.444  64.815  1.00  0.00    -0.371 A  
HETATM   11  N   UNL     1     -11.445  16.443  63.890  1.00  0.00    -1.618 NA 
HETATM   12  H2  UNL     1     -10.487  16.379  63.543  1.00  0.00     0.000 HD 
HETATM   13  H1  UNL     1     -12.078  16.408  63.092  1.00  0.00     0.000 HD 
HETATM   14  C   UNL     1     -12.521  13.472  65.815  1.00  0.00    -0.514 A  
ENDBRANCH   4   6
ENDBRANCH   3   4
ENDBRANCH   2   3
TORSDOF 3
ENDMDL
MODEL       10
REMARK 921   NORMALIZED FREE ENERGY PREDICTED BY IDOCK:   -4.54 KCAL/MOL
REMARK 922        TOTAL FREE ENERGY PREDICTED BY IDOCK:   -5.64 KCAL/MOL
REMARK 923 INTER-LIGAND FREE ENERGY PREDICTED BY IDOCK:   -5.36 KCAL/MOL
REMARK 924 INTRA-LIGAND FREE ENERGY PREDICTED BY IDOCK:   -0.28 KCAL/MOL
REMARK 927      BINDING AFFINITY PREDICTED BY RF-SCORE:    0.00 PKD
ROOT
HETATM    1  C   UNL     1     -10.831  11.672  63.644  1.00  0.00    -0.503 C  
HETATM    2  C   UNL     1     -12.267  12.092  63.383  1.00  0.00    -0.530 C  
ENDROOT
BRANCH   2   3
HETATM    3  O   UNL     1     -12.758  12.739  64.562  1.00  0.00    -0.655 OA 
BRANCH   3   4
HETATM    4  C   UNL     1     -12.376  14.029  64.727  1.00  0.00    -0.413 C  
HETATM    5  O   UNL     1     -12.549  14.942  63.937  1.00  0.00    -0.831 OA 
BRANCH   4   6
HETATM    6  C   UNL     1     -11.792  14.202  66.082  1.00  0.00    -0.420 A  
HETATM    7  C   UNL     1     -10.811  15.183  66.271  1.00  0.00    -0.333 A  
HETATM    8  C   UNL     1     -10.283  15.410  67.547  1.00  0.00    -0.244 A  
HETATM    9  C   UNL     1     -10.693  14.639  68.636  1.00  0.00    -0.250 A  
HETATM   10  C   UNL     1     -11.722  13.713  68.456  1.00  0.00    -0.392 A  
HETATM   11  N   UNL     1     -10.249  14.947  69.927  1.00  0.00    -0.461 NA 
HETATM   12  H2  UNL     1     -10.478  15.923  70.121  1.00  0.00     0.000 HD 
HETATM   13  H1  UNL     1     -10.548  14.384  70.722  1.00  0.00     0.000 HD 
HETATM   14  C   UNL     1     -12.253  13.476  67.186  1.00  0.00    -0.328 A  
ENDBRANCH   4   6
ENDBRANCH   3   4
ENDBRANCH   2   3
TORSDOF 3
ENDMDL
MODEL       11
REMARK 921   NORMALIZED FREE ENERGY PREDICTED BY IDOCK:   -4.54 KCAL/MOL
REMARK 922        TOTAL FREE ENERGY PREDICTED BY IDOCK:   -5.64 KCAL/MOL
REMARK 923 INTER-LIGAND FREE ENERGY PREDICTED BY IDOCK:   -5.40 KCAL/MOL
REMARK 924 INTRA-LIGAND FREE ENERGY PREDICTED BY IDOCK:   -0.24 KCAL/MOL
REMARK 927      BINDING AFFINITY PREDICTED BY RF-SCORE:    0.00 PKD
ROOT
HETATM    1  C   UNL     1     -11.927   9.623  71.352  1.00  0.00    -0.480 C  
HETATM    2  C   UNL     1     -11.403  10.525  70.248  1.00  0.00    -0.327 C  
ENDROOT
BRANCH   2   3
HETATM    3  O   UNL     1     -12.359  11.570  70.043  1.00  0.00    -0.269 OA 
BRANCH   3   4
HETATM    4  C   UNL     1     -11.845  12.780  69.712  1.00  0.00    -0.310 C  
HETATM    5  O   UNL     1     -11.267  13.063  68.676  1.00  0.00    -0.245 OA 
BRANCH   4   6
HETATM    6  C   UNL     1     -12.181  13.766  70.772  1.00  0.00    -0.437 A  
HETATM    7  C   UNL     1     -13.111  13.407  71.753  1.00  0.00    -0.479 A  
HETATM    8  C   UNL     1     -13.406  14.292  72.798  1.00  0.00    -0.621 A  
HETATM    9  C   UNL     1     -12.813  15.554  72.852  1.00  0.00    -0.457 A  
HETATM   10  C   UNL     1     -11.833  15.879  71.912  1.00  0.00    -0.595 A  
HETATM   11  N   UNL     1     -13.022  16.386  73.957  1.00  0.00    -0.853 NA 
HETATM   12  H2  UNL     1     -12.761  15.872  74.800  1.00  0.00     0.000 HD 
HETATM   13  H1  UNL     1     -12.589  17.308  73.997  1.00  0.00     0.000 HD 
HETATM   14  C   UNL     1     -11.534  15.004  70.864  1.00  0.00    -0.330 A  
ENDBRANCH   4   6
ENDBRANCH   3   4
ENDBRANCH   2   3
TORSDOF 3
ENDMDL
MODEL       12
REMARK 921   NORMALIZED FREE ENERGY PREDICTED BY IDOCK:   -4.51 KCAL/MOL
REMARK 922        TOTAL FREE ENERGY PREDICTED BY IDOCK:   -5.61 KCAL/MOL
REMARK 923 INTER-LIGAND FREE ENERGY PREDICTED BY IDOCK:   -5.37 KCAL/MOL
REMARK 924 INTRA-LIGAND FREE ENERGY PREDICTED BY IDOCK:   -0.24 KCAL/MOL
REMARK 927      BINDING AFFINITY PREDICTED BY RF-SCORE:    0.00 PKD
ROOT
HETATM    1  C   UNL     1     -11.912  15.921  72.226  1.00  0.00    -0.617 C  
HETATM    2  C   UNL     1     -13.207  15.584  71.509  1.00  0.00    -0.509 C  
ENDROOT
BRANCH   2   3
HETATM    3  O   UNL     1     -13.063  14.284  70.927  1.00  0.00    -0.350 OA 
BRANCH   3   4
HETATM    4  C   UNL     1     -13.384  13.241  71.732  1.00  0.00    -0.393 C  
HETATM    5  O   UNL     1     -14.167  13.263  72.667  1.00  0.00    -0.724 OA 
BRANCH   4   6
HETATM    6  C   UNL     1     -12.711  12.011  71.240  1.00  0.00    -0.382 A  
HETATM    7  C   UNL     1     -12.992  10.794  71.872  1.00  0.00    -0.524 A  
HETATM    8  C   UNL     1     -12.418   9.609  71.396  1.00  0.00    -0.465 A  
HETATM    9  C   UNL     1     -11.531   9.628  70.319  1.00  0.00    -0.233 A  
HETATM   10  C   UNL     1     -11.312  10.833  69.648  1.00  0.00    -0.362 A  
HETATM   11  N   UNL     1     -11.053   8.430  69.776  1.00  0.00    -0.433 NA 
HETATM   12  H2  UNL     1     -11.854   7.851  69.522  1.00  0.00     0.000 HD 
HETATM   13  H1  UNL     1     -10.405   8.444  68.989  1.00  0.00     0.000 HD 
HETATM   14  C   UNL     1     -11.876  12.021  70.117  1.00  0.00    -0.383 A  
ENDBRANCH   4   6
ENDBRANCH   3   4
ENDBRANCH   2   3
TORSDOF 3
ENDMDL
MODEL       13
REMARK 921   NORMALIZED FREE ENERGY PREDICTED BY IDOCK:   -4.50 KCAL/MOL
REMARK 922        TOTAL FREE ENERGY PREDICTED BY IDOCK:   -5.60 KCAL/MOL
REMARK 923 INTER-LIGAND FREE ENERGY PREDICTED BY IDOCK:   -5.45 KCAL/MOL
REMARK 924 INTRA-LIGAND FREE ENERGY PREDICTED BY IDOCK:   -0.14 KCAL/MOL
REMARK 927      BINDING AFFINITY PREDICTED BY RF-SCORE:    0.00 PKD
ROOT
HETATM    1  C   UNL     1     -11.484  11.864  66.861  1.00  0.00    -0.390 C  
HETATM    2  C   UNL     1     -10.882  12.248  68.201  1.00  0.00    -0.227 C  
ENDROOT
BRANCH   2   3
HETATM    3  O   UNL     1     -11.920  12.825  69.001  1.00  0.00    -0.292 OA 
BRANCH   3   4
HETATM    4  C   UNL     1     -11.892  14.175  69.115  1.00  0.00    -0.341 C  
HETATM    5  O   UNL     1     -11.762  14.976  68.204  1.00  0.00    -0.333 OA 
BRANCH   4   6
HETATM    6  C   UNL     1     -12.152  14.558  70.527  1.00  0.00    -0.395 A  
HETATM    7  C   UNL     1     -11.624  15.762  71.004  1.00  0.00    -0.453 A  
HETATM    8  C   UNL     1     -11.899  16.179  72.313  1.00  0.00    -0.631 A  
HETATM    9  C   UNL     1     -12.664  15.385  73.168  1.00  0.00    -0.479 A  
HETATM   10  C   UNL     1     -13.247  14.221  72.665  1.00  0.00    -0.601 A  
HETATM   11  N   UNL     1     -13.031  15.860  74.432  1.00  0.00    -0.880 NA 
HETATM   12  H2  UNL     1     -13.508  16.754  74.313  1.00  0.00     0.000 HD 
HETATM   13  H1  UNL     1     -13.590  15.279  75.057  1.00  0.00     0.000 HD 
HETATM   14  C   UNL     1     -12.977  13.795  71.362  1.00  0.00    -0.433 A  
ENDBRANCH   4   6
ENDBRANCH   3   4
ENDBRANCH   2   3
TORSDOF 3
ENDMDL
MODEL       14
REMARK 921   NORMALIZED FREE ENERGY PREDICTED BY IDOCK:   -4.47 KCAL/MOL
REMARK 922        TOTAL FREE ENERGY PREDICTED BY IDOCK:   -5.56 KCAL/MOL
REMARK 923 INTER-LIGAND FREE ENERGY PREDICTED BY IDOCK:   -5.38 KCAL/MOL
REMARK 924 INTRA-LIGAND FREE ENERGY PREDICTED BY IDOCK:   -0.18 KCAL/MOL
REMARK 927      BINDING AFFINITY PREDICTED BY RF-SCORE:    0.00 PKD
ROOT
HETATM    1  C   UNL     1     -13.153  15.346  71.298  1.00  0.00    -0.564 C  
HETATM    2  C   UNL     1     -11.739  15.348  70.742  1.00  0.00    -0.348 C  
ENDROOT
BRANCH   2   3
HETATM    3  O   UNL     1     -11.805  14.938  69.372  1.00  0.00    -0.298 OA 
BRANCH   3   4
HETATM    4  C   UNL     1     -10.961  15.578  68.526  1.00  0.00    -0.288 C  
HETATM    5  O   UNL     1     -10.041  16.316  68.841  1.00  0.00    -0.226 OA 
BRANCH   4   6
HETATM    6  C   UNL     1     -11.255  15.168  67.129  1.00  0.00    -0.320 A  
HETATM    7  C   UNL     1     -12.144  14.109  66.913  1.00  0.00    -0.466 A  
HETATM    8  C   UNL     1     -12.486  13.735  65.608  1.00  0.00    -0.541 A  
HETATM    9  C   UNL     1     -11.917  14.381  64.509  1.00  0.00    -0.472 A  
HETATM   10  C   UNL     1     -11.088  15.482  64.730  1.00  0.00    -0.421 A  
HETATM   11  N   UNL     1     -12.350  14.082  63.212  1.00  0.00    -1.145 NA 
HETATM   12  H2  UNL     1     -13.361  14.213  63.173  1.00  0.00     0.000 HD 
HETATM   13  H1  UNL     1     -11.934  14.554  62.409  1.00  0.00     0.000 HD 
HETATM   14  C   UNL     1     -10.738  15.861  66.028  1.00  0.00    -0.289 A  
ENDBRANCH   4   6
ENDBRANCH   3   4
ENDBRANCH   2   3
TORSDOF 3
ENDMDL
MODEL       15
REMARK 921   NORMALIZED FREE ENERGY PREDICTED BY IDOCK:   -4.42 KCAL/MOL
REMARK 922        TOTAL FREE ENERGY PREDICTED BY IDOCK:   -5.51 KCAL/MOL
REMARK 923 INTER-LIGAND FREE ENERGY PREDICTED BY IDOCK:   -5.35 KCAL/MOL
REMARK 924 INTRA-LIGAND FREE ENERGY PREDICTED BY IDOCK:   -0.16 KCAL/MOL
REMARK 927      BINDING AFFINITY PREDICTED BY RF-SCORE:    0.00 PKD
ROOT
HETATM    1  C   UNL     1      -9.589   8.498  72.045  1.00  0.00    -0.371 C  
HETATM    2  C   UNL     1     -11.107   8.553  72.045  1.00  0.00    -0.342 C  
ENDROOT
BRANCH   2   3
HETATM    3  O   UNL     1     -11.503   9.774  71.412  1.00  0.00    -0.371 OA 
BRANCH   3   4
HETATM    4  C   UNL     1     -12.739  10.228  71.733  1.00  0.00    -0.433 C  
HETATM    5  O   UNL     1     -13.643   9.576  72.230  1.00  0.00    -0.444 OA 
BRANCH   4   6
HETATM    6  C   UNL     1     -12.809  11.691  71.484  1.00  0.00    -0.469 A  
HETATM    7  C   UNL     1     -12.137  12.217  70.375  1.00  0.00    -0.395 A  
HETATM    8  C   UNL     1     -12.231  13.582  70.080  1.00  0.00    -0.400 A  
HETATM    9  C   UNL     1     -12.957  14.442  70.906  1.00  0.00    -0.348 A  
HETATM   10  C   UNL     1     -13.683  13.901  71.969  1.00  0.00    -0.577 A  
HETATM   11  N   UNL     1     -13.143  15.780  70.543  1.00  0.00    -0.753 NA 
HETATM   12  H2  UNL     1     -13.557  15.806  69.611  1.00  0.00     0.000 HD 
HETATM   13  H1  UNL     1     -13.673  16.408  71.147  1.00  0.00     0.000 HD 
HETATM   14  C   UNL     1     -13.594  12.541  72.273  1.00  0.00    -0.443 A  
ENDBRANCH   4   6
ENDBRANCH   3   4
ENDBRANCH   2   3
TORSDOF 3
ENDMDL
MODEL       16
REMARK 921   NORMALIZED FREE ENERGY PREDICTED BY IDOCK:   -4.41 KCAL/MOL
REMARK 922        TOTAL FREE ENERGY PREDICTED BY IDOCK:   -5.50 KCAL/MOL
REMARK 923 INTER-LIGAND FREE ENERGY PREDICTED BY IDOCK:   -5.33 KCAL/MOL
REMARK 924 INTRA-LIGAND FREE ENERGY PREDICTED BY IDOCK:   -0.17 KCAL/MOL
REMARK 927      BINDING AFFINITY PREDICTED BY RF-SCORE:    0.00 PKD
ROOT
HETATM    1  C   UNL     1     -12.728  10.238  71.106  1.00  0.00    -0.502 C  
HETATM    2  C   UNL     1     -12.153  11.399  70.314  1.00  0.00    -0.374 C  
ENDROOT
BRANCH   2   3
HETATM    3  O   UNL     1     -12.224  11.063  68.925  1.00  0.00    -0.519 OA 
BRANCH   3   4
HETATM    4  C   UNL     1     -11.090  11.271  68.211  1.00  0.00    -0.240 C  
HETATM    5  O   UNL     1      -9.982  10.831  68.469  1.00  0.00    -0.164 OA 
BRANCH   4   6
HETATM    6  C   UNL     1     -11.413  12.044  66.984  1.00  0.00    -0.402 A  
HETATM    7  C   UNL     1     -11.030  11.524  65.743  1.00  0.00    -0.305 A  
HETATM    8  C   UNL     1     -11.369  12.200  64.564  1.00  0.00    -0.393 A  
HETATM    9  C   UNL     1     -12.053  13.416  64.612  1.00  0.00    -0.410 A  
HETATM   10  C   UNL     1     -12.495  13.892  65.847  1.00  0.00    -0.519 A  
HETATM   11  N   UNL     1     -12.490  14.026  63.431  1.00  0.00    -1.123 NA 
HETATM   12  H2  UNL     1     -13.062  13.356  62.915  1.00  0.00     0.000 HD 
HETATM   13  H1  UNL     1     -12.990  14.914  63.465  1.00  0.00     0.000 HD 
HETATM   14  C   UNL     1     -12.159  13.228  67.028  1.00  0.00    -0.375 A  
ENDBRANCH   4   6
ENDBRANCH   3   4
ENDBRANCH   2   3
TORSDOF 3
ENDMDL
MODEL       17
REMARK 921   NORMALIZED FREE ENERGY PREDICTED BY IDOCK:   -4.40 KCAL/MOL
REMARK 922        TOTAL FREE ENERGY PREDICTED BY IDOCK:   -5.48 KCAL/MOL
REMARK 923 INTER-LIGAND FREE ENERGY PREDICTED BY IDOCK:   -5.34 KCAL/MOL
REMARK 924 INTRA-LIGAND FREE ENERGY PREDICTED BY IDOCK:   -0.14 KCAL/MOL
REMARK 927      BINDING AFFINITY PREDICTED BY RF-SCORE:    0.00 PKD
ROOT
HETATM    1  C   UNL     1     -10.993  10.848  67.659  1.00  0.00    -0.350 C  
HETATM    2  C   UNL     1     -11.960  11.233  68.765  1.00  0.00    -0.282 C  
ENDROOT
BRANCH   2   3
HETATM    3  O   UNL     1     -11.399  12.343  69.474  1.00  0.00    -0.245 OA 
BRANCH   3   4
HETATM    4  C   UNL     1     -11.953  13.551  69.207  1.00  0.00    -0.330 C  
HETATM    5  O   UNL     1     -12.226  13.995  68.104  1.00  0.00    -0.325 OA 
BRANCH   4   6
HETATM    6  C   UNL     1     -12.285  14.236  70.483  1.00  0.00    -0.427 A  
HETATM    7  C   UNL     1     -13.113  13.581  71.402  1.00  0.00    -0.385 A  
HETATM    8  C   UNL     1     -13.397  14.175  72.637  1.00  0.00    -0.638 A  
HETATM    9  C   UNL     1     -12.898  15.439  72.953  1.00  0.00    -0.445 A  
HETATM   10  C   UNL     1     -12.016  16.056  72.064  1.00  0.00    -0.622 A  
HETATM   11  N   UNL     1     -13.090  15.975  74.231  1.00  0.00    -0.893 NA 
HETATM   12  H2  UNL     1     -12.731  15.309  74.916  1.00  0.00     0.000 HD 
HETATM   13  H1  UNL     1     -12.725  16.900  74.461  1.00  0.00     0.000 HD 
HETATM   14  C   UNL     1     -11.729  15.474  70.827  1.00  0.00    -0.397 A  
ENDBRANCH   4   6
ENDBRANCH   3   4
ENDBRANCH   2   3
TORSDOF 3
ENDMDL
MODEL       18
REMARK 921   NORMALIZED FREE ENERGY PREDICTED BY IDOCK:   -4.38 KCAL/MOL
REMARK 922        TOTAL FREE ENERGY PREDICTED BY IDOCK:   -5.45 KCAL/MOL
REMARK 923 INTER-LIGAND FREE ENERGY PREDICTED BY IDOCK:   -5.29 KCAL/MOL
REMARK 924 INTRA-LIGAND FREE ENERGY PREDICTED BY IDOCK:   -0.17 KCAL/MOL
REMARK 927      BINDING AFFINITY PREDICTED BY RF-SCORE:    0.00 PKD
ROOT
HETATM    1  C   UNL     1     -12.690  10.673  70.768  1.00  0.00    -0.468 C  
HETATM    2  C   UNL     1     -11.617  11.197  69.830  1.00  0.00    -0.334 C  
ENDROOT
BRANCH   2   3
HETATM    3  O   UNL     1     -12.193  11.317  68.525  1.00  0.00    -0.588 OA 
BRANCH   3   4
HETATM    4  C   UNL     1     -11.889  12.453  67.851  1.00  0.00    -0.308 C  
HETATM    5  O   UNL     1     -11.874  13.584  68.308  1.00  0.00    -0.337 OA 
BRANCH   4   6
HETATM    6  C   UNL     1     -11.467  12.110  66.468  1.00  0.00    -0.430 A  
HETATM    7  C   UNL     1     -10.401  11.221  66.293  1.00  0.00    -0.294 A  
HETATM    8  C   UNL     1     -10.015  10.833  65.003  1.00  0.00    -0.361 A  
HETATM    9  C   UNL     1     -10.657  11.357  63.880  1.00  0.00    -0.392 A  
HETATM   10  C   UNL     1     -11.765  12.186  64.063  1.00  0.00    -0.515 A  
HETATM   11  N   UNL     1     -10.346  10.878  62.602  1.00  0.00    -0.766 NA 
HETATM   12  H2  UNL     1     -10.471   9.865  62.600  1.00  0.00     0.000 HD 
HETATM   13  H1  UNL     1     -10.815  11.261  61.781  1.00  0.00     0.000 HD 
HETATM   14  C   UNL     1     -12.155  12.581  65.344  1.00  0.00    -0.494 A  
ENDBRANCH   4   6
ENDBRANCH   3   4
ENDBRANCH   2   3
TORSDOF 3
ENDMDL
MODEL       19
REMARK 921   NORMALIZED FREE ENERGY PREDICTED BY IDOCK:   -4.36 KCAL/MOL
REMARK 922        TOTAL FREE ENERGY PREDICTED BY IDOCK:   -5.43 KCAL/MOL
REMARK 923 INTER-LIGAND FREE ENERGY PREDICTED BY IDOCK:   -5.17 KCAL/MOL
REMARK 924 INTRA-LIGAND FREE ENERGY PREDICTED BY IDOCK:   -0.27 KCAL/MOL
REMARK 927      BINDING AFFINITY PREDICTED BY RF-SCORE:    0.00 PKD
ROOT
HETATM    1  C   UNL     1     -11.095  11.739  63.574  1.00  0.00    -0.503 C  
HETATM    2  C   UNL     1     -12.280  12.663  63.355  1.00  0.00    -0.517 C  
ENDROOT
BRANCH   2   3
HETATM    3  O   UNL     1     -12.753  13.085  64.638  1.00  0.00    -0.658 OA 
BRANCH   3   4
HETATM    4  C   UNL     1     -11.949  13.949  65.306  1.00  0.00    -0.375 C  
HETATM    5  O   UNL     1     -11.419  14.947  64.847  1.00  0.00    -0.380 OA 
BRANCH   4   6
HETATM    6  C   UNL     1     -11.884  13.557  66.738  1.00  0.00    -0.450 A  
HETATM    7  C   UNL     1     -12.028  14.550  67.713  1.00  0.00    -0.345 A  
HETATM    8  C   UNL     1     -12.029  14.206  69.070  1.00  0.00    -0.376 A  
HETATM    9  C   UNL     1     -11.844  12.882  69.470  1.00  0.00    -0.320 A  
HETATM   10  C   UNL     1     -11.773  11.887  68.493  1.00  0.00    -0.388 A  
HETATM   11  N   UNL     1     -11.962  12.528  70.819  1.00  0.00    -0.462 NA 
HETATM   12  H2  UNL     1     -12.874  12.840  71.154  1.00  0.00     0.000 HD 
HETATM   13  H1  UNL     1     -11.827  11.561  71.111  1.00  0.00     0.000 HD 
HETATM   14  C   UNL     1     -11.768  12.220  67.136  1.00  0.00    -0.396 A  
ENDBRANCH   4   6
ENDBRANCH   3   4
ENDBRANCH   2   3
TORSDOF 3
ENDMDL
MODEL       20
REMARK 921   NORMALIZED FREE ENERGY PREDICTED BY IDOCK:   -4.34 KCAL/MOL
REMARK 922        TOTAL FREE ENERGY PREDICTED BY IDOCK:   -5.41 KCAL/MOL
REMARK 923 INTER-LIGAND FREE ENERGY PREDICTED BY IDOCK:   -5.25 KCAL/MOL
REMARK 924 INTRA-LIGAND FREE ENERGY PREDICTED BY IDOCK:   -0.16 KCAL/MOL
REMARK 927      BINDING AFFINITY PREDICTED BY RF-SCORE:    0.00 PKD
ROOT
HETATM    1  C   UNL     1      -9.450   8.629  71.877  1.00  0.00    -0.369 C  
HETATM    2  C   UNL     1     -10.951   8.702  72.092  1.00  0.00    -0.364 C  
ENDROOT
BRANCH   2   3
HETATM    3  O   UNL     1     -11.446   9.832  71.365  1.00  0.00    -0.371 OA 
BRANCH   3   4
HETATM    4  C   UNL     1     -12.681  10.263  71.718  1.00  0.00    -0.433 C  
HETATM    5  O   UNL     1     -13.535   9.615  72.301  1.00  0.00    -0.441 OA 
BRANCH   4   6
HETATM    6  C   UNL     1     -12.819  11.702  71.377  1.00  0.00    -0.461 A  
HETATM    7  C   UNL     1     -13.608  12.515  72.200  1.00  0.00    -0.458 A  
HETATM    8  C   UNL     1     -13.711  13.886  71.939  1.00  0.00    -0.521 A  
HETATM    9  C   UNL     1     -13.068  14.453  70.838  1.00  0.00    -0.328 A  
HETATM   10  C   UNL     1     -12.226  13.653  70.064  1.00  0.00    -0.395 A  
HETATM   11  N   UNL     1     -13.080  15.840  70.650  1.00  0.00    -0.733 NA 
HETATM   12  H2  UNL     1     -12.718  16.282  71.496  1.00  0.00     0.000 HD 
HETATM   13  H1  UNL     1     -12.611  16.255  69.845  1.00  0.00     0.000 HD 
HETATM   14  C   UNL     1     -12.119  12.283  70.313  1.00  0.00    -0.376 A  
ENDBRANCH   4   6
ENDBRANCH   3   4
ENDBRANCH   2   3
TORSDOF 3
ENDMDL
MODEL       21
REMARK 921   NORMALIZED FREE ENERGY PREDICTED BY IDOCK:   -4.33 KCAL/MOL
REMARK 922        TOTAL FREE ENERGY PREDICTED BY IDOCK:   -5.39 KCAL/MOL
REMARK 923 INTER-LIGAND FREE ENERGY PREDICTED BY IDOCK:   -5.12 KCAL/MOL
REMARK 924 INTRA-LIGAND FREE ENERGY PREDICTED BY IDOCK:   -0.27 KCAL/MOL
REMARK 927      BINDING AFFINITY PREDICTED BY RF-SCORE:    0.00 PKD
ROOT
HETATM    1  C   UNL     1     -10.117  10.501  64.294  1.00  0.00    -0.380 C  
HETATM    2  C   UNL     1     -10.591  11.751  63.574  1.00  0.00    -0.440 C  
ENDROOT
BRANCH   2   3
HETATM    3  O   UNL     1     -10.823  12.764  64.558  1.00  0.00    -0.308 OA 
BRANCH   3   4
HETATM    4  C   UNL     1     -12.062  12.776  65.108  1.00  0.00    -0.450 C  
HETATM    5  O   UNL     1     -13.099  12.437  64.563  1.00  0.00    -0.823 OA 
BRANCH   4   6
HETATM    6  C   UNL     1     -11.965  13.173  66.536  1.00  0.00    -0.459 A  
HETATM    7  C   UNL     1     -11.855  12.170  67.506  1.00  0.00    -0.307 A  
HETATM    8  C   UNL     1     -11.705  12.512  68.855  1.00  0.00    -0.367 A  
HETATM    9  C   UNL     1     -11.705  13.849  69.256  1.00  0.00    -0.334 A  
HETATM   10  C   UNL     1     -11.742  14.845  68.279  1.00  0.00    -0.342 A  
HETATM   11  N   UNL     1     -11.437  14.187  70.588  1.00  0.00    -0.514 NA 
HETATM   12  H2  UNL     1     -10.543  13.773  70.851  1.00  0.00     0.000 HD 
HETATM   13  H1  UNL     1     -11.438  15.164  70.881  1.00  0.00     0.000 HD 
HETATM   14  C   UNL     1     -11.895  14.514  66.931  1.00  0.00    -0.399 A  
ENDBRANCH   4   6
ENDBRANCH   3   4
ENDBRANCH   2   3
TORSDOF 3
ENDMDL
MODEL       22
REMARK 921   NORMALIZED FREE ENERGY PREDICTED BY IDOCK:   -4.31 KCAL/MOL
REMARK 922        TOTAL FREE ENERGY PREDICTED BY IDOCK:   -5.38 KCAL/MOL
REMARK 923 INTER-LIGAND FREE ENERGY PREDICTED BY IDOCK:   -5.24 KCAL/MOL
REMARK 924 INTRA-LIGAND FREE ENERGY PREDICTED BY IDOCK:   -0.14 KCAL/MOL
REMARK 927      BINDING AFFINITY PREDICTED BY RF-SCORE:    0.00 PKD
ROOT
HETATM    1  C   UNL     1     -12.267  12.548  64.322  1.00  0.00    -0.535 C  
HETATM    2  C   UNL     1     -12.654  13.553  65.393  1.00  0.00    -0.483 C  
ENDROOT
BRANCH   2   3
HETATM    3  O   UNL     1     -11.625  13.555  66.388  1.00  0.00    -0.323 OA 
BRANCH   3   4
HETATM    4  C   UNL     1     -11.903  12.867  67.522  1.00  0.00    -0.351 C  
HETATM    5  O   UNL     1     -12.108  11.668  67.610  1.00  0.00    -0.615 OA 
BRANCH   4   6
HETATM    6  C   UNL     1     -11.819  13.783  68.689  1.00  0.00    -0.409 A  
HETATM    7  C   UNL     1     -11.558  15.139  68.461  1.00  0.00    -0.354 A  
HETATM    8  C   UNL     1     -11.530  16.038  69.535  1.00  0.00    -0.326 A  
HETATM    9  C   UNL     1     -11.719  15.592  70.843  1.00  0.00    -0.375 A  
HETATM   10  C   UNL     1     -12.050  14.253  71.057  1.00  0.00    -0.416 A  
HETATM   11  N   UNL     1     -11.806  16.509  71.897  1.00  0.00    -0.652 NA 
HETATM   12  H2  UNL     1     -12.542  17.181  71.677  1.00  0.00     0.000 HD 
HETATM   13  H1  UNL     1     -11.943  16.183  72.853  1.00  0.00     0.000 HD 
HETATM   14  C   UNL     1     -12.077  13.347  69.994  1.00  0.00    -0.404 A  
ENDBRANCH   4   6
ENDBRANCH   3   4
ENDBRANCH   2   3
TORSDOF 3
ENDMDL
MODEL       23
REMARK 921   NORMALIZED FREE ENERGY PREDICTED BY IDOCK:   -4.26 KCAL/MOL
REMARK 922        TOTAL FREE ENERGY PREDICTED BY IDOCK:   -5.31 KCAL/MOL
REMARK 923 INTER-LIGAND FREE ENERGY PREDICTED BY IDOCK:   -5.09 KCAL/MOL
REMARK 924 INTRA-LIGAND FREE ENERGY PREDICTED BY IDOCK:   -0.22 KCAL/MOL
REMARK 927      BINDING AFFINITY PREDICTED BY RF-SCORE:    0.00 PKD
ROOT
HETATM    1  C   UNL     1     -10.976  12.185  63.564  1.00  0.00    -0.521 C  
HETATM    2  C   UNL     1     -12.152  13.147  63.572  1.00  0.00    -0.514 C  
ENDROOT
BRANCH   2   3
HETATM    3  O   UNL     1     -12.682  13.183  64.902  1.00  0.00    -0.639 OA 
BRANCH   3   4
HETATM    4  C   UNL     1     -11.941  13.862  65.811  1.00  0.00    -0.400 C  
HETATM    5  O   UNL     1     -11.474  14.981  65.674  1.00  0.00    -0.331 OA 
BRANCH   4   6
HETATM    6  C   UNL     1     -11.859  13.076  67.069  1.00  0.00    -0.437 A  
HETATM    7  C   UNL     1     -11.510  11.723  66.994  1.00  0.00    -0.368 A  
HETATM    8  C   UNL     1     -11.369  10.969  68.165  1.00  0.00    -0.374 A  
HETATM    9  C   UNL     1     -11.613  11.541  69.415  1.00  0.00    -0.321 A  
HETATM   10  C   UNL     1     -11.889  12.907  69.488  1.00  0.00    -0.383 A  
HETATM   11  N   UNL     1     -11.357  10.817  70.585  1.00  0.00    -0.421 NA 
HETATM   12  H2  UNL     1     -10.387  10.500  70.561  1.00  0.00     0.000 HD 
HETATM   13  H1  UNL     1     -11.535  11.234  71.498  1.00  0.00     0.000 HD 
HETATM   14  C   UNL     1     -12.036  13.667  68.325  1.00  0.00    -0.385 A  
ENDBRANCH   4   6
ENDBRANCH   3   4
ENDBRANCH   2   3
TORSDOF 3
ENDMDL
MODEL       24
REMARK 921   NORMALIZED FREE ENERGY PREDICTED BY IDOCK:   -4.25 KCAL/MOL
REMARK 922        TOTAL FREE ENERGY PREDICTED BY IDOCK:   -5.31 KCAL/MOL
REMARK 923 INTER-LIGAND FREE ENERGY PREDICTED BY IDOCK:   -5.11 KCAL/MOL
REMARK 924 INTRA-LIGAND FREE ENERGY PREDICTED BY IDOCK:   -0.20 KCAL/MOL
REMARK 927      BINDING AFFINITY PREDICTED BY RF-SCORE:    0.00 PKD
ROOT
HETATM    1  C   UNL     1     -11.057  12.128  63.305  1.00  0.00    -0.408 C  
HETATM    2  C   UNL     1     -12.526  12.085  63.685  1.00  0.00    -0.525 C  
ENDROOT
BRANCH   2   3
HETATM    3  O   UNL     1     -12.771  13.144  64.616  1.00  0.00    -0.653 OA 
BRANCH   3   4
HETATM    4  C   UNL     1     -12.180  13.009  65.828  1.00  0.00    -0.453 C  
HETATM    5  O   UNL     1     -12.059  11.974  66.463  1.00  0.00    -0.617 OA 
BRANCH   4   6
HETATM    6  C   UNL     1     -11.595  14.310  66.242  1.00  0.00    -0.379 A  
HETATM    7  C   UNL     1     -11.684  14.691  67.586  1.00  0.00    -0.389 A  
HETATM    8  C   UNL     1     -11.093  15.884  68.018  1.00  0.00    -0.334 A  
HETATM    9  C   UNL     1     -10.446  16.727  67.114  1.00  0.00    -0.299 A  
HETATM   10  C   UNL     1     -10.297  16.309  65.790  1.00  0.00    -0.393 A  
HETATM   11  N   UNL     1      -9.758  17.857  67.570  1.00  0.00    -0.272 NA 
HETATM   12  H2  UNL     1      -9.080  17.559  68.272  1.00  0.00     0.000 HD 
HETATM   13  H1  UNL     1      -9.285  18.474  66.909  1.00  0.00     0.000 HD 
HETATM   14  C   UNL     1     -10.886  15.122  65.348  1.00  0.00    -0.393 A  
ENDBRANCH   4   6
ENDBRANCH   3   4
ENDBRANCH   2   3
TORSDOF 3
ENDMDL
MODEL       25
REMARK 921   NORMALIZED FREE ENERGY PREDICTED BY IDOCK:   -4.25 KCAL/MOL
REMARK 922        TOTAL FREE ENERGY PREDICTED BY IDOCK:   -5.31 KCAL/MOL
REMARK 923 INTER-LIGAND FREE ENERGY PREDICTED BY IDOCK:   -5.18 KCAL/MOL
REMARK 924 INTRA-LIGAND FREE ENERGY PREDICTED BY IDOCK:   -0.13 KCAL/MOL
REMARK 927      BINDING AFFINITY PREDICTED BY RF-SCORE:    0.00 PKD
ROOT
HETATM    1  C   UNL     1     -12.294  12.952  64.743  1.00  0.00    -0.516 C  
HETATM    2  C   UNL     1     -12.336  14.191  65.620  1.00  0.00    -0.456 C  
ENDROOT
BRANCH   2   3
HETATM    3  O   UNL     1     -11.065  14.842  65.523  1.00  0.00    -0.322 OA 
BRANCH   3   4
HETATM    4  C   UNL     1     -11.090  16.112  65.052  1.00  0.00    -0.294 C  
HETATM    5  O   UNL     1     -11.418  16.463  63.931  1.00  0.00    -1.063 OA 
BRANCH   4   6
HETATM    6  C   UNL     1     -10.751  17.054  66.151  1.00  0.00    -0.099 A  
HETATM    7  C   UNL     1     -10.711  18.424  65.873  1.00  0.00    -0.209 A  
HETATM    8  C   UNL     1     -10.452  19.341  66.899  1.00  0.00    -0.547 A  
HETATM    9  C   UNL     1     -10.189  18.903  68.197  1.00  0.00    -0.391 A  
HETATM   10  C   UNL     1     -10.300  17.541  68.484  1.00  0.00    -0.380 A  
HETATM   11  N   UNL     1     -10.046  19.826  69.239  1.00  0.00    -0.589 NA 
HETATM   12  H2  UNL     1     -10.878  20.415  69.262  1.00  0.00     0.000 HD 
HETATM   13  H1  UNL     1      -9.853  19.505  70.188  1.00  0.00     0.000 HD 
HETATM   14  C   UNL     1     -10.555  16.618  67.467  1.00  0.00    -0.311 A  
ENDBRANCH   4   6
ENDBRANCH   3   4
ENDBRANCH   2   3
TORSDOF 3
ENDMDL
MODEL       26
REMARK 921   NORMALIZED FREE ENERGY PREDICTED BY IDOCK:   -4.25 KCAL/MOL
REMARK 922        TOTAL FREE ENERGY PREDICTED BY IDOCK:   -5.31 KCAL/MOL
REMARK 923 INTER-LIGAND FREE ENERGY PREDICTED BY IDOCK:   -5.17 KCAL/MOL
REMARK 924 INTRA-LIGAND FREE ENERGY PREDICTED BY IDOCK:   -0.14 KCAL/MOL
REMARK 927      BINDING AFFINITY PREDICTED BY RF-SCORE:    0.00 PKD
ROOT
HETATM    1  C   UNL     1     -11.491  12.054  65.905  1.00  0.00    -0.392 C  
HETATM    2  C   UNL     1     -11.858  12.723  67.218  1.00  0.00    -0.350 C  
ENDROOT
BRANCH   2   3
HETATM    3  O   UNL     1     -12.047  11.697  68.198  1.00  0.00    -0.577 OA 
BRANCH   3   4
HETATM    4  C   UNL     1     -11.882  12.079  69.488  1.00  0.00    -0.326 C  
HETATM    5  O   UNL     1     -11.825  13.225  69.902  1.00  0.00    -0.312 OA 
BRANCH   4   6
HETATM    6  C   UNL     1     -11.882  10.878  70.363  1.00  0.00    -0.449 A  
HETATM    7  C   UNL     1     -10.737  10.075  70.402  1.00  0.00    -0.369 A  
HETATM    8  C   UNL     1     -10.684   8.970  71.260  1.00  0.00    -0.379 A  
HETATM    9  C   UNL     1     -11.781   8.629  72.052  1.00  0.00    -0.369 A  
HETATM   10  C   UNL     1     -12.893   9.473  72.063  1.00  0.00    -0.499 A  
HETATM   11  N   UNL     1     -11.681   7.595  72.990  1.00  0.00    -0.616 NA 
HETATM   12  H2  UNL     1     -10.891   7.795  73.605  1.00  0.00     0.000 HD 
HETATM   13  H1  UNL     1     -12.483   7.346  73.569  1.00  0.00     0.000 HD 
HETATM   14  C   UNL     1     -12.957  10.577  71.208  1.00  0.00    -0.532 A  
ENDBRANCH   4   6
ENDBRANCH   3   4
ENDBRANCH   2   3
TORSDOF 3
ENDMDL
MODEL       27
REMARK 921   NORMALIZED FREE ENERGY PREDICTED BY IDOCK:   -4.25 KCAL/MOL
REMARK 922        TOTAL FREE ENERGY PREDICTED BY IDOCK:   -5.30 KCAL/MOL
REMARK 923 INTER-LIGAND FREE ENERGY PREDICTED BY IDOCK:   -5.06 KCAL/MOL
REMARK 924 INTRA-LIGAND FREE ENERGY PREDICTED BY IDOCK:   -0.24 KCAL/MOL
REMARK 927      BINDING AFFINITY PREDICTED BY RF-SCORE:    0.00 PKD
ROOT
HETATM    1  C   UNL     1     -10.842  19.311  67.373  1.00  0.00    -0.554 C  
HETATM    2  C   UNL     1      -9.693  18.493  67.936  1.00  0.00    -0.314 C  
ENDROOT
BRANCH   2   3
HETATM    3  O   UNL     1      -9.960  17.113  67.663  1.00  0.00    -0.266 OA 
BRANCH   3   4
HETATM    4  C   UNL     1      -9.681  16.699  66.403  1.00  0.00    -0.286 C  
HETATM    5  O   UNL     1      -8.743  17.061  65.713  1.00  0.00    -0.522 OA 
BRANCH   4   6
HETATM    6  C   UNL     1     -10.642  15.637  66.007  1.00  0.00    -0.336 A  
HETATM    7  C   UNL     1     -11.170  15.659  64.712  1.00  0.00    -0.391 A  
HETATM    8  C   UNL     1     -12.034  14.641  64.289  1.00  0.00    -0.406 A  
HETATM    9  C   UNL     1     -12.413  13.620  65.162  1.00  0.00    -0.449 A  
HETATM   10  C   UNL     1     -11.828  13.563  66.428  1.00  0.00    -0.435 A  
HETATM   11  N   UNL     1     -13.182  12.545  64.699  1.00  0.00    -0.785 NA 
HETATM   12  H2  UNL     1     -12.701  12.125  63.903  1.00  0.00     0.000 HD 
HETATM   13  H1  UNL     1     -13.459  11.799  65.337  1.00  0.00     0.000 HD 
HETATM   14  C   UNL     1     -10.967  14.576  66.860  1.00  0.00    -0.316 A  
ENDBRANCH   4   6
ENDBRANCH   3   4
ENDBRANCH   2   3
TORSDOF 3
ENDMDL
MODEL       28
REMARK 921   NORMALIZED FREE ENERGY PREDICTED BY IDOCK:   -4.21 KCAL/MOL
REMARK 922        TOTAL FREE ENERGY PREDICTED BY IDOCK:   -5.26 KCAL/MOL
REMARK 923 INTER-LIGAND FREE ENERGY PREDICTED BY IDOCK:   -4.99 KCAL/MOL
REMARK 924 INTRA-LIGAND FREE ENERGY PREDICTED BY IDOCK:   -0.27 KCAL/MOL
REMARK 927      BINDING AFFINITY PREDICTED BY RF-SCORE:    0.00 PKD
ROOT
HETATM    1  C   UNL     1      -9.984  10.929  64.707  1.00  0.00    -0.366 C  
HETATM    2  C   UNL     1     -10.676  11.479  63.473  1.00  0.00    -0.414 C  
ENDROOT
BRANCH   2   3
HETATM    3  O   UNL     1     -10.999  12.851  63.723  1.00  0.00    -0.413 OA 
BRANCH   3   4
HETATM    4  C   UNL     1     -12.018  13.065  64.591  1.00  0.00    -0.392 C  
HETATM    5  O   UNL     1     -13.094  12.489  64.601  1.00  0.00    -0.845 OA 
BRANCH   4   6
HETATM    6  C   UNL     1     -11.595  14.052  65.617  1.00  0.00    -0.332 A  
HETATM    7  C   UNL     1     -10.835  15.155  65.215  1.00  0.00    -0.414 A  
HETATM    8  C   UNL     1     -10.469  16.133  66.148  1.00  0.00    -0.334 A  
HETATM    9  C   UNL     1     -10.819  16.001  67.493  1.00  0.00    -0.292 A  
HETATM   10  C   UNL     1     -11.637  14.937  67.875  1.00  0.00    -0.364 A  
HETATM   11  N   UNL     1     -10.551  17.036  68.397  1.00  0.00    -0.361 NA 
HETATM   12  H2  UNL     1     -10.974  17.893  68.038  1.00  0.00     0.000 HD 
HETATM   13  H1  UNL     1     -10.807  16.940  69.379  1.00  0.00     0.000 HD 
HETATM   14  C   UNL     1     -12.005  13.955  66.953  1.00  0.00    -0.467 A  
ENDBRANCH   4   6
ENDBRANCH   3   4
ENDBRANCH   2   3
TORSDOF 3
ENDMDL
MODEL       29
REMARK 921   NORMALIZED FREE ENERGY PREDICTED BY IDOCK:   -4.20 KCAL/MOL
REMARK 922        TOTAL FREE ENERGY PREDICTED BY IDOCK:   -5.25 KCAL/MOL
REMARK 923 INTER-LIGAND FREE ENERGY PREDICTED BY IDOCK:   -5.10 KCAL/MOL
REMARK 924 INTRA-LIGAND FREE ENERGY PREDICTED BY IDOCK:   -0.15 KCAL/MOL
REMARK 927      BINDING AFFINITY PREDICTED BY RF-SCORE:    0.00 PKD
ROOT
HETATM    1  C   UNL     1     -10.641  18.851  67.036  1.00  0.00    -0.510 C  
HETATM    2  C   UNL     1      -9.859  17.550  67.088  1.00  0.00    -0.297 C  
ENDROOT
BRANCH   2   3
HETATM    3  O   UNL     1     -10.556  16.586  66.291  1.00  0.00    -0.294 OA 
BRANCH   3   4
HETATM    4  C   UNL     1     -10.791  15.392  66.887  1.00  0.00    -0.313 C  
HETATM    5  O   UNL     1     -10.778  15.165  68.086  1.00  0.00    -0.244 OA 
BRANCH   4   6
HETATM    6  C   UNL     1     -11.179  14.393  65.857  1.00  0.00    -0.324 A  
HETATM    7  C   UNL     1     -10.200  13.924  64.974  1.00  0.00    -0.383 A  
HETATM    8  C   UNL     1     -10.519  12.941  64.030  1.00  0.00    -0.395 A  
HETATM    9  C   UNL     1     -11.821  12.447  63.928  1.00  0.00    -0.466 A  
HETATM   10  C   UNL     1     -12.775  12.865  64.857  1.00  0.00    -0.474 A  
HETATM   11  N   UNL     1     -12.107  11.384  63.063  1.00  0.00    -0.873 NA 
HETATM   12  H2  UNL     1     -11.487  10.607  63.294  1.00  0.00     0.000 HD 
HETATM   13  H1  UNL     1     -13.058  11.024  62.988  1.00  0.00     0.000 HD 
HETATM   14  C   UNL     1     -12.467  13.848  65.800  1.00  0.00    -0.530 A  
ENDBRANCH   4   6
ENDBRANCH   3   4
ENDBRANCH   2   3
TORSDOF 3
ENDMDL
MODEL       30
REMARK 921   NORMALIZED FREE ENERGY PREDICTED BY IDOCK:   -4.19 KCAL/MOL
REMARK 922        TOTAL FREE ENERGY PREDICTED BY IDOCK:   -5.24 KCAL/MOL
REMARK 923 INTER-LIGAND FREE ENERGY PREDICTED BY IDOCK:   -5.06 KCAL/MOL
REMARK 924 INTRA-LIGAND FREE ENERGY PREDICTED BY IDOCK:   -0.18 KCAL/MOL
REMARK 927      BINDING AFFINITY PREDICTED BY RF-SCORE:    0.00 PKD
ROOT
HETATM    1  C   UNL     1      -8.807  10.837  68.940  1.00  0.00    -0.154 C  
HETATM    2  C   UNL     1      -9.507  10.086  67.821  1.00  0.00    -0.140 C  
ENDROOT
BRANCH   2   3
HETATM    3  O   UNL     1      -9.906  11.042  66.832  1.00  0.00    -0.185 OA 
BRANCH   3   4
HETATM    4  C   UNL     1     -11.154  11.550  66.977  1.00  0.00    -0.307 C  
HETATM    5  O   UNL     1     -12.014  11.152  67.745  1.00  0.00    -0.630 OA 
BRANCH   4   6
HETATM    6  C   UNL     1     -11.300  12.755  66.120  1.00  0.00    -0.371 A  
HETATM    7  C   UNL     1     -11.957  12.630  64.891  1.00  0.00    -0.459 A  
HETATM    8  C   UNL     1     -12.161  13.757  64.086  1.00  0.00    -0.478 A  
HETATM    9  C   UNL     1     -11.678  15.008  64.475  1.00  0.00    -0.368 A  
HETATM   10  C   UNL     1     -11.088  15.140  65.733  1.00  0.00    -0.330 A  
HETATM   11  N   UNL     1     -11.986  16.148  63.725  1.00  0.00    -1.338 NA 
HETATM   12  H2  UNL     1     -13.001  16.210  63.635  1.00  0.00     0.000 HD 
HETATM   13  H1  UNL     1     -11.633  17.062  64.008  1.00  0.00     0.000 HD 
HETATM   14  C   UNL     1     -10.876  14.021  66.542  1.00  0.00    -0.300 A  
ENDBRANCH   4   6
ENDBRANCH   3   4
ENDBRANCH   2   3
TORSDOF 3
ENDMDL
MODEL       31
REMARK 921   NORMALIZED FREE ENERGY PREDICTED BY IDOCK:   -4.19 KCAL/MOL
REMARK 922        TOTAL FREE ENERGY PREDICTED BY IDOCK:   -5.24 KCAL/MOL
REMARK 923 INTER-LIGAND FREE ENERGY PREDICTED BY IDOCK:   -5.05 KCAL/MOL
REMARK 924 INTRA-LIGAND FREE ENERGY PREDICTED BY IDOCK:   -0.19 KCAL/MOL
REMARK 927      BINDING AFFINITY PREDICTED BY RF-SCORE:    0.00 PKD
ROOT
HETATM    1  C   UNL     1     -11.486  14.591  67.212  1.00  0.00    -0.381 C  
HETATM    2  C   UNL     1     -11.905  13.158  67.493  1.00  0.00    -0.360 C  
ENDROOT
BRANCH   2   3
HETATM    3  O   UNL     1     -11.619  12.877  68.867  1.00  0.00    -0.273 OA 
BRANCH   3   4
HETATM    4  C   UNL     1     -10.988  11.701  69.107  1.00  0.00    -0.219 C  
HETATM    5  O   UNL     1      -9.949  11.319  68.594  1.00  0.00    -0.196 OA 
BRANCH   4   6
HETATM    6  C   UNL     1     -11.701  10.968  70.184  1.00  0.00    -0.442 A  
HETATM    7  C   UNL     1     -12.646  11.656  70.953  1.00  0.00    -0.409 A  
HETATM    8  C   UNL     1     -13.377  10.979  71.938  1.00  0.00    -0.423 A  
HETATM    9  C   UNL     1     -13.145   9.627  72.195  1.00  0.00    -0.431 A  
HETATM   10  C   UNL     1     -12.254   8.930  71.377  1.00  0.00    -0.374 A  
HETATM   11  N   UNL     1     -13.957   8.930  73.096  1.00  0.00    -1.215 NA 
HETATM   12  H2  UNL     1     -14.928   9.039  72.804  1.00  0.00     0.000 HD 
HETATM   13  H1  UNL     1     -13.787   7.942  73.284  1.00  0.00     0.000 HD 
HETATM   14  C   UNL     1     -11.518   9.596  70.395  1.00  0.00    -0.325 A  
ENDBRANCH   4   6
ENDBRANCH   3   4
ENDBRANCH   2   3
TORSDOF 3
ENDMDL
MODEL       32
REMARK 921   NORMALIZED FREE ENERGY PREDICTED BY IDOCK:   -4.19 KCAL/MOL
REMARK 922        TOTAL FREE ENERGY PREDICTED BY IDOCK:   -5.23 KCAL/MOL
REMARK 923 INTER-LIGAND FREE ENERGY PREDICTED BY IDOCK:   -5.01 KCAL/MOL
REMARK 924 INTRA-LIGAND FREE ENERGY PREDICTED BY IDOCK:   -0.22 KCAL/MOL
REMARK 927      BINDING AFFINITY PREDICTED BY RF-SCORE:    0.00 PKD
ROOT
HETATM    1  C   UNL     1     -12.085   9.033  71.813  1.00  0.00    -0.438 C  
HETATM    2  C   UNL     1     -11.623   9.545  70.460  1.00  0.00    -0.254 C  
ENDROOT
BRANCH   2   3
HETATM    3  O   UNL     1     -12.462  10.647  70.097  1.00  0.00    -0.322 OA 
BRANCH   3   4
HETATM    4  C   UNL     1     -11.820  11.811  69.833  1.00  0.00    -0.348 C  
HETATM    5  O   UNL     1     -10.951  11.985  68.994  1.00  0.00    -0.225 OA 
BRANCH   4   6
HETATM    6  C   UNL     1     -12.407  12.899  70.657  1.00  0.00    -0.385 A  
HETATM    7  C   UNL     1     -13.038  12.563  71.860  1.00  0.00    -0.473 A  
HETATM    8  C   UNL     1     -13.551  13.570  72.688  1.00  0.00    -0.572 A  
HETATM    9  C   UNL     1     -13.480  14.911  72.307  1.00  0.00    -0.409 A  
HETATM   10  C   UNL     1     -12.787  15.244  71.143  1.00  0.00    -0.494 A  
HETATM   11  N   UNL     1     -13.889  15.917  73.189  1.00  0.00    -0.682 NA 
HETATM   12  H2  UNL     1     -13.377  15.805  74.065  1.00  0.00     0.000 HD 
HETATM   13  H1  UNL     1     -13.837  16.897  72.911  1.00  0.00     0.000 HD 
HETATM   14  C   UNL     1     -12.274  14.248  70.309  1.00  0.00    -0.407 A  
ENDBRANCH   4   6
ENDBRANCH   3   4
ENDBRANCH   2   3
TORSDOF 3
ENDMDL
MODEL       33
REMARK 921   NORMALIZED FREE ENERGY PREDICTED BY IDOCK:   -4.16 KCAL/MOL
REMARK 922        TOTAL FREE ENERGY PREDICTED BY IDOCK:   -5.20 KCAL/MOL
REMARK 923 INTER-LIGAND FREE ENERGY PREDICTED BY IDOCK:   -4.92 KCAL/MOL
REMARK 924 INTRA-LIGAND FREE ENERGY PREDICTED BY IDOCK:   -0.28 KCAL/MOL
REMARK 927      BINDING AFFINITY PREDICTED BY RF-SCORE:    0.00 PKD
ROOT
HETATM    1  C   UNL     1     -10.752   7.232  67.094  1.00  0.00    -0.413 C  
HETATM    2  C   UNL     1     -10.213   8.638  67.292  1.00  0.00    -0.268 C  
ENDROOT
BRANCH   2   3
HETATM    3  O   UNL     1      -9.669   8.719  68.614  1.00  0.00    -0.157 OA 
BRANCH   3   4
HETATM    4  C   UNL     1      -9.927   9.867  69.286  1.00  0.00    -0.207 C  
HETATM    5  O   UNL     1      -9.468  10.970  69.038  1.00  0.00    -0.184 OA 
BRANCH   4   6
HETATM    6  C   UNL     1     -10.951   9.609  70.331  1.00  0.00    -0.356 A  
HETATM    7  C   UNL     1     -11.908  10.596  70.592  1.00  0.00    -0.463 A  
HETATM    8  C   UNL     1     -12.921  10.361  71.530  1.00  0.00    -0.562 A  
HETATM    9  C   UNL     1     -12.966   9.163  72.245  1.00  0.00    -0.420 A  
HETATM   10  C   UNL     1     -12.053   8.155  71.929  1.00  0.00    -0.368 A  
HETATM   11  N   UNL     1     -14.044   8.888  73.094  1.00  0.00    -1.225 NA 
HETATM   12  H2  UNL     1     -14.907   8.973  72.555  1.00  0.00     0.000 HD 
HETATM   13  H1  UNL     1     -14.077   8.013  73.616  1.00  0.00     0.000 HD 
HETATM   14  C   UNL     1     -11.037   8.381  70.998  1.00  0.00    -0.298 A  
ENDBRANCH   4   6
ENDBRANCH   3   4
ENDBRANCH   2   3
TORSDOF 3
ENDMDL
MODEL       34
REMARK 921   NORMALIZED FREE ENERGY PREDICTED BY IDOCK:   -4.14 KCAL/MOL
REMARK 922        TOTAL FREE ENERGY PREDICTED BY IDOCK:   -5.18 KCAL/MOL
REMARK 923 INTER-LIGAND FREE ENERGY PREDICTED BY IDOCK:   -5.02 KCAL/MOL
REMARK 924 INTRA-LIGAND FREE ENERGY PREDICTED BY IDOCK:   -0.16 KCAL/MOL
REMARK 927      BINDING AFFINITY PREDICTED BY RF-SCORE:    0.00 PKD
ROOT
HETATM    1  C   UNL     1     -13.193  15.418  71.156  1.00  0.00    -0.583 C  
HETATM    2  C   UNL     1     -12.042  14.431  71.069  1.00  0.00    -0.349 C  
ENDROOT
BRANCH   2   3
HETATM    3  O   UNL     1     -12.589  13.110  71.144  1.00  0.00    -0.370 OA 
BRANCH   3   4
HETATM    4  C   UNL     1     -12.065  12.208  70.278  1.00  0.00    -0.302 C  
HETATM    5  O   UNL     1     -11.562  12.452  69.194  1.00  0.00    -0.274 OA 
BRANCH   4   6
HETATM    6  C   UNL     1     -12.096  10.856  70.894  1.00  0.00    -0.455 A  
HETATM    7  C   UNL     1     -11.014   9.995  70.680  1.00  0.00    -0.392 A  
HETATM    8  C   UNL     1     -10.987   8.736  71.293  1.00  0.00    -0.345 A  
HETATM    9  C   UNL     1     -12.051   8.307  72.086  1.00  0.00    -0.367 A  
HETATM   10  C   UNL     1     -13.094   9.196  72.354  1.00  0.00    -0.493 A  
HETATM   11  N   UNL     1     -11.966   7.099  72.788  1.00  0.00    -0.520 NA 
HETATM   12  H2  UNL     1     -11.125   7.121  73.365  1.00  0.00     0.000 HD 
HETATM   13  H1  UNL     1     -12.745   6.785  73.368  1.00  0.00     0.000 HD 
HETATM   14  C   UNL     1     -13.132  10.452  71.745  1.00  0.00    -0.567 A  
ENDBRANCH   4   6
ENDBRANCH   3   4
ENDBRANCH   2   3
TORSDOF 3
ENDMDL
MODEL       35
REMARK 921   NORMALIZED FREE ENERGY PREDICTED BY IDOCK:   -4.12 KCAL/MOL
REMARK 922        TOTAL FREE ENERGY PREDICTED BY IDOCK:   -5.15 KCAL/MOL
REMARK 923 INTER-LIGAND FREE ENERGY PREDICTED BY IDOCK:   -4.86 KCAL/MOL
REMARK 924 INTRA-LIGAND FREE ENERGY PREDICTED BY IDOCK:   -0.29 KCAL/MOL
REMARK 927      BINDING AFFINITY PREDICTED BY RF-SCORE:    0.00 PKD
ROOT
HETATM    1  C   UNL     1     -11.001  15.629  64.933  1.00  0.00    -0.447 C  
HETATM    2  C   UNL     1     -12.176  15.000  64.206  1.00  0.00    -0.293 C  
ENDROOT
BRANCH   2   3
HETATM    3  O   UNL     1     -12.871  14.161  65.135  1.00  0.00    -0.686 OA 
BRANCH   3   4
HETATM    4  C   UNL     1     -12.611  12.834  65.037  1.00  0.00    -0.468 C  
HETATM    5  O   UNL     1     -12.934  12.099  64.118  1.00  0.00    -0.664 OA 
BRANCH   4   6
HETATM    6  C   UNL     1     -11.768  12.409  66.184  1.00  0.00    -0.460 A  
HETATM    7  C   UNL     1     -10.754  11.471  65.961  1.00  0.00    -0.332 A  
HETATM    8  C   UNL     1      -9.905  11.093  67.009  1.00  0.00    -0.212 A  
HETATM    9  C   UNL     1     -10.083  11.611  68.293  1.00  0.00    -0.202 A  
HETATM   10  C   UNL     1     -11.049  12.599  68.493  1.00  0.00    -0.300 A  
HETATM   11  N   UNL     1      -9.163  11.319  69.305  1.00  0.00    -0.388 NA 
HETATM   12  H2  UNL     1      -8.232  11.583  68.980  1.00  0.00     0.000 HD 
HETATM   13  H1  UNL     1      -9.293  11.697  70.244  1.00  0.00     0.000 HD 
HETATM   14  C   UNL     1     -11.903  12.980  67.455  1.00  0.00    -0.411 A  
ENDBRANCH   4   6
ENDBRANCH   3   4
ENDBRANCH   2   3
TORSDOF 3
ENDMDL
MODEL       36
REMARK 921   NORMALIZED FREE ENERGY PREDICTED BY IDOCK:   -4.12 KCAL/MOL
REMARK 922        TOTAL FREE ENERGY PREDICTED BY IDOCK:   -5.15 KCAL/MOL
REMARK 923 INTER-LIGAND FREE ENERGY PREDICTED BY IDOCK:   -4.97 KCAL/MOL
REMARK 924 INTRA-LIGAND FREE ENERGY PREDICTED BY IDOCK:   -0.18 KCAL/MOL
REMARK 927      BINDING AFFINITY PREDICTED BY RF-SCORE:    0.00 PKD
ROOT
HETATM    1  C   UNL     1     -12.117  15.462  70.547  1.00  0.00    -0.411 C  
HETATM    2  C   UNL     1     -10.830  15.283  69.761  1.00  0.00    -0.289 C  
ENDROOT
BRANCH   2   3
HETATM    3  O   UNL     1     -11.139  14.550  68.571  1.00  0.00    -0.238 OA 
BRANCH   3   4
HETATM    4  C   UNL     1     -10.997  15.230  67.408  1.00  0.00    -0.321 C  
HETATM    5  O   UNL     1     -10.633  16.388  67.286  1.00  0.00    -0.314 OA 
BRANCH   4   6
HETATM    6  C   UNL     1     -11.255  14.316  66.265  1.00  0.00    -0.337 A  
HETATM    7  C   UNL     1     -10.226  14.081  65.347  1.00  0.00    -0.368 A  
HETATM    8  C   UNL     1     -10.419  13.181  64.292  1.00  0.00    -0.410 A  
HETATM    9  C   UNL     1     -11.647  12.541  64.117  1.00  0.00    -0.389 A  
HETATM   10  C   UNL     1     -12.645  12.724  65.076  1.00  0.00    -0.538 A  
HETATM   11  N   UNL     1     -11.796  11.557  63.133  1.00  0.00    -0.908 NA 
HETATM   12  H2  UNL     1     -11.081  10.844  63.280  1.00  0.00     0.000 HD 
HETATM   13  H1  UNL     1     -12.693  11.090  63.004  1.00  0.00     0.000 HD 
HETATM   14  C   UNL     1     -12.463  13.622  66.130  1.00  0.00    -0.449 A  
ENDBRANCH   4   6
ENDBRANCH   3   4
ENDBRANCH   2   3
TORSDOF 3
ENDMDL
MODEL       37
REMARK 921   NORMALIZED FREE ENERGY PREDICTED BY IDOCK:   -4.06 KCAL/MOL
REMARK 922        TOTAL FREE ENERGY PREDICTED BY IDOCK:   -5.08 KCAL/MOL
REMARK 923 INTER-LIGAND FREE ENERGY PREDICTED BY IDOCK:   -4.82 KCAL/MOL
REMARK 924 INTRA-LIGAND FREE ENERGY PREDICTED BY IDOCK:   -0.26 KCAL/MOL
REMARK 927      BINDING AFFINITY PREDICTED BY RF-SCORE:    0.00 PKD
ROOT
HETATM    1  C   UNL     1     -10.139  15.162  68.398  1.00  0.00    -0.225 C  
HETATM    2  C   UNL     1     -11.024  15.239  67.167  1.00  0.00    -0.331 C  
ENDROOT
BRANCH   2   3
HETATM    3  O   UNL     1     -11.983  14.179  67.247  1.00  0.00    -0.397 OA 
BRANCH   3   4
HETATM    4  C   UNL     1     -12.338  13.618  66.066  1.00  0.00    -0.445 C  
HETATM    5  O   UNL     1     -13.164  14.049  65.278  1.00  0.00    -0.782 OA 
BRANCH   4   6
HETATM    6  C   UNL     1     -11.488  12.427  65.809  1.00  0.00    -0.416 A  
HETATM    7  C   UNL     1     -11.136  11.607  66.887  1.00  0.00    -0.365 A  
HETATM    8  C   UNL     1     -10.384  10.446  66.670  1.00  0.00    -0.292 A  
HETATM    9  C   UNL     1      -9.940  10.114  65.389  1.00  0.00    -0.307 A  
HETATM   10  C   UNL     1     -10.353  10.895  64.309  1.00  0.00    -0.436 A  
HETATM   11  N   UNL     1      -9.290   8.895  65.161  1.00  0.00    -0.442 NA 
HETATM   12  H2  UNL     1      -9.891   8.143  65.498  1.00  0.00     0.000 HD 
HETATM   13  H1  UNL     1      -8.965   8.653  64.226  1.00  0.00     0.000 HD 
HETATM   14  C   UNL     1     -11.101  12.057  64.515  1.00  0.00    -0.384 A  
ENDBRANCH   4   6
ENDBRANCH   3   4
ENDBRANCH   2   3
TORSDOF 3
ENDMDL
MODEL       38
REMARK 921   NORMALIZED FREE ENERGY PREDICTED BY IDOCK:   -4.05 KCAL/MOL
REMARK 922        TOTAL FREE ENERGY PREDICTED BY IDOCK:   -5.07 KCAL/MOL
REMARK 923 INTER-LIGAND FREE ENERGY PREDICTED BY IDOCK:   -4.86 KCAL/MOL
REMARK 924 INTRA-LIGAND FREE ENERGY PREDICTED BY IDOCK:   -0.21 KCAL/MOL
REMARK 927      BINDING AFFINITY PREDICTED BY RF-SCORE:    0.00 PKD
ROOT
HETATM    1  C   UNL     1      -8.236   9.636  64.173  1.00  0.00    -0.158 C  
HETATM    2  C   UNL     1      -9.174   9.438  65.351  1.00  0.00    -0.244 C  
ENDROOT
BRANCH   2   3
HETATM    3  O   UNL     1     -10.272  10.343  65.197  1.00  0.00    -0.304 OA 
BRANCH   3   4
HETATM    4  C   UNL     1     -10.447  11.230  66.207  1.00  0.00    -0.258 C  
HETATM    5  O   UNL     1     -10.238  11.030  67.392  1.00  0.00    -0.185 OA 
BRANCH   4   6
HETATM    6  C   UNL     1     -10.842  12.548  65.644  1.00  0.00    -0.311 A  
HETATM    7  C   UNL     1      -9.922  13.601  65.690  1.00  0.00    -0.261 A  
HETATM    8  C   UNL     1     -10.243  14.838  65.118  1.00  0.00    -0.410 A  
HETATM    9  C   UNL     1     -11.492  15.051  64.534  1.00  0.00    -0.318 A  
HETATM   10  C   UNL     1     -12.378  13.977  64.427  1.00  0.00    -0.401 A  
HETATM   11  N   UNL     1     -11.763  16.248  63.862  1.00  0.00    -1.518 NA 
HETATM   12  H2  UNL     1     -11.047  16.384  63.147  1.00  0.00     0.000 HD 
HETATM   13  H1  UNL     1     -12.676  16.404  63.435  1.00  0.00     0.000 HD 
HETATM   14  C   UNL     1     -12.069  12.740  64.998  1.00  0.00    -0.491 A  
ENDBRANCH   4   6
ENDBRANCH   3   4
ENDBRANCH   2   3
TORSDOF 3
ENDMDL
MODEL       39
REMARK 921   NORMALIZED FREE ENERGY PREDICTED BY IDOCK:   -4.04 KCAL/MOL
REMARK 922        TOTAL FREE ENERGY PREDICTED BY IDOCK:   -5.06 KCAL/MOL
REMARK 923 INTER-LIGAND FREE ENERGY PREDICTED BY IDOCK:   -4.93 KCAL/MOL
REMARK 924 INTRA-LIGAND FREE ENERGY PREDICTED BY IDOCK:   -0.12 KCAL/MOL
REMARK 927      BINDING AFFINITY PREDICTED BY RF-SCORE:    0.00 PKD
ROOT
HETATM    1  C   UNL     1     -11.482  15.722  68.464  1.00  0.00    -0.381 C  
HETATM    2  C   UNL     1     -11.786  14.344  67.901  1.00  0.00    -0.356 C  
ENDROOT
BRANCH   2   3
HETATM    3  O   UNL     1     -11.332  14.313  66.543  1.00  0.00    -0.326 OA 
BRANCH   3   4
HETATM    4  C   UNL     1     -12.110  13.615  65.680  1.00  0.00    -0.425 C  
HETATM    5  O   UNL     1     -13.239  13.908  65.323  1.00  0.00    -0.774 OA 
BRANCH   4   6
HETATM    6  C   UNL     1     -11.338  12.468  65.137  1.00  0.00    -0.352 A  
HETATM    7  C   UNL     1     -11.104  12.408  63.758  1.00  0.00    -0.506 A  
HETATM    8  C   UNL     1     -10.331  11.371  63.222  1.00  0.00    -0.422 A  
HETATM    9  C   UNL     1      -9.823  10.363  64.043  1.00  0.00    -0.289 A  
HETATM   10  C   UNL     1      -9.999  10.466  65.424  1.00  0.00    -0.362 A  
HETATM   11  N   UNL     1      -8.957   9.396  63.520  1.00  0.00    -0.406 NA 
HETATM   12  H2  UNL     1      -8.172   9.874  63.075  1.00  0.00     0.000 HD 
HETATM   13  H1  UNL     1      -8.585   8.660  64.119  1.00  0.00     0.000 HD 
HETATM   14  C   UNL     1     -10.770  11.495  65.969  1.00  0.00    -0.332 A  
ENDBRANCH   4   6
ENDBRANCH   3   4
ENDBRANCH   2   3
TORSDOF 3
ENDMDL
MODEL       40
REMARK 921   NORMALIZED FREE ENERGY PREDICTED BY IDOCK:   -4.03 KCAL/MOL
REMARK 922        TOTAL FREE ENERGY PREDICTED BY IDOCK:   -5.04 KCAL/MOL
REMARK 923 INTER-LIGAND FREE ENERGY PREDICTED BY IDOCK:   -4.88 KCAL/MOL
REMARK 924 INTRA-LIGAND FREE ENERGY PREDICTED BY IDOCK:   -0.16 KCAL/MOL
REMARK 927      BINDING AFFINITY PREDICTED BY RF-SCORE:    0.00 PKD
ROOT
HETATM    1  C   UNL     1     -10.600   7.132  67.242  1.00  0.00    -0.398 C  
HETATM    2  C   UNL     1     -10.452   8.471  67.943  1.00  0.00    -0.201 C  
ENDROOT
BRANCH   2   3
HETATM    3  O   UNL     1     -10.668   9.502  66.974  1.00  0.00    -0.231 OA 
BRANCH   3   4
HETATM    4  C   UNL     1     -10.723  10.765  67.463  1.00  0.00    -0.264 C  
HETATM    5  O   UNL     1     -10.409  11.121  68.587  1.00  0.00    -0.188 OA 
BRANCH   4   6
HETATM    6  C   UNL     1     -11.133  11.697  66.381  1.00  0.00    -0.347 A  
HETATM    7  C   UNL     1     -10.767  11.399  65.063  1.00  0.00    -0.340 A  
HETATM    8  C   UNL     1     -11.186  12.226  64.014  1.00  0.00    -0.456 A  
HETATM    9  C   UNL     1     -11.935  13.376  64.269  1.00  0.00    -0.430 A  
HETATM   10  C   UNL     1     -12.359  13.628  65.575  1.00  0.00    -0.519 A  
HETATM   11  N   UNL     1     -12.449  14.132  63.210  1.00  0.00    -1.098 NA 
HETATM   12  H2  UNL     1     -13.001  13.516  62.612  1.00  0.00     0.000 HD 
HETATM   13  H1  UNL     1     -12.996  14.973  63.396  1.00  0.00     0.000 HD 
HETATM   14  C   UNL     1     -11.943  12.811  66.629  1.00  0.00    -0.411 A  
ENDBRANCH   4   6
ENDBRANCH   3   4
ENDBRANCH   2   3
TORSDOF 3
ENDMDL
MODEL       41
REMARK 921   NORMALIZED FREE ENERGY PREDICTED BY IDOCK:   -4.02 KCAL/MOL
REMARK 922        TOTAL FREE ENERGY PREDICTED BY IDOCK:   -5.04 KCAL/MOL
REMARK 923 INTER-LIGAND FREE ENERGY PREDICTED BY IDOCK:   -4.89 KCAL/MOL
REMARK 924 INTRA-LIGAND FREE ENERGY PREDICTED BY IDOCK:   -0.15 KCAL/MOL
REMARK 927      BINDING AFFINITY PREDICTED BY RF-SCORE:    0.00 PKD
ROOT
HETATM    1  C   UNL     1     -13.770  15.590  72.805  1.00  0.00    -0.642 C  
HETATM    2  C   UNL     1     -12.449  15.826  72.094  1.00  0.00    -0.455 C  
ENDROOT
BRANCH   2   3
HETATM    3  O   UNL     1     -12.683  15.726  70.686  1.00  0.00    -0.439 OA 
BRANCH   3   4
HETATM    4  C   UNL     1     -12.253  14.582  70.099  1.00  0.00    -0.342 C  
HETATM    5  O   UNL     1     -12.321  13.458  70.568  1.00  0.00    -0.342 OA 
BRANCH   4   6
HETATM    6  C   UNL     1     -11.767  14.881  68.727  1.00  0.00    -0.353 A  
HETATM    7  C   UNL     1     -12.084  13.993  67.694  1.00  0.00    -0.344 A  
HETATM    8  C   UNL     1     -11.690  14.276  66.380  1.00  0.00    -0.403 A  
HETATM    9  C   UNL     1     -10.945  15.419  66.090  1.00  0.00    -0.279 A  
HETATM   10  C   UNL     1     -10.695  16.337  67.111  1.00  0.00    -0.247 A  
HETATM   11  N   UNL     1     -10.655  15.756  64.763  1.00  0.00    -0.689 NA 
HETATM   12  H2  UNL     1     -11.534  15.805  64.245  1.00  0.00     0.000 HD 
HETATM   13  H1  UNL     1     -10.110  16.591  64.551  1.00  0.00     0.000 HD 
HETATM   14  C   UNL     1     -11.080  16.063  68.426  1.00  0.00    -0.351 A  
ENDBRANCH   4   6
ENDBRANCH   3   4
ENDBRANCH   2   3
TORSDOF 3
ENDMDL
MODEL       42
REMARK 921   NORMALIZED FREE ENERGY PREDICTED BY IDOCK:   -4.01 KCAL/MOL
REMARK 922        TOTAL FREE ENERGY PREDICTED BY IDOCK:   -5.03 KCAL/MOL
REMARK 923 INTER-LIGAND FREE ENERGY PREDICTED BY IDOCK:   -4.85 KCAL/MOL
REMARK 924 INTRA-LIGAND FREE ENERGY PREDICTED BY IDOCK:   -0.18 KCAL/MOL
REMARK 927      BINDING AFFINITY PREDICTED BY RF-SCORE:    0.00 PKD
ROOT
HETATM    1  C   UNL     1     -10.554   6.910  66.964  1.00  0.00    -0.403 C  
HETATM    2  C   UNL     1     -10.233   8.152  67.779  1.00  0.00    -0.228 C  
ENDROOT
BRANCH   2   3
HETATM    3  O   UNL     1     -10.764   9.284  67.082  1.00  0.00    -0.251 OA 
BRANCH   3   4
HETATM    4  C   UNL     1      -9.861  10.028  66.397  1.00  0.00    -0.224 C  
HETATM    5  O   UNL     1      -8.656   9.841  66.348  1.00  0.00    -0.123 OA 
BRANCH   4   6
HETATM    6  C   UNL     1     -10.572  11.070  65.612  1.00  0.00    -0.263 A  
HETATM    7  C   UNL     1     -11.409  11.966  66.288  1.00  0.00    -0.394 A  
HETATM    8  C   UNL     1     -12.048  12.995  65.585  1.00  0.00    -0.507 A  
HETATM    9  C   UNL     1     -11.895  13.117  64.203  1.00  0.00    -0.429 A  
HETATM   10  C   UNL     1     -11.003  12.266  63.547  1.00  0.00    -0.521 A  
HETATM   11  N   UNL     1     -12.441  14.213  63.526  1.00  0.00    -1.106 NA 
HETATM   12  H2  UNL     1     -12.092  15.067  63.964  1.00  0.00     0.000 HD 
HETATM   13  H1  UNL     1     -12.329  14.302  62.517  1.00  0.00     0.000 HD 
HETATM   14  C   UNL     1     -10.363  11.235  64.238  1.00  0.00    -0.399 A  
ENDBRANCH   4   6
ENDBRANCH   3   4
ENDBRANCH   2   3
TORSDOF 3
ENDMDL
MODEL       43
REMARK 921   NORMALIZED FREE ENERGY PREDICTED BY IDOCK:   -3.99 KCAL/MOL
REMARK 922        TOTAL FREE ENERGY PREDICTED BY IDOCK:   -5.00 KCAL/MOL
REMARK 923 INTER-LIGAND FREE ENERGY PREDICTED BY IDOCK:   -4.84 KCAL/MOL
REMARK 924 INTRA-LIGAND FREE ENERGY PREDICTED BY IDOCK:   -0.16 KCAL/MOL
REMARK 927      BINDING AFFINITY PREDICTED BY RF-SCORE:    0.00 PKD
ROOT
HETATM    1  C   UNL     1     -10.891  14.497  64.981  1.00  0.00    -0.425 C  
HETATM    2  C   UNL     1     -10.770  15.476  66.136  1.00  0.00    -0.313 C  
ENDROOT
BRANCH   2   3
HETATM    3  O   UNL     1     -11.401  14.887  67.279  1.00  0.00    -0.336 OA 
BRANCH   3   4
HETATM    4  C   UNL     1     -11.375  15.631  68.412  1.00  0.00    -0.364 C  
HETATM    5  O   UNL     1     -11.041  16.801  68.502  1.00  0.00    -0.342 OA 
BRANCH   4   6
HETATM    6  C   UNL     1     -11.922  14.834  69.539  1.00  0.00    -0.351 A  
HETATM    7  C   UNL     1     -12.639  15.494  70.544  1.00  0.00    -0.462 A  
HETATM    8  C   UNL     1     -13.216  14.764  71.590  1.00  0.00    -0.431 A  
HETATM    9  C   UNL     1     -13.051  13.380  71.669  1.00  0.00    -0.375 A  
HETATM   10  C   UNL     1     -12.398  12.719  70.628  1.00  0.00    -0.381 A  
HETATM   11  N   UNL     1     -13.726  12.644  72.649  1.00  0.00    -0.670 NA 
HETATM   12  H2  UNL     1     -14.724  12.844  72.571  1.00  0.00     0.000 HD 
HETATM   13  H1  UNL     1     -13.606  11.633  72.708  1.00  0.00     0.000 HD 
HETATM   14  C   UNL     1     -11.816  13.438  69.582  1.00  0.00    -0.394 A  
ENDBRANCH   4   6
ENDBRANCH   3   4
ENDBRANCH   2   3
TORSDOF 3
ENDMDL
MODEL       44
REMARK 921   NORMALIZED FREE ENERGY PREDICTED BY IDOCK:   -3.97 KCAL/MOL
REMARK 922        TOTAL FREE ENERGY PREDICTED BY IDOCK:   -4.98 KCAL/MOL
REMARK 923 INTER-LIGAND FREE ENERGY PREDICTED BY IDOCK:   -4.82 KCAL/MOL
REMARK 924 INTRA-LIGAND FREE ENERGY PREDICTED BY IDOCK:   -0.15 KCAL/MOL
REMARK 927      BINDING AFFINITY PREDICTED BY RF-SCORE:    0.00 PKD
ROOT
HETATM    1  C   UNL     1     -14.400   7.613  71.574  1.00  0.00    -0.589 C  
HETATM    2  C   UNL     1     -13.505   8.597  72.306  1.00  0.00    -0.374 C  
ENDROOT
BRANCH   2   3
HETATM    3  O   UNL     1     -13.335   9.746  71.468  1.00  0.00    -0.378 OA 
BRANCH   3   4
HETATM    4  C   UNL     1     -12.053  10.091  71.197  1.00  0.00    -0.380 C  
HETATM    5  O   UNL     1     -11.051   9.494  71.556  1.00  0.00    -0.367 OA 
BRANCH   4   6
HETATM    6  C   UNL     1     -12.038  11.269  70.293  1.00  0.00    -0.459 A  
HETATM    7  C   UNL     1     -11.848  11.062  68.922  1.00  0.00    -0.378 A  
HETATM    8  C   UNL     1     -11.886  12.147  68.037  1.00  0.00    -0.351 A  
HETATM    9  C   UNL     1     -12.072  13.447  68.509  1.00  0.00    -0.248 A  
HETATM   10  C   UNL     1     -12.333  13.639  69.867  1.00  0.00    -0.310 A  
HETATM   11  N   UNL     1     -12.225  14.509  67.611  1.00  0.00    -0.614 NA 
HETATM   12  H2  UNL     1     -12.993  14.286  66.978  1.00  0.00     0.000 HD 
HETATM   13  H1  UNL     1     -12.361  15.459  67.957  1.00  0.00     0.000 HD 
HETATM   14  C   UNL     1     -12.293  12.565  70.759  1.00  0.00    -0.376 A  
ENDBRANCH   4   6
ENDBRANCH   3   4
ENDBRANCH   2   3
TORSDOF 3
ENDMDL
MODEL       45
REMARK 921   NORMALIZED FREE ENERGY PREDICTED BY IDOCK:   -3.96 KCAL/MOL
REMARK 922        TOTAL FREE ENERGY PREDICTED BY IDOCK:   -4.96 KCAL/MOL
REMARK 923 INTER-LIGAND FREE ENERGY PREDICTED BY IDOCK:   -4.71 KCAL/MOL
REMARK 924 INTRA-LIGAND FREE ENERGY PREDICTED BY IDOCK:   -0.25 KCAL/MOL
REMARK 927      BINDING AFFINITY PREDICTED BY RF-SCORE:    0.00 PKD
ROOT
HETATM    1  C   UNL     1     -10.658  19.515  67.354  1.00  0.00    -0.607 C  
HETATM    2  C   UNL     1     -10.217  19.262  65.923  1.00  0.00    -0.362 C  
ENDROOT
BRANCH   2   3
HETATM    3  O   UNL     1     -10.506  17.896  65.608  1.00  0.00    -0.610 OA 
BRANCH   3   4
HETATM    4  C   UNL     1      -9.504  17.014  65.843  1.00  0.00    -0.082 C  
HETATM    5  O   UNL     1      -8.316  17.276  65.937  1.00  0.00    -0.533 OA 
BRANCH   4   6
HETATM    6  C   UNL     1     -10.078  15.664  66.077  1.00  0.00    -0.355 A  
HETATM    7  C   UNL     1     -10.819  15.442  67.243  1.00  0.00    -0.316 A  
HETATM    8  C   UNL     1     -11.421  14.197  67.465  1.00  0.00    -0.365 A  
HETATM    9  C   UNL     1     -11.258  13.153  66.553  1.00  0.00    -0.310 A  
HETATM   10  C   UNL     1     -10.579  13.402  65.359  1.00  0.00    -0.310 A  
HETATM   11  N   UNL     1     -11.956  11.952  66.723  1.00  0.00    -0.583 NA 
HETATM   12  H2  UNL     1     -12.951  12.166  66.790  1.00  0.00     0.000 HD 
HETATM   13  H1  UNL     1     -11.836  11.189  66.057  1.00  0.00     0.000 HD 
HETATM   14  C   UNL     1      -9.972  14.639  65.129  1.00  0.00    -0.275 A  
ENDBRANCH   4   6
ENDBRANCH   3   4
ENDBRANCH   2   3
TORSDOF 3
ENDMDL
MODEL       46
REMARK 921   NORMALIZED FREE ENERGY PREDICTED BY IDOCK:   -3.96 KCAL/MOL
REMARK 922        TOTAL FREE ENERGY PREDICTED BY IDOCK:   -4.96 KCAL/MOL
REMARK 923 INTER-LIGAND FREE ENERGY PREDICTED BY IDOCK:   -4.79 KCAL/MOL
REMARK 924 INTRA-LIGAND FREE ENERGY PREDICTED BY IDOCK:   -0.17 KCAL/MOL
REMARK 927      BINDING AFFINITY PREDICTED BY RF-SCORE:    0.00 PKD
ROOT
HETATM    1  C   UNL     1     -10.949   6.203  72.027  1.00  0.00    -0.305 C  
HETATM    2  C   UNL     1     -12.268   6.914  71.779  1.00  0.00    -0.356 C  
ENDROOT
BRANCH   2   3
HETATM    3  O   UNL     1     -12.151   8.247  72.289  1.00  0.00    -0.341 OA 
BRANCH   3   4
HETATM    4  C   UNL     1     -13.250   9.028  72.147  1.00  0.00    -0.446 C  
HETATM    5  O   UNL     1     -14.372   8.779  72.555  1.00  0.00    -0.562 OA 
BRANCH   4   6
HETATM    6  C   UNL     1     -12.866  10.309  71.499  1.00  0.00    -0.557 A  
HETATM    7  C   UNL     1     -13.293  11.509  72.078  1.00  0.00    -0.397 A  
HETATM    8  C   UNL     1     -12.901  12.734  71.523  1.00  0.00    -0.369 A  
HETATM    9  C   UNL     1     -12.118  12.775  70.369  1.00  0.00    -0.302 A  
HETATM   10  C   UNL     1     -11.636  11.578  69.838  1.00  0.00    -0.387 A  
HETATM   11  N   UNL     1     -11.634  13.997  69.888  1.00  0.00    -0.360 NA 
HETATM   12  H2  UNL     1     -11.121  14.458  70.640  1.00  0.00     0.000 HD 
HETATM   13  H1  UNL     1     -11.062  14.028  69.044  1.00  0.00     0.000 HD 
HETATM   14  C   UNL     1     -12.024  10.351  70.381  1.00  0.00    -0.409 A  
ENDBRANCH   4   6
ENDBRANCH   3   4
ENDBRANCH   2   3
TORSDOF 3
ENDMDL
MODEL       47
REMARK 921   NORMALIZED FREE ENERGY PREDICTED BY IDOCK:   -3.93 KCAL/MOL
REMARK 922        TOTAL FREE ENERGY PREDICTED BY IDOCK:   -4.93 KCAL/MOL
REMARK 923 INTER-LIGAND FREE ENERGY PREDICTED BY IDOCK:   -4.73 KCAL/MOL
REMARK 924 INTRA-LIGAND FREE ENERGY PREDICTED BY IDOCK:   -0.20 KCAL/MOL
REMARK 927      BINDING AFFINITY PREDICTED BY RF-SCORE:    0.00 PKD
ROOT
HETATM    1  C   UNL     1     -12.143  14.820  70.992  1.00  0.00    -0.391 C  
HETATM    2  C   UNL     1     -11.698  13.982  69.806  1.00  0.00    -0.313 C  
ENDROOT
BRANCH   2   3
HETATM    3  O   UNL     1     -12.154  14.630  68.614  1.00  0.00    -0.285 OA 
BRANCH   3   4
HETATM    4  C   UNL     1     -11.192  14.949  67.714  1.00  0.00    -0.321 C  
HETATM    5  O   UNL     1     -10.327  15.798  67.849  1.00  0.00    -0.250 OA 
BRANCH   4   6
HETATM    6  C   UNL     1     -11.277  14.027  66.552  1.00  0.00    -0.326 A  
HETATM    7  C   UNL     1     -12.530  13.524  66.183  1.00  0.00    -0.424 A  
HETATM    8  C   UNL     1     -12.651  12.699  65.058  1.00  0.00    -0.504 A  
HETATM    9  C   UNL     1     -11.526  12.334  64.317  1.00  0.00    -0.362 A  
HETATM   10  C   UNL     1     -10.291  12.895  64.646  1.00  0.00    -0.366 A  
HETATM   11  N   UNL     1     -11.669  11.607  63.130  1.00  0.00    -0.881 NA 
HETATM   12  H2  UNL     1     -12.306  12.115  62.516  1.00  0.00     0.000 HD 
HETATM   13  H1  UNL     1     -10.847  11.339  62.589  1.00  0.00     0.000 HD 
HETATM   14  C   UNL     1     -10.159  13.716  65.769  1.00  0.00    -0.311 A  
ENDBRANCH   4   6
ENDBRANCH   3   4
ENDBRANCH   2   3
TORSDOF 3
ENDMDL
MODEL       48
REMARK 921   NORMALIZED FREE ENERGY PREDICTED BY IDOCK:   -3.92 KCAL/MOL
REMARK 922        TOTAL FREE ENERGY PREDICTED BY IDOCK:   -4.92 KCAL/MOL
REMARK 923 INTER-LIGAND FREE ENERGY PREDICTED BY IDOCK:   -4.73 KCAL/MOL
REMARK 924 INTRA-LIGAND FREE ENERGY PREDICTED BY IDOCK:   -0.19 KCAL/MOL
REMARK 927      BINDING AFFINITY PREDICTED BY RF-SCORE:    0.00 PKD
ROOT
HETATM    1  C   UNL     1     -12.499  12.029  63.287  1.00  0.00    -0.544 C  
HETATM    2  C   UNL     1     -11.386  12.630  64.127  1.00  0.00    -0.383 C  
ENDROOT
BRANCH   2   3
HETATM    3  O   UNL     1     -11.972  13.588  65.014  1.00  0.00    -0.341 OA 
BRANCH   3   4
HETATM    4  C   UNL     1     -11.918  13.278  66.332  1.00  0.00    -0.410 C  
HETATM    5  O   UNL     1     -12.102  12.177  66.825  1.00  0.00    -0.609 OA 
BRANCH   4   6
HETATM    6  C   UNL     1     -11.494  14.474  67.105  1.00  0.00    -0.383 A  
HETATM    7  C   UNL     1     -10.836  15.509  66.433  1.00  0.00    -0.277 A  
HETATM    8  C   UNL     1     -10.475  16.674  67.121  1.00  0.00    -0.300 A  
HETATM    9  C   UNL     1     -10.726  16.802  68.488  1.00  0.00    -0.358 A  
HETATM   10  C   UNL     1     -11.447  15.798  69.137  1.00  0.00    -0.383 A  
HETATM   11  N   UNL     1     -10.469  18.011  69.143  1.00  0.00    -0.396 NA 
HETATM   12  H2  UNL     1     -10.969  18.754  68.655  1.00  0.00     0.000 HD 
HETATM   13  H1  UNL     1     -10.652  18.104  70.142  1.00  0.00     0.000 HD 
HETATM   14  C   UNL     1     -11.808  14.630  68.461  1.00  0.00    -0.346 A  
ENDBRANCH   4   6
ENDBRANCH   3   4
ENDBRANCH   2   3
TORSDOF 3
ENDMDL
MODEL       49
REMARK 921   NORMALIZED FREE ENERGY PREDICTED BY IDOCK:   -3.84 KCAL/MOL
REMARK 922        TOTAL FREE ENERGY PREDICTED BY IDOCK:   -4.83 KCAL/MOL
REMARK 923 INTER-LIGAND FREE ENERGY PREDICTED BY IDOCK:   -4.54 KCAL/MOL
REMARK 924 INTRA-LIGAND FREE ENERGY PREDICTED BY IDOCK:   -0.28 KCAL/MOL
REMARK 927      BINDING AFFINITY PREDICTED BY RF-SCORE:    0.00 PKD
ROOT
HETATM    1  C   UNL     1      -8.712  18.474  67.848  1.00  0.00    -0.301 C  
HETATM    2  C   UNL     1      -8.736  18.528  66.330  1.00  0.00    -0.260 C  
ENDROOT
BRANCH   2   3
HETATM    3  O   UNL     1      -9.043  17.215  65.848  1.00  0.00    -0.513 OA 
BRANCH   3   4
HETATM    4  C   UNL     1     -10.346  16.988  65.551  1.00  0.00    -0.143 C  
HETATM    5  O   UNL     1     -11.078  17.717  64.903  1.00  0.00    -0.821 OA 
BRANCH   4   6
HETATM    6  C   UNL     1     -10.740  15.645  66.050  1.00  0.00    -0.322 A  
HETATM    7  C   UNL     1     -11.433  14.786  65.190  1.00  0.00    -0.371 A  
HETATM    8  C   UNL     1     -11.769  13.493  65.610  1.00  0.00    -0.363 A  
HETATM    9  C   UNL     1     -11.456  13.059  66.899  1.00  0.00    -0.339 A  
HETATM   10  C   UNL     1     -10.702  13.893  67.727  1.00  0.00    -0.252 A  
HETATM   11  N   UNL     1     -11.689  11.731  67.273  1.00  0.00    -0.597 NA 
HETATM   12  H2  UNL     1     -11.215  11.121  66.606  1.00  0.00     0.000 HD 
HETATM   13  H1  UNL     1     -11.461  11.414  68.215  1.00  0.00     0.000 HD 
HETATM   14  C   UNL     1     -10.366  15.186  67.318  1.00  0.00    -0.261 A  
ENDBRANCH   4   6
ENDBRANCH   3   4
ENDBRANCH   2   3
TORSDOF 3
ENDMDL
MODEL       50
REMARK 921   NORMALIZED FREE ENERGY PREDICTED BY IDOCK:   -3.82 KCAL/MOL
REMARK 922        TOTAL FREE ENERGY PREDICTED BY IDOCK:   -4.80 KCAL/MOL
REMARK 923 INTER-LIGAND FREE ENERGY PREDICTED BY IDOCK:   -4.60 KCAL/MOL
REMARK 924 INTRA-LIGAND FREE ENERGY PREDICTED BY IDOCK:   -0.20 KCAL/MOL
REMARK 927      BINDING AFFINITY PREDICTED BY RF-SCORE:    0.00 PKD
ROOT
HETATM    1  C   UNL     1      -9.311  13.241  67.098  1.00  0.00    -0.240 C  
HETATM    2  C   UNL     1     -10.122  14.423  67.600  1.00  0.00    -0.222 C  
ENDROOT
BRANCH   2   3
HETATM    3  O   UNL     1     -10.274  14.283  69.017  1.00  0.00    -0.220 OA 
BRANCH   3   4
HETATM    4  C   UNL     1     -11.482  14.641  69.516  1.00  0.00    -0.297 C  
HETATM    5  O   UNL     1     -12.051  15.706  69.341  1.00  0.00    -0.356 OA 
BRANCH   4   6
HETATM    6  C   UNL     1     -12.080  13.489  70.240  1.00  0.00    -0.425 A  
HETATM    7  C   UNL     1     -11.827  12.196  69.769  1.00  0.00    -0.397 A  
HETATM    8  C   UNL     1     -12.327  11.087  70.462  1.00  0.00    -0.462 A  
HETATM    9  C   UNL     1     -13.117  11.255  71.601  1.00  0.00    -0.408 A  
HETATM   10  C   UNL     1     -13.305  12.542  72.106  1.00  0.00    -0.540 A  
HETATM   11  N   UNL     1     -13.516  10.144  72.353  1.00  0.00    -0.594 NA 
HETATM   12  H2  UNL     1     -12.682   9.618  72.616  1.00  0.00     0.000 HD 
HETATM   13  H1  UNL     1     -14.093  10.267  73.185  1.00  0.00     0.000 HD 
HETATM   14  C   UNL     1     -12.813  13.655  71.421  1.00  0.00    -0.442 A  
ENDBRANCH   4   6
ENDBRANCH   3   4
ENDBRANCH   2   3
TORSDOF 3
ENDMDL
MODEL       51
REMARK 921   NORMALIZED FREE ENERGY PREDICTED BY IDOCK:   -3.82 KCAL/MOL
REMARK 922        TOTAL FREE ENERGY PREDICTED BY IDOCK:   -4.80 KCAL/MOL
REMARK 923 INTER-LIGAND FREE ENERGY PREDICTED BY IDOCK:   -4.59 KCAL/MOL
REMARK 924 INTRA-LIGAND FREE ENERGY PREDICTED BY IDOCK:   -0.21 KCAL/MOL
REMARK 927      BINDING AFFINITY PREDICTED BY RF-SCORE:    0.00 PKD
ROOT
HETATM    1  C   UNL     1     -10.994  15.303  65.543  1.00  0.00    -0.365 C  
HETATM    2  C   UNL     1     -11.990  14.862  64.485  1.00  0.00    -0.410 C  
ENDROOT
BRANCH   2   3
HETATM    3  O   UNL     1     -12.708  13.735  64.998  1.00  0.00    -0.630 OA 
BRANCH   3   4
HETATM    4  C   UNL     1     -12.463  12.553  64.380  1.00  0.00    -0.446 C  
HETATM    5  O   UNL     1     -13.001  12.141  63.366  1.00  0.00    -0.776 OA 
BRANCH   4   6
HETATM    6  C   UNL     1     -11.349  11.855  65.072  1.00  0.00    -0.333 A  
HETATM    7  C   UNL     1     -11.325  11.849  66.471  1.00  0.00    -0.403 A  
HETATM    8  C   UNL     1     -10.320  11.151  67.153  1.00  0.00    -0.249 A  
HETATM    9  C   UNL     1      -9.310  10.491  66.452  1.00  0.00    -0.168 A  
HETATM   10  C   UNL     1      -9.379  10.440  65.059  1.00  0.00    -0.279 A  
HETATM   11  N   UNL     1      -8.378   9.701  67.134  1.00  0.00    -0.120 NA 
HETATM   12  H2  UNL     1      -8.886   9.012  67.689  1.00  0.00     0.000 HD 
HETATM   13  H1  UNL     1      -7.639   9.219  66.623  1.00  0.00     0.000 HD 
HETATM   14  C   UNL     1     -10.375  11.135  64.369  1.00  0.00    -0.407 A  
ENDBRANCH   4   6
ENDBRANCH   3   4
ENDBRANCH   2   3
TORSDOF 3
ENDMDL
MODEL       52
REMARK 921   NORMALIZED FREE ENERGY PREDICTED BY IDOCK:   -3.81 KCAL/MOL
REMARK 922        TOTAL FREE ENERGY PREDICTED BY IDOCK:   -4.79 KCAL/MOL
REMARK 923 INTER-LIGAND FREE ENERGY PREDICTED BY IDOCK:   -4.60 KCAL/MOL
REMARK 924 INTRA-LIGAND FREE ENERGY PREDICTED BY IDOCK:   -0.19 KCAL/MOL
REMARK 927      BINDING AFFINITY PREDICTED BY RF-SCORE:    0.00 PKD
ROOT
HETATM    1  C   UNL     1     -12.502  12.212  64.212  1.00  0.00    -0.461 C  
HETATM    2  C   UNL     1     -11.911  13.608  64.114  1.00  0.00    -0.443 C  
ENDROOT
BRANCH   2   3
HETATM    3  O   UNL     1     -12.038  14.231  65.396  1.00  0.00    -0.374 OA 
BRANCH   3   4
HETATM    4  C   UNL     1     -10.892  14.725  65.925  1.00  0.00    -0.330 C  
HETATM    5  O   UNL     1      -9.828  14.865  65.345  1.00  0.00    -0.342 OA 
BRANCH   4   6
HETATM    6  C   UNL     1     -11.145  15.180  67.317  1.00  0.00    -0.332 A  
HETATM    7  C   UNL     1     -11.911  14.367  68.160  1.00  0.00    -0.362 A  
HETATM    8  C   UNL     1     -12.119  14.739  69.494  1.00  0.00    -0.328 A  
HETATM    9  C   UNL     1     -11.605  15.939  69.988  1.00  0.00    -0.344 A  
HETATM   10  C   UNL     1     -10.783  16.709  69.164  1.00  0.00    -0.342 A  
HETATM   11  N   UNL     1     -11.717  16.248  71.348  1.00  0.00    -0.621 NA 
HETATM   12  H2  UNL     1     -11.314  15.481  71.886  1.00  0.00     0.000 HD 
HETATM   13  H1  UNL     1     -11.343  17.125  71.709  1.00  0.00     0.000 HD 
HETATM   14  C   UNL     1     -10.572  16.349  67.831  1.00  0.00    -0.320 A  
ENDBRANCH   4   6
ENDBRANCH   3   4
ENDBRANCH   2   3
TORSDOF 3
ENDMDL
MODEL       53
REMARK 921   NORMALIZED FREE ENERGY PREDICTED BY IDOCK:   -3.81 KCAL/MOL
REMARK 922        TOTAL FREE ENERGY PREDICTED BY IDOCK:   -4.79 KCAL/MOL
REMARK 923 INTER-LIGAND FREE ENERGY PREDICTED BY IDOCK:   -4.56 KCAL/MOL
REMARK 924 INTRA-LIGAND FREE ENERGY PREDICTED BY IDOCK:   -0.23 KCAL/MOL
REMARK 927      BINDING AFFINITY PREDICTED BY RF-SCORE:    0.00 PKD
ROOT
HETATM    1  C   UNL     1      -9.477  16.182  67.713  1.00  0.00    -0.217 C  
HETATM    2  C   UNL     1     -10.870  15.809  68.188  1.00  0.00    -0.307 C  
ENDROOT
BRANCH   2   3
HETATM    3  O   UNL     1     -11.480  15.002  67.175  1.00  0.00    -0.347 OA 
BRANCH   3   4
HETATM    4  C   UNL     1     -11.591  13.682  67.462  1.00  0.00    -0.350 C  
HETATM    5  O   UNL     1     -11.906  13.199  68.537  1.00  0.00    -0.323 OA 
BRANCH   4   6
HETATM    6  C   UNL     1     -11.368  12.887  66.227  1.00  0.00    -0.364 A  
HETATM    7  C   UNL     1     -12.291  12.998  65.181  1.00  0.00    -0.536 A  
HETATM    8  C   UNL     1     -12.079  12.306  63.982  1.00  0.00    -0.563 A  
HETATM    9  C   UNL     1     -10.974  11.467  63.829  1.00  0.00    -0.409 A  
HETATM   10  C   UNL     1     -10.020  11.417  64.847  1.00  0.00    -0.311 A  
HETATM   11  N   UNL     1     -10.706  10.872  62.591  1.00  0.00    -0.567 NA 
HETATM   12  H2  UNL     1     -10.651  11.607  61.886  1.00  0.00     0.000 HD 
HETATM   13  H1  UNL     1      -9.899  10.258  62.479  1.00  0.00     0.000 HD 
HETATM   14  C   UNL     1     -10.224  12.100  66.048  1.00  0.00    -0.265 A  
ENDBRANCH   4   6
ENDBRANCH   3   4
ENDBRANCH   2   3
TORSDOF 3
ENDMDL
MODEL       54
REMARK 921   NORMALIZED FREE ENERGY PREDICTED BY IDOCK:   -3.80 KCAL/MOL
REMARK 922        TOTAL FREE ENERGY PREDICTED BY IDOCK:   -4.77 KCAL/MOL
REMARK 923 INTER-LIGAND FREE ENERGY PREDICTED BY IDOCK:   -4.53 KCAL/MOL
REMARK 924 INTRA-LIGAND FREE ENERGY PREDICTED BY IDOCK:   -0.25 KCAL/MOL
REMARK 927      BINDING AFFINITY PREDICTED BY RF-SCORE:    0.00 PKD
ROOT
HETATM    1  C   UNL     1     -10.225  11.093  63.636  1.00  0.00    -0.444 C  
HETATM    2  C   UNL     1     -11.240  12.220  63.551  1.00  0.00    -0.460 C  
ENDROOT
BRANCH   2   3
HETATM    3  O   UNL     1     -11.968  12.251  64.783  1.00  0.00    -0.379 OA 
BRANCH   3   4
HETATM    4  C   UNL     1     -12.270  13.485  65.256  1.00  0.00    -0.441 C  
HETATM    5  O   UNL     1     -13.379  13.991  65.301  1.00  0.00    -0.741 OA 
BRANCH   4   6
HETATM    6  C   UNL     1     -11.047  14.113  65.819  1.00  0.00    -0.309 A  
HETATM    7  C   UNL     1     -10.275  13.382  66.729  1.00  0.00    -0.259 A  
HETATM    8  C   UNL     1      -9.086  13.922  67.234  1.00  0.00    -0.230 A  
HETATM    9  C   UNL     1      -8.678  15.207  66.873  1.00  0.00    -0.259 A  
HETATM   10  C   UNL     1      -9.412  15.902  65.911  1.00  0.00    -0.372 A  
HETATM   11  N   UNL     1      -7.433  15.695  67.288  1.00  0.00    -0.204 NA 
HETATM   12  H2  UNL     1      -6.714  15.034  66.992  1.00  0.00     0.000 HD 
HETATM   13  H1  UNL     1      -7.135  16.634  67.025  1.00  0.00     0.000 HD 
HETATM   14  C   UNL     1     -10.601  15.373  65.403  1.00  0.00    -0.430 A  
ENDBRANCH   4   6
ENDBRANCH   3   4
ENDBRANCH   2   3
TORSDOF 3
ENDMDL
MODEL       55
REMARK 921   NORMALIZED FREE ENERGY PREDICTED BY IDOCK:   -3.78 KCAL/MOL
REMARK 922        TOTAL FREE ENERGY PREDICTED BY IDOCK:   -4.75 KCAL/MOL
REMARK 923 INTER-LIGAND FREE ENERGY PREDICTED BY IDOCK:   -4.51 KCAL/MOL
REMARK 924 INTRA-LIGAND FREE ENERGY PREDICTED BY IDOCK:   -0.24 KCAL/MOL
REMARK 927      BINDING AFFINITY PREDICTED BY RF-SCORE:    0.00 PKD
ROOT
HETATM    1  C   UNL     1     -11.227  15.932  70.815  1.00  0.00    -0.398 C  
HETATM    2  C   UNL     1     -11.624  15.383  69.456  1.00  0.00    -0.332 C  
ENDROOT
BRANCH   2   3
HETATM    3  O   UNL     1     -11.568  16.458  68.512  1.00  0.00    -0.302 OA 
BRANCH   3   4
HETATM    4  C   UNL     1     -10.670  16.312  67.508  1.00  0.00    -0.300 C  
HETATM    5  O   UNL     1     -10.559  15.346  66.771  1.00  0.00    -0.298 OA 
BRANCH   4   6
HETATM    6  C   UNL     1      -9.886  17.565  67.359  1.00  0.00    -0.297 A  
HETATM    7  C   UNL     1     -10.391  18.581  66.540  1.00  0.00    -0.447 A  
HETATM    8  C   UNL     1      -9.705  19.796  66.424  1.00  0.00    -0.530 A  
HETATM    9  C   UNL     1      -8.492  19.995  67.086  1.00  0.00    -0.334 A  
HETATM   10  C   UNL     1      -8.030  19.008  67.957  1.00  0.00    -0.322 A  
HETATM   11  N   UNL     1      -7.872  21.250  67.060  1.00  0.00    -0.697 NA 
HETATM   12  H2  UNL     1      -8.539  21.945  67.396  1.00  0.00     0.000 HD 
HETATM   13  H1  UNL     1      -6.986  21.395  67.543  1.00  0.00     0.000 HD 
HETATM   14  C   UNL     1      -8.705  17.791  68.077  1.00  0.00    -0.251 A  
ENDBRANCH   4   6
ENDBRANCH   3   4
ENDBRANCH   2   3
TORSDOF 3
ENDMDL
MODEL       56
REMARK 921   NORMALIZED FREE ENERGY PREDICTED BY IDOCK:   -3.75 KCAL/MOL
REMARK 922        TOTAL FREE ENERGY PREDICTED BY IDOCK:   -4.72 KCAL/MOL
REMARK 923 INTER-LIGAND FREE ENERGY PREDICTED BY IDOCK:   -4.55 KCAL/MOL
REMARK 924 INTRA-LIGAND FREE ENERGY PREDICTED BY IDOCK:   -0.17 KCAL/MOL
REMARK 927      BINDING AFFINITY PREDICTED BY RF-SCORE:    0.00 PKD
ROOT
HETATM    1  C   UNL     1      -9.925  16.514  66.096  1.00  0.00    -0.363 C  
HETATM    2  C   UNL     1     -10.547  15.334  65.370  1.00  0.00    -0.394 C  
ENDROOT
BRANCH   2   3
HETATM    3  O   UNL     1     -11.456  14.692  66.270  1.00  0.00    -0.355 OA 
BRANCH   3   4
HETATM    4  C   UNL     1     -12.175  13.669  65.748  1.00  0.00    -0.464 C  
HETATM    5  O   UNL     1     -13.119  13.764  64.982  1.00  0.00    -0.751 OA 
BRANCH   4   6
HETATM    6  C   UNL     1     -11.575  12.377  66.170  1.00  0.00    -0.452 A  
HETATM    7  C   UNL     1     -10.784  11.673  65.255  1.00  0.00    -0.346 A  
HETATM    8  C   UNL     1     -10.158  10.481  65.640  1.00  0.00    -0.333 A  
HETATM    9  C   UNL     1     -10.346   9.958  66.920  1.00  0.00    -0.235 A  
HETATM   10  C   UNL     1     -11.076  10.700  67.850  1.00  0.00    -0.371 A  
HETATM   11  N   UNL     1      -9.626   8.832  67.335  1.00  0.00    -0.155 NA 
HETATM   12  H2  UNL     1      -8.631   9.022  67.209  1.00  0.00     0.000 HD 
HETATM   13  H1  UNL     1      -9.764   8.450  68.271  1.00  0.00     0.000 HD 
HETATM   14  C   UNL     1     -11.708  11.888  67.475  1.00  0.00    -0.335 A  
ENDBRANCH   4   6
ENDBRANCH   3   4
ENDBRANCH   2   3
TORSDOF 3
ENDMDL
MODEL       57
REMARK 921   NORMALIZED FREE ENERGY PREDICTED BY IDOCK:   -3.74 KCAL/MOL
REMARK 922        TOTAL FREE ENERGY PREDICTED BY IDOCK:   -4.71 KCAL/MOL
REMARK 923 INTER-LIGAND FREE ENERGY PREDICTED BY IDOCK:   -4.47 KCAL/MOL
REMARK 924 INTRA-LIGAND FREE ENERGY PREDICTED BY IDOCK:   -0.23 KCAL/MOL
REMARK 927      BINDING AFFINITY PREDICTED BY RF-SCORE:    0.00 PKD
ROOT
HETATM    1  C   UNL     1      -9.524   8.316  71.265  1.00  0.00    -0.219 C  
HETATM    2  C   UNL     1     -10.861   8.642  71.906  1.00  0.00    -0.348 C  
ENDROOT
BRANCH   2   3
HETATM    3  O   UNL     1     -11.730   9.140  70.884  1.00  0.00    -0.278 OA 
BRANCH   3   4
HETATM    4  C   UNL     1     -12.540  10.164  71.248  1.00  0.00    -0.404 C  
HETATM    5  O   UNL     1     -13.315  10.174  72.190  1.00  0.00    -0.441 OA 
BRANCH   4   6
HETATM    6  C   UNL     1     -12.270  11.340  70.381  1.00  0.00    -0.453 A  
HETATM    7  C   UNL     1     -11.875  11.122  69.057  1.00  0.00    -0.418 A  
HETATM    8  C   UNL     1     -11.670  12.208  68.197  1.00  0.00    -0.402 A  
HETATM    9  C   UNL     1     -11.814  13.518  68.658  1.00  0.00    -0.369 A  
HETATM   10  C   UNL     1     -12.277  13.728  69.957  1.00  0.00    -0.407 A  
HETATM   11  N   UNL     1     -11.721  14.593  67.767  1.00  0.00    -0.378 NA 
HETATM   12  H2  UNL     1     -12.391  14.443  67.011  1.00  0.00     0.000 HD 
HETATM   13  H1  UNL     1     -11.826  15.550  68.103  1.00  0.00     0.000 HD 
HETATM   14  C   UNL     1     -12.482  12.651  70.823  1.00  0.00    -0.357 A  
ENDBRANCH   4   6
ENDBRANCH   3   4
ENDBRANCH   2   3
TORSDOF 3
ENDMDL
MODEL       58
REMARK 921   NORMALIZED FREE ENERGY PREDICTED BY IDOCK:   -3.73 KCAL/MOL
REMARK 922        TOTAL FREE ENERGY PREDICTED BY IDOCK:   -4.69 KCAL/MOL
REMARK 923 INTER-LIGAND FREE ENERGY PREDICTED BY IDOCK:   -4.52 KCAL/MOL
REMARK 924 INTRA-LIGAND FREE ENERGY PREDICTED BY IDOCK:   -0.17 KCAL/MOL
REMARK 927      BINDING AFFINITY PREDICTED BY RF-SCORE:    0.00 PKD
ROOT
HETATM    1  C   UNL     1     -13.267   9.962  72.028  1.00  0.00    -0.555 C  
HETATM    2  C   UNL     1     -12.220  10.159  70.946  1.00  0.00    -0.356 C  
ENDROOT
BRANCH   2   3
HETATM    3  O   UNL     1     -12.330  11.504  70.467  1.00  0.00    -0.350 OA 
BRANCH   3   4
HETATM    4  C   UNL     1     -12.043  11.685  69.154  1.00  0.00    -0.251 C  
HETATM    5  O   UNL     1     -12.117  10.844  68.274  1.00  0.00    -0.562 OA 
BRANCH   4   6
HETATM    6  C   UNL     1     -11.715  13.114  68.912  1.00  0.00    -0.368 A  
HETATM    7  C   UNL     1     -11.517  13.544  67.596  1.00  0.00    -0.351 A  
HETATM    8  C   UNL     1     -11.263  14.895  67.329  1.00  0.00    -0.348 A  
HETATM    9  C   UNL     1     -11.164  15.820  68.370  1.00  0.00    -0.362 A  
HETATM   10  C   UNL     1     -11.434  15.400  69.673  1.00  0.00    -0.331 A  
HETATM   11  N   UNL     1     -11.027  17.185  68.090  1.00  0.00    -0.314 NA 
HETATM   12  H2  UNL     1     -11.797  17.467  67.482  1.00  0.00     0.000 HD 
HETATM   13  H1  UNL     1     -10.954  17.861  68.850  1.00  0.00     0.000 HD 
HETATM   14  C   UNL     1     -11.685  14.054  69.950  1.00  0.00    -0.368 A  
ENDBRANCH   4   6
ENDBRANCH   3   4
ENDBRANCH   2   3
TORSDOF 3
ENDMDL
MODEL       59
REMARK 921   NORMALIZED FREE ENERGY PREDICTED BY IDOCK:   -3.70 KCAL/MOL
REMARK 922        TOTAL FREE ENERGY PREDICTED BY IDOCK:   -4.66 KCAL/MOL
REMARK 923 INTER-LIGAND FREE ENERGY PREDICTED BY IDOCK:   -4.48 KCAL/MOL
REMARK 924 INTRA-LIGAND FREE ENERGY PREDICTED BY IDOCK:   -0.18 KCAL/MOL
REMARK 927      BINDING AFFINITY PREDICTED BY RF-SCORE:    0.00 PKD
ROOT
HETATM    1  C   UNL     1      -9.019  19.284  68.677  1.00  0.00    -0.419 C  
HETATM    2  C   UNL     1      -8.912  17.775  68.545  1.00  0.00    -0.287 C  
ENDROOT
BRANCH   2   3
HETATM    3  O   UNL     1      -9.883  17.187  69.417  1.00  0.00    -0.139 OA 
BRANCH   3   4
HETATM    4  C   UNL     1     -10.808  16.397  68.819  1.00  0.00    -0.338 C  
HETATM    5  O   UNL     1     -10.984  16.270  67.619  1.00  0.00    -0.315 OA 
BRANCH   4   6
HETATM    6  C   UNL     1     -11.529  15.610  69.853  1.00  0.00    -0.344 A  
HETATM    7  C   UNL     1     -11.771  16.199  71.099  1.00  0.00    -0.454 A  
HETATM    8  C   UNL     1     -12.497  15.505  72.074  1.00  0.00    -0.476 A  
HETATM    9  C   UNL     1     -12.952  14.207  71.835  1.00  0.00    -0.360 A  
HETATM   10  C   UNL     1     -12.770  13.652  70.567  1.00  0.00    -0.260 A  
HETATM   11  N   UNL     1     -13.775  13.564  72.766  1.00  0.00    -0.687 NA 
HETATM   12  H2  UNL     1     -14.584  14.160  72.945  1.00  0.00     0.000 HD 
HETATM   13  H1  UNL     1     -14.107  12.616  72.592  1.00  0.00     0.000 HD 
HETATM   14  C   UNL     1     -12.044  14.335  69.588  1.00  0.00    -0.396 A  
ENDBRANCH   4   6
ENDBRANCH   3   4
ENDBRANCH   2   3
TORSDOF 3
ENDMDL
MODEL       60
REMARK 921   NORMALIZED FREE ENERGY PREDICTED BY IDOCK:   -3.67 KCAL/MOL
REMARK 922        TOTAL FREE ENERGY PREDICTED BY IDOCK:   -4.62 KCAL/MOL
REMARK 923 INTER-LIGAND FREE ENERGY PREDICTED BY IDOCK:   -4.36 KCAL/MOL
REMARK 924 INTRA-LIGAND FREE ENERGY PREDICTED BY IDOCK:   -0.27 KCAL/MOL
REMARK 927      BINDING AFFINITY PREDICTED BY RF-SCORE:    0.00 PKD
ROOT
HETATM    1  C   UNL     1     -10.560  15.410  66.227  1.00  0.00    -0.311 C  
HETATM    2  C   UNL     1     -11.365  14.248  65.671  1.00  0.00    -0.317 C  
ENDROOT
BRANCH   2   3
HETATM    3  O   UNL     1     -12.109  13.672  66.751  1.00  0.00    -0.401 OA 
BRANCH   3   4
HETATM    4  C   UNL     1     -11.405  12.871  67.587  1.00  0.00    -0.303 C  
HETATM    5  O   UNL     1     -10.449  12.174  67.289  1.00  0.00    -0.214 OA 
BRANCH   4   6
HETATM    6  C   UNL     1     -11.906  13.043  68.975  1.00  0.00    -0.362 A  
HETATM    7  C   UNL     1     -12.282  14.323  69.400  1.00  0.00    -0.319 A  
HETATM    8  C   UNL     1     -12.813  14.508  70.682  1.00  0.00    -0.399 A  
HETATM    9  C   UNL     1     -12.934  13.435  71.566  1.00  0.00    -0.341 A  
HETATM   10  C   UNL     1     -12.626  12.151  71.113  1.00  0.00    -0.360 A  
HETATM   11  N   UNL     1     -13.571  13.605  72.800  1.00  0.00    -0.686 NA 
HETATM   12  H2  UNL     1     -14.502  13.989  72.632  1.00  0.00     0.000 HD 
HETATM   13  H1  UNL     1     -13.660  12.821  73.446  1.00  0.00     0.000 HD 
HETATM   14  C   UNL     1     -12.093  11.956  69.837  1.00  0.00    -0.344 A  
ENDBRANCH   4   6
ENDBRANCH   3   4
ENDBRANCH   2   3
TORSDOF 3
ENDMDL
MODEL       61
REMARK 921   NORMALIZED FREE ENERGY PREDICTED BY IDOCK:   -3.67 KCAL/MOL
REMARK 922        TOTAL FREE ENERGY PREDICTED BY IDOCK:   -4.62 KCAL/MOL
REMARK 923 INTER-LIGAND FREE ENERGY PREDICTED BY IDOCK:   -4.34 KCAL/MOL
REMARK 924 INTRA-LIGAND FREE ENERGY PREDICTED BY IDOCK:   -0.28 KCAL/MOL
REMARK 927      BINDING AFFINITY PREDICTED BY RF-SCORE:    0.00 PKD
ROOT
HETATM    1  C   UNL     1      -8.367  15.337  69.380  1.00  0.00    -0.232 C  
HETATM    2  C   UNL     1      -9.032  16.610  68.887  1.00  0.00    -0.239 C  
ENDROOT
BRANCH   2   3
HETATM    3  O   UNL     1     -10.268  16.247  68.262  1.00  0.00    -0.239 OA 
BRANCH   3   4
HETATM    4  C   UNL     1     -10.348  16.492  66.932  1.00  0.00    -0.300 C  
HETATM    5  O   UNL     1      -9.895  17.461  66.345  1.00  0.00    -0.281 OA 
BRANCH   4   6
HETATM    6  C   UNL     1     -10.990  15.336  66.254  1.00  0.00    -0.300 A  
HETATM    7  C   UNL     1     -11.258  14.184  67.000  1.00  0.00    -0.328 A  
HETATM    8  C   UNL     1     -11.914  13.099  66.406  1.00  0.00    -0.462 A  
HETATM    9  C   UNL     1     -12.270  13.134  65.057  1.00  0.00    -0.440 A  
HETATM   10  C   UNL     1     -12.065  14.312  64.336  1.00  0.00    -0.490 A  
HETATM   11  N   UNL     1     -13.027  12.098  64.499  1.00  0.00    -0.665 NA 
HETATM   12  H2  UNL     1     -13.878  11.987  65.052  1.00  0.00     0.000 HD 
HETATM   13  H1  UNL     1     -13.287  12.123  63.513  1.00  0.00     0.000 HD 
HETATM   14  C   UNL     1     -11.409  15.398  64.919  1.00  0.00    -0.367 A  
ENDBRANCH   4   6
ENDBRANCH   3   4
ENDBRANCH   2   3
TORSDOF 3
ENDMDL
MODEL       62
REMARK 921   NORMALIZED FREE ENERGY PREDICTED BY IDOCK:   -3.64 KCAL/MOL
REMARK 922        TOTAL FREE ENERGY PREDICTED BY IDOCK:   -4.59 KCAL/MOL
REMARK 923 INTER-LIGAND FREE ENERGY PREDICTED BY IDOCK:   -4.42 KCAL/MOL
REMARK 924 INTRA-LIGAND FREE ENERGY PREDICTED BY IDOCK:   -0.17 KCAL/MOL
REMARK 927      BINDING AFFINITY PREDICTED BY RF-SCORE:    0.00 PKD
ROOT
HETATM    1  C   UNL     1     -13.377  15.200  72.629  1.00  0.00    -0.564 C  
HETATM    2  C   UNL     1     -13.372  15.549  71.151  1.00  0.00    -0.480 C  
ENDROOT
BRANCH   2   3
HETATM    3  O   UNL     1     -12.101  15.168  70.613  1.00  0.00    -0.281 OA 
BRANCH   3   4
HETATM    4  C   UNL     1     -11.998  15.210  69.262  1.00  0.00    -0.292 C  
HETATM    5  O   UNL     1     -12.031  16.210  68.564  1.00  0.00    -0.214 OA 
BRANCH   4   6
HETATM    6  C   UNL     1     -11.729  13.843  68.744  1.00  0.00    -0.392 A  
HETATM    7  C   UNL     1     -11.687  12.777  69.650  1.00  0.00    -0.372 A  
HETATM    8  C   UNL     1     -11.493  11.470  69.187  1.00  0.00    -0.362 A  
HETATM    9  C   UNL     1     -11.297  11.217  67.828  1.00  0.00    -0.285 A  
HETATM   10  C   UNL     1     -11.412  12.273  66.923  1.00  0.00    -0.418 A  
HETATM   11  N   UNL     1     -11.221   9.901  67.359  1.00  0.00    -0.365 NA 
HETATM   12  H2  UNL     1     -12.059   9.403  67.661  1.00  0.00     0.000 HD 
HETATM   13  H1  UNL     1     -11.077   9.716  66.367  1.00  0.00     0.000 HD 
HETATM   14  C   UNL     1     -11.602  13.581  67.375  1.00  0.00    -0.392 A  
ENDBRANCH   4   6
ENDBRANCH   3   4
ENDBRANCH   2   3
TORSDOF 3
ENDMDL
MODEL       63
REMARK 921   NORMALIZED FREE ENERGY PREDICTED BY IDOCK:   -3.61 KCAL/MOL
REMARK 922        TOTAL FREE ENERGY PREDICTED BY IDOCK:   -4.55 KCAL/MOL
REMARK 923 INTER-LIGAND FREE ENERGY PREDICTED BY IDOCK:   -4.26 KCAL/MOL
REMARK 924 INTRA-LIGAND FREE ENERGY PREDICTED BY IDOCK:   -0.30 KCAL/MOL
REMARK 927      BINDING AFFINITY PREDICTED BY RF-SCORE:    0.00 PKD
ROOT
HETATM    1  C   UNL     1      -7.604  20.173  67.513  1.00  0.00    -0.333 C  
HETATM    2  C   UNL     1      -7.942  19.902  66.057  1.00  0.00    -0.314 C  
ENDROOT
BRANCH   2   3
HETATM    3  O   UNL     1      -8.639  18.653  65.992  1.00  0.00    -0.488 OA 
BRANCH   3   4
HETATM    4  C   UNL     1      -9.952  18.694  66.328  1.00  0.00    -0.372 C  
HETATM    5  O   UNL     1     -10.782  19.484  65.909  1.00  0.00    -0.483 OA 
BRANCH   4   6
HETATM    6  C   UNL     1     -10.270  17.552  67.223  1.00  0.00    -0.335 A  
HETATM    7  C   UNL     1     -10.585  16.316  66.648  1.00  0.00    -0.252 A  
HETATM    8  C   UNL     1     -10.833  15.205  67.464  1.00  0.00    -0.301 A  
HETATM    9  C   UNL     1     -10.812  15.324  68.855  1.00  0.00    -0.247 A  
HETATM   10  C   UNL     1     -10.427  16.540  69.422  1.00  0.00    -0.320 A  
HETATM   11  N   UNL     1     -10.945  14.188  69.662  1.00  0.00    -0.437 NA 
HETATM   12  H2  UNL     1     -10.232  13.512  69.387  1.00  0.00     0.000 HD 
HETATM   13  H1  UNL     1     -10.930  14.274  70.678  1.00  0.00     0.000 HD 
HETATM   14  C   UNL     1     -10.180  17.654  68.617  1.00  0.00    -0.377 A  
ENDBRANCH   4   6
ENDBRANCH   3   4
ENDBRANCH   2   3
TORSDOF 3
ENDMDL
MODEL       64
REMARK 921   NORMALIZED FREE ENERGY PREDICTED BY IDOCK:   -3.60 KCAL/MOL
REMARK 922        TOTAL FREE ENERGY PREDICTED BY IDOCK:   -4.54 KCAL/MOL
REMARK 923 INTER-LIGAND FREE ENERGY PREDICTED BY IDOCK:   -4.34 KCAL/MOL
REMARK 924 INTRA-LIGAND FREE ENERGY PREDICTED BY IDOCK:   -0.20 KCAL/MOL
REMARK 927      BINDING AFFINITY PREDICTED BY RF-SCORE:    0.00 PKD
ROOT
HETATM    1  C   UNL     1     -10.912   5.221  72.959  1.00  0.00    -0.354 C  
HETATM    2  C   UNL     1     -11.472   6.247  71.989  1.00  0.00    -0.310 C  
ENDROOT
BRANCH   2   3
HETATM    3  O   UNL     1     -11.533   7.506  72.668  1.00  0.00    -0.323 OA 
BRANCH   3   4
HETATM    4  C   UNL     1     -10.499   8.351  72.432  1.00  0.00    -0.332 C  
HETATM    5  O   UNL     1      -9.392   8.300  72.942  1.00  0.00    -0.256 OA 
BRANCH   4   6
HETATM    6  C   UNL     1     -10.879   9.311  71.364  1.00  0.00    -0.434 A  
HETATM    7  C   UNL     1      -9.964   9.569  70.337  1.00  0.00    -0.325 A  
HETATM    8  C   UNL     1     -10.313  10.424  69.285  1.00  0.00    -0.250 A  
HETATM    9  C   UNL     1     -11.554  11.062  69.267  1.00  0.00    -0.314 A  
HETATM   10  C   UNL     1     -12.489  10.746  70.255  1.00  0.00    -0.395 A  
HETATM   11  N   UNL     1     -11.942  11.822  68.157  1.00  0.00    -0.557 NA 
HETATM   12  H2  UNL     1     -11.871  11.236  67.325  1.00  0.00     0.000 HD 
HETATM   13  H1  UNL     1     -12.848  12.289  68.144  1.00  0.00     0.000 HD 
HETATM   14  C   UNL     1     -12.149   9.897  71.310  1.00  0.00    -0.485 A  
ENDBRANCH   4   6
ENDBRANCH   3   4
ENDBRANCH   2   3
TORSDOF 3
ENDMDL
MODEL       65
REMARK 921   NORMALIZED FREE ENERGY PREDICTED BY IDOCK:   -3.57 KCAL/MOL
REMARK 922        TOTAL FREE ENERGY PREDICTED BY IDOCK:   -4.50 KCAL/MOL
REMARK 923 INTER-LIGAND FREE ENERGY PREDICTED BY IDOCK:   -4.32 KCAL/MOL
REMARK 924 INTRA-LIGAND FREE ENERGY PREDICTED BY IDOCK:   -0.18 KCAL/MOL
REMARK 927      BINDING AFFINITY PREDICTED BY RF-SCORE:    0.00 PKD
ROOT
HETATM    1  C   UNL     1     -11.881  12.814  66.527  1.00  0.00    -0.471 C  
HETATM    2  C   UNL     1     -12.271  14.266  66.310  1.00  0.00    -0.410 C  
ENDROOT
BRANCH   2   3
HETATM    3  O   UNL     1     -11.152  15.081  66.673  1.00  0.00    -0.327 OA 
BRANCH   3   4
HETATM    4  C   UNL     1     -11.322  15.857  67.771  1.00  0.00    -0.199 C  
HETATM    5  O   UNL     1     -11.889  15.538  68.803  1.00  0.00    -0.356 OA 
BRANCH   4   6
HETATM    6  C   UNL     1     -10.615  17.150  67.577  1.00  0.00    -0.323 A  
HETATM    7  C   UNL     1     -10.005  17.754  68.682  1.00  0.00    -0.379 A  
HETATM    8  C   UNL     1      -9.283  18.943  68.522  1.00  0.00    -0.404 A  
HETATM    9  C   UNL     1      -9.196  19.562  67.274  1.00  0.00    -0.315 A  
HETATM   10  C   UNL     1      -9.745  18.918  66.164  1.00  0.00    -0.307 A  
HETATM   11  N   UNL     1      -8.378  20.684  67.097  1.00  0.00    -0.523 NA 
HETATM   12  H2  UNL     1      -7.435  20.444  67.403  1.00  0.00     0.000 HD 
HETATM   13  H1  UNL     1      -8.316  21.136  66.186  1.00  0.00     0.000 HD 
HETATM   14  C   UNL     1     -10.470  17.734  66.313  1.00  0.00    -0.307 A  
ENDBRANCH   4   6
ENDBRANCH   3   4
ENDBRANCH   2   3
TORSDOF 3
ENDMDL
MODEL       66
REMARK 921   NORMALIZED FREE ENERGY PREDICTED BY IDOCK:   -3.56 KCAL/MOL
REMARK 922        TOTAL FREE ENERGY PREDICTED BY IDOCK:   -4.49 KCAL/MOL
REMARK 923 INTER-LIGAND FREE ENERGY PREDICTED BY IDOCK:   -4.19 KCAL/MOL
REMARK 924 INTRA-LIGAND FREE ENERGY PREDICTED BY IDOCK:   -0.31 KCAL/MOL
REMARK 927      BINDING AFFINITY PREDICTED BY RF-SCORE:    0.00 PKD
ROOT
HETATM    1  C   UNL     1     -11.718  10.391  70.761  1.00  0.00    -0.464 C  
HETATM    2  C   UNL     1     -12.928  10.106  71.633  1.00  0.00    -0.456 C  
ENDROOT
BRANCH   2   3
HETATM    3  O   UNL     1     -12.706   8.858  72.300  1.00  0.00    -0.376 OA 
BRANCH   3   4
HETATM    4  C   UNL     1     -13.237   7.767  71.696  1.00  0.00    -0.343 C  
HETATM    5  O   UNL     1     -14.390   7.637  71.319  1.00  0.00    -0.397 OA 
BRANCH   4   6
HETATM    6  C   UNL     1     -12.168   6.764  71.459  1.00  0.00    -0.413 A  
HETATM    7  C   UNL     1     -11.661   6.615  70.163  1.00  0.00    -0.446 A  
HETATM    8  C   UNL     1     -10.613   5.719  69.918  1.00  0.00    -0.388 A  
HETATM    9  C   UNL     1     -10.090   4.935  70.947  1.00  0.00    -0.222 A  
HETATM   10  C   UNL     1     -10.550   5.138  72.249  1.00  0.00    -0.278 A  
HETATM   11  N   UNL     1      -8.969   4.129  70.720  1.00  0.00    -0.090 NA 
HETATM   12  H2  UNL     1      -8.220   4.716  70.352  1.00  0.00     0.000 HD 
HETATM   13  H1  UNL     1      -8.587   3.555  71.472  1.00  0.00     0.000 HD 
HETATM   14  C   UNL     1     -11.597   6.027  72.504  1.00  0.00    -0.315 A  
ENDBRANCH   4   6
ENDBRANCH   3   4
ENDBRANCH   2   3
TORSDOF 3
ENDMDL
MODEL       67
REMARK 921   NORMALIZED FREE ENERGY PREDICTED BY IDOCK:   -3.54 KCAL/MOL
REMARK 922        TOTAL FREE ENERGY PREDICTED BY IDOCK:   -4.48 KCAL/MOL
REMARK 923 INTER-LIGAND FREE ENERGY PREDICTED BY IDOCK:   -4.25 KCAL/MOL
REMARK 924 INTRA-LIGAND FREE ENERGY PREDICTED BY IDOCK:   -0.23 KCAL/MOL
REMARK 927      BINDING AFFINITY PREDICTED BY RF-SCORE:    0.00 PKD
ROOT
HETATM    1  C   UNL     1      -8.068  14.426  68.188  1.00  0.00    -0.137 C  
HETATM    2  C   UNL     1      -8.714  15.620  67.506  1.00  0.00    -0.177 C  
ENDROOT
BRANCH   2   3
HETATM    3  O   UNL     1      -9.998  15.210  67.023  1.00  0.00    -0.237 OA 
BRANCH   3   4
HETATM    4  C   UNL     1     -10.298  15.589  65.758  1.00  0.00    -0.363 C  
HETATM    5  O   UNL     1     -10.037  16.664  65.242  1.00  0.00    -0.575 OA 
BRANCH   4   6
HETATM    6  C   UNL     1     -10.917  14.450  65.033  1.00  0.00    -0.398 A  
HETATM    7  C   UNL     1     -12.154  14.643  64.407  1.00  0.00    -0.481 A  
HETATM    8  C   UNL     1     -12.736  13.606  63.668  1.00  0.00     0.163 A  
HETATM    9  C   UNL     1     -12.117  12.359  63.580  1.00  0.00    -0.556 A  
HETATM   10  C   UNL     1     -10.851  12.193  64.146  1.00  0.00    -0.410 A  
HETATM   11  N   UNL     1     -12.644  11.366  62.747  1.00  0.00    -0.763 NA 
HETATM   12  H2  UNL     1     -12.729  11.749  61.804  1.00  0.00     0.000 HD 
HETATM   13  H1  UNL     1     -12.192  10.454  62.683  1.00  0.00     0.000 HD 
HETATM   14  C   UNL     1     -10.264  13.220  64.888  1.00  0.00    -0.313 A  
ENDBRANCH   4   6
ENDBRANCH   3   4
ENDBRANCH   2   3
TORSDOF 3
ENDMDL
MODEL       68
REMARK 921   NORMALIZED FREE ENERGY PREDICTED BY IDOCK:   -3.53 KCAL/MOL
REMARK 922        TOTAL FREE ENERGY PREDICTED BY IDOCK:   -4.46 KCAL/MOL
REMARK 923 INTER-LIGAND FREE ENERGY PREDICTED BY IDOCK:   -4.15 KCAL/MOL
REMARK 924 INTRA-LIGAND FREE ENERGY PREDICTED BY IDOCK:   -0.31 KCAL/MOL
REMARK 927      BINDING AFFINITY PREDICTED BY RF-SCORE:    0.00 PKD
ROOT
HETATM    1  C   UNL     1     -12.277  12.305  63.543  1.00  0.00    -0.669 C  
HETATM    2  C   UNL     1     -11.920  13.602  64.247  1.00  0.00    -0.445 C  
ENDROOT
BRANCH   2   3
HETATM    3  O   UNL     1     -10.921  13.309  65.229  1.00  0.00    -0.283 OA 
BRANCH   3   4
HETATM    4  C   UNL     1     -11.340  13.331  66.518  1.00  0.00    -0.322 C  
HETATM    5  O   UNL     1     -11.917  14.250  67.076  1.00  0.00    -0.414 OA 
BRANCH   4   6
HETATM    6  C   UNL     1     -11.082  12.009  67.145  1.00  0.00    -0.344 A  
HETATM    7  C   UNL     1     -11.776  11.673  68.312  1.00  0.00    -0.374 A  
HETATM    8  C   UNL     1     -11.599  10.412  68.895  1.00  0.00    -0.208 A  
HETATM    9  C   UNL     1     -10.700   9.494  68.349  1.00  0.00    -0.186 A  
HETATM   10  C   UNL     1     -10.065   9.807  67.146  1.00  0.00    -0.267 A  
HETATM   11  N   UNL     1     -10.614   8.197  68.867  1.00  0.00    -0.357 NA 
HETATM   12  H2  UNL     1     -11.546   7.782  68.852  1.00  0.00     0.000 HD 
HETATM   13  H1  UNL     1      -9.957   7.526  68.469  1.00  0.00     0.000 HD 
HETATM   14  C   UNL     1     -10.233  11.063  66.558  1.00  0.00    -0.280 A  
ENDBRANCH   4   6
ENDBRANCH   3   4
ENDBRANCH   2   3
TORSDOF 3
ENDMDL
MODEL       69
REMARK 921   NORMALIZED FREE ENERGY PREDICTED BY IDOCK:   -3.51 KCAL/MOL
REMARK 922        TOTAL FREE ENERGY PREDICTED BY IDOCK:   -4.44 KCAL/MOL
REMARK 923 INTER-LIGAND FREE ENERGY PREDICTED BY IDOCK:   -4.13 KCAL/MOL
REMARK 924 INTRA-LIGAND FREE ENERGY PREDICTED BY IDOCK:   -0.30 KCAL/MOL
REMARK 927      BINDING AFFINITY PREDICTED BY RF-SCORE:    0.00 PKD
ROOT
HETATM    1  C   UNL     1      -9.261   5.915  71.363  1.00  0.00    -0.158 C  
HETATM    2  C   UNL     1     -10.506   5.326  70.722  1.00  0.00    -0.228 C  
ENDROOT
BRANCH   2   3
HETATM    3  O   UNL     1     -11.309   6.410  70.244  1.00  0.00    -0.347 OA 
BRANCH   3   4
HETATM    4  C   UNL     1     -12.127   6.983  71.160  1.00  0.00    -0.369 C  
HETATM    5  O   UNL     1     -12.710   6.413  72.068  1.00  0.00    -0.281 OA 
BRANCH   4   6
HETATM    6  C   UNL     1     -12.136   8.456  70.963  1.00  0.00    -0.218 A  
HETATM    7  C   UNL     1     -13.040   9.227  71.701  1.00  0.00    -0.451 A  
HETATM    8  C   UNL     1     -13.035  10.622  71.580  1.00  0.00    -0.582 A  
HETATM    9  C   UNL     1     -12.162  11.258  70.696  1.00  0.00    -0.393 A  
HETATM   10  C   UNL     1     -11.214  10.490  70.017  1.00  0.00    -0.386 A  
HETATM   11  N   UNL     1     -12.080  12.654  70.666  1.00  0.00    -0.507 NA 
HETATM   12  H2  UNL     1     -11.877  12.985  71.610  1.00  0.00     0.000 HD 
HETATM   13  H1  UNL     1     -11.442  13.119  70.019  1.00  0.00     0.000 HD 
HETATM   14  C   UNL     1     -11.214   9.098  70.128  1.00  0.00    -0.211 A  
ENDBRANCH   4   6
ENDBRANCH   3   4
ENDBRANCH   2   3
TORSDOF 3
ENDMDL
MODEL       70
REMARK 921   NORMALIZED FREE ENERGY PREDICTED BY IDOCK:   -3.50 KCAL/MOL
REMARK 922        TOTAL FREE ENERGY PREDICTED BY IDOCK:   -4.43 KCAL/MOL
REMARK 923 INTER-LIGAND FREE ENERGY PREDICTED BY IDOCK:   -4.32 KCAL/MOL
REMARK 924 INTRA-LIGAND FREE ENERGY PREDICTED BY IDOCK:   -0.10 KCAL/MOL
REMARK 927      BINDING AFFINITY PREDICTED BY RF-SCORE:    0.00 PKD
ROOT
HETATM    1  C   UNL     1     -12.165  13.975  66.179  1.00  0.00    -0.494 C  
HETATM    2  C   UNL     1     -10.911  13.995  65.322  1.00  0.00    -0.334 C  
ENDROOT
BRANCH   2   3
HETATM    3  O   UNL     1     -11.286  13.646  63.985  1.00  0.00    -0.321 OA 
BRANCH   3   4
HETATM    4  C   UNL     1     -11.800  12.402  63.824  1.00  0.00    -0.502 C  
HETATM    5  O   UNL     1     -12.947  12.127  63.516  1.00  0.00    -0.794 OA 
BRANCH   4   6
HETATM    6  C   UNL     1     -10.717  11.396  63.980  1.00  0.00    -0.450 A  
HETATM    7  C   UNL     1      -9.752  11.287  62.973  1.00  0.00    -0.389 A  
HETATM    8  C   UNL     1      -8.687  10.390  63.116  1.00  0.00    -0.203 A  
HETATM    9  C   UNL     1      -8.596   9.565  64.238  1.00  0.00    -0.198 A  
HETATM   10  C   UNL     1      -9.520   9.729  65.271  1.00  0.00    -0.343 A  
HETATM   11  N   UNL     1      -7.470   8.756  64.430  1.00  0.00    -0.103 NA 
HETATM   12  H2  UNL     1      -6.640   9.348  64.399  1.00  0.00     0.000 HD 
HETATM   13  H1  UNL     1      -7.404   8.153  65.250  1.00  0.00     0.000 HD 
HETATM   14  C   UNL     1     -10.588  10.619  65.137  1.00  0.00    -0.190 A  
ENDBRANCH   4   6
ENDBRANCH   3   4
ENDBRANCH   2   3
TORSDOF 3
ENDMDL
MODEL       71
REMARK 921   NORMALIZED FREE ENERGY PREDICTED BY IDOCK:   -3.48 KCAL/MOL
REMARK 922        TOTAL FREE ENERGY PREDICTED BY IDOCK:   -4.40 KCAL/MOL
REMARK 923 INTER-LIGAND FREE ENERGY PREDICTED BY IDOCK:   -4.23 KCAL/MOL
REMARK 924 INTRA-LIGAND FREE ENERGY PREDICTED BY IDOCK:   -0.17 KCAL/MOL
REMARK 927      BINDING AFFINITY PREDICTED BY RF-SCORE:    0.00 PKD
ROOT
HETATM    1  C   UNL     1     -11.151   6.203  69.921  1.00  0.00    -0.481 C  
HETATM    2  C   UNL     1     -10.801   7.462  70.694  1.00  0.00    -0.242 C  
ENDROOT
BRANCH   2   3
HETATM    3  O   UNL     1     -11.449   8.566  70.053  1.00  0.00    -0.098 OA 
BRANCH   3   4
HETATM    4  C   UNL     1     -11.726   9.628  70.850  1.00  0.00    -0.334 C  
HETATM    5  O   UNL     1     -11.787   9.622  72.068  1.00  0.00    -0.308 OA 
BRANCH   4   6
HETATM    6  C   UNL     1     -11.847  10.852  70.018  1.00  0.00    -0.428 A  
HETATM    7  C   UNL     1     -12.184  12.058  70.642  1.00  0.00    -0.409 A  
HETATM    8  C   UNL     1     -12.249  13.241  69.895  1.00  0.00    -0.313 A  
HETATM    9  C   UNL     1     -12.023  13.228  68.518  1.00  0.00    -0.304 A  
HETATM   10  C   UNL     1     -11.617  12.037  67.914  1.00  0.00    -0.405 A  
HETATM   11  N   UNL     1     -11.975  14.428  67.799  1.00  0.00    -0.532 NA 
HETATM   12  H2  UNL     1     -11.279  15.035  68.233  1.00  0.00     0.000 HD 
HETATM   13  H1  UNL     1     -11.810  14.418  66.793  1.00  0.00     0.000 HD 
HETATM   14  C   UNL     1     -11.552  10.851  68.649  1.00  0.00    -0.373 A  
ENDBRANCH   4   6
ENDBRANCH   3   4
ENDBRANCH   2   3
TORSDOF 3
ENDMDL
MODEL       72
REMARK 921   NORMALIZED FREE ENERGY PREDICTED BY IDOCK:   -3.48 KCAL/MOL
REMARK 922        TOTAL FREE ENERGY PREDICTED BY IDOCK:   -4.40 KCAL/MOL
REMARK 923 INTER-LIGAND FREE ENERGY PREDICTED BY IDOCK:   -4.18 KCAL/MOL
REMARK 924 INTRA-LIGAND FREE ENERGY PREDICTED BY IDOCK:   -0.22 KCAL/MOL
REMARK 927      BINDING AFFINITY PREDICTED BY RF-SCORE:    0.00 PKD
ROOT
HETATM    1  C   UNL     1     -11.751  14.757  64.751  1.00  0.00    -0.422 C  
HETATM    2  C   UNL     1     -12.222  14.072  66.022  1.00  0.00    -0.458 C  
ENDROOT
BRANCH   2   3
HETATM    3  O   UNL     1     -11.107  13.374  66.586  1.00  0.00    -0.288 OA 
BRANCH   3   4
HETATM    4  C   UNL     1     -11.379  12.152  67.104  1.00  0.00    -0.331 C  
HETATM    5  O   UNL     1     -12.215  11.896  67.955  1.00  0.00    -0.508 OA 
BRANCH   4   6
HETATM    6  C   UNL     1     -10.568  11.124  66.400  1.00  0.00    -0.315 A  
HETATM    7  C   UNL     1     -10.301   9.916  67.054  1.00  0.00    -0.303 A  
HETATM    8  C   UNL     1      -9.589   8.906  66.397  1.00  0.00    -0.304 A  
HETATM    9  C   UNL     1      -9.101   9.103  65.104  1.00  0.00    -0.176 A  
HETATM   10  C   UNL     1      -9.432  10.280  64.431  1.00  0.00    -0.360 A  
HETATM   11  N   UNL     1      -8.493   8.050  64.411  1.00  0.00    -0.382 NA 
HETATM   12  H2  UNL     1      -9.140   7.261  64.393  1.00  0.00     0.000 HD 
HETATM   13  H1  UNL     1      -8.136   8.194  63.467  1.00  0.00     0.000 HD 
HETATM   14  C   UNL     1     -10.139  11.296  65.079  1.00  0.00    -0.331 A  
ENDBRANCH   4   6
ENDBRANCH   3   4
ENDBRANCH   2   3
TORSDOF 3
ENDMDL
MODEL       73
REMARK 921   NORMALIZED FREE ENERGY PREDICTED BY IDOCK:   -3.47 KCAL/MOL
REMARK 922        TOTAL FREE ENERGY PREDICTED BY IDOCK:   -4.38 KCAL/MOL
REMARK 923 INTER-LIGAND FREE ENERGY PREDICTED BY IDOCK:   -4.13 KCAL/MOL
REMARK 924 INTRA-LIGAND FREE ENERGY PREDICTED BY IDOCK:   -0.25 KCAL/MOL
REMARK 927      BINDING AFFINITY PREDICTED BY RF-SCORE:    0.00 PKD
ROOT
HETATM    1  C   UNL     1     -11.198   6.338  69.412  1.00  0.00    -0.489 C  
HETATM    2  C   UNL     1     -11.842   6.453  70.783  1.00  0.00    -0.253 C  
ENDROOT
BRANCH   2   3
HETATM    3  O   UNL     1     -12.414   7.761  70.893  1.00  0.00    -0.200 OA 
BRANCH   3   4
HETATM    4  C   UNL     1     -11.757   8.622  71.708  1.00  0.00    -0.331 C  
HETATM    5  O   UNL     1     -11.072   8.327  72.672  1.00  0.00    -0.367 OA 
BRANCH   4   6
HETATM    6  C   UNL     1     -11.910  10.007  71.190  1.00  0.00    -0.481 A  
HETATM    7  C   UNL     1     -11.193  10.380  70.048  1.00  0.00    -0.385 A  
HETATM    8  C   UNL     1     -11.359  11.658  69.502  1.00  0.00    -0.328 A  
HETATM    9  C   UNL     1     -12.204  12.588  70.108  1.00  0.00    -0.234 A  
HETATM   10  C   UNL     1     -12.970  12.188  71.204  1.00  0.00    -0.240 A  
HETATM   11  N   UNL     1     -12.454  13.821  69.494  1.00  0.00    -0.317 NA 
HETATM   12  H2  UNL     1     -12.796  13.645  68.549  1.00  0.00     0.000 HD 
HETATM   13  H1  UNL     1     -13.071  14.501  69.938  1.00  0.00     0.000 HD 
HETATM   14  C   UNL     1     -12.810  10.916  71.759  1.00  0.00    -0.509 A  
ENDBRANCH   4   6
ENDBRANCH   3   4
ENDBRANCH   2   3
TORSDOF 3
ENDMDL
MODEL       74
REMARK 921   NORMALIZED FREE ENERGY PREDICTED BY IDOCK:   -3.46 KCAL/MOL
REMARK 922        TOTAL FREE ENERGY PREDICTED BY IDOCK:   -4.38 KCAL/MOL
REMARK 923 INTER-LIGAND FREE ENERGY PREDICTED BY IDOCK:   -4.16 KCAL/MOL
REMARK 924 INTRA-LIGAND FREE ENERGY PREDICTED BY IDOCK:   -0.21 KCAL/MOL
REMARK 927      BINDING AFFINITY PREDICTED BY RF-SCORE:    0.00 PKD
ROOT
HETATM    1  C   UNL     1     -10.259   6.767  72.031  1.00  0.00    -0.209 C  
HETATM    2  C   UNL     1      -9.844   7.285  70.665  1.00  0.00    -0.179 C  
ENDROOT
BRANCH   2   3
HETATM    3  O   UNL     1     -10.988   7.897  70.061  1.00  0.00    -0.249 OA 
BRANCH   3   4
HETATM    4  C   UNL     1     -10.784   9.127  69.528  1.00  0.00    -0.215 C  
HETATM    5  O   UNL     1     -10.098   9.389  68.553  1.00  0.00    -0.174 OA 
BRANCH   4   6
HETATM    6  C   UNL     1     -11.613  10.124  70.252  1.00  0.00    -0.379 A  
HETATM    7  C   UNL     1     -12.393   9.692  71.331  1.00  0.00    -0.468 A  
HETATM    8  C   UNL     1     -13.142  10.617  72.070  1.00  0.00    -0.501 A  
HETATM    9  C   UNL     1     -13.153  11.967  71.719  1.00  0.00    -0.355 A  
HETATM   10  C   UNL     1     -12.318  12.403  70.689  1.00  0.00    -0.367 A  
HETATM   11  N   UNL     1     -13.808  12.902  72.530  1.00  0.00    -0.681 NA 
HETATM   12  H2  UNL     1     -13.438  12.820  73.477  1.00  0.00     0.000 HD 
HETATM   13  H1  UNL     1     -13.817  13.889  72.273  1.00  0.00     0.000 HD 
HETATM   14  C   UNL     1     -11.571  11.489  69.943  1.00  0.00    -0.387 A  
ENDBRANCH   4   6
ENDBRANCH   3   4
ENDBRANCH   2   3
TORSDOF 3
ENDMDL
MODEL       75
REMARK 921   NORMALIZED FREE ENERGY PREDICTED BY IDOCK:   -3.46 KCAL/MOL
REMARK 922        TOTAL FREE ENERGY PREDICTED BY IDOCK:   -4.37 KCAL/MOL
REMARK 923 INTER-LIGAND FREE ENERGY PREDICTED BY IDOCK:   -4.14 KCAL/MOL
REMARK 924 INTRA-LIGAND FREE ENERGY PREDICTED BY IDOCK:   -0.23 KCAL/MOL
REMARK 927      BINDING AFFINITY PREDICTED BY RF-SCORE:    0.00 PKD
ROOT
HETATM    1  C   UNL     1     -14.103   8.691  71.646  1.00  0.00    -0.468 C  
HETATM    2  C   UNL     1     -12.758   8.613  72.346  1.00  0.00    -0.362 C  
ENDROOT
BRANCH   2   3
HETATM    3  O   UNL     1     -11.819   9.377  71.582  1.00  0.00    -0.351 OA 
BRANCH   3   4
HETATM    4  C   UNL     1     -10.635   8.769  71.328  1.00  0.00    -0.262 C  
HETATM    5  O   UNL     1      -9.660   8.746  72.061  1.00  0.00    -0.290 OA 
BRANCH   4   6
HETATM    6  C   UNL     1     -10.725   8.027  70.043  1.00  0.00    -0.244 A  
HETATM    7  C   UNL     1     -10.484   8.718  68.851  1.00  0.00    -0.217 A  
HETATM    8  C   UNL     1     -10.504   8.036  67.628  1.00  0.00    -0.301 A  
HETATM    9  C   UNL     1     -10.806   6.674  67.577  1.00  0.00    -0.342 A  
HETATM   10  C   UNL     1     -10.975   5.976  68.774  1.00  0.00    -0.384 A  
HETATM   11  N   UNL     1     -10.711   5.975  66.368  1.00  0.00    -0.556 NA 
HETATM   12  H2  UNL     1      -9.772   6.110  65.992  1.00  0.00     0.000 HD 
HETATM   13  H1  UNL     1     -10.932   4.980  66.331  1.00  0.00     0.000 HD 
HETATM   14  C   UNL     1     -10.959   6.648  69.998  1.00  0.00    -0.363 A  
ENDBRANCH   4   6
ENDBRANCH   3   4
ENDBRANCH   2   3
TORSDOF 3
ENDMDL
MODEL       76
REMARK 921   NORMALIZED FREE ENERGY PREDICTED BY IDOCK:   -3.45 KCAL/MOL
REMARK 922        TOTAL FREE ENERGY PREDICTED BY IDOCK:   -4.37 KCAL/MOL
REMARK 923 INTER-LIGAND FREE ENERGY PREDICTED BY IDOCK:   -4.19 KCAL/MOL
REMARK 924 INTRA-LIGAND FREE ENERGY PREDICTED BY IDOCK:   -0.18 KCAL/MOL
REMARK 927      BINDING AFFINITY PREDICTED BY RF-SCORE:    0.00 PKD
ROOT
HETATM    1  C   UNL     1     -11.546  10.358  69.574  1.00  0.00    -0.288 C  
HETATM    2  C   UNL     1     -10.970  11.253  68.490  1.00  0.00    -0.220 C  
ENDROOT
BRANCH   2   3
HETATM    3  O   UNL     1     -12.024  12.093  68.007  1.00  0.00    -0.465 OA 
BRANCH   3   4
HETATM    4  C   UNL     1     -11.785  12.716  66.827  1.00  0.00    -0.392 C  
HETATM    5  O   UNL     1     -12.049  12.288  65.716  1.00  0.00    -0.587 OA 
BRANCH   4   6
HETATM    6  C   UNL     1     -11.235  14.072  67.086  1.00  0.00    -0.327 A  
HETATM    7  C   UNL     1     -10.334  14.618  66.164  1.00  0.00    -0.309 A  
HETATM    8  C   UNL     1      -9.842  15.916  66.349  1.00  0.00    -0.302 A  
HETATM    9  C   UNL     1     -10.207  16.663  67.470  1.00  0.00    -0.289 A  
HETATM   10  C   UNL     1     -11.160  16.142  68.347  1.00  0.00    -0.359 A  
HETATM   11  N   UNL     1      -9.805  17.999  67.589  1.00  0.00    -0.294 NA 
HETATM   12  H2  UNL     1     -10.110  18.502  66.755  1.00  0.00     0.000 HD 
HETATM   13  H1  UNL     1     -10.071  18.545  68.408  1.00  0.00     0.000 HD 
HETATM   14  C   UNL     1     -11.654  14.847  68.173  1.00  0.00    -0.356 A  
ENDBRANCH   4   6
ENDBRANCH   3   4
ENDBRANCH   2   3
TORSDOF 3
ENDMDL
MODEL       77
REMARK 921   NORMALIZED FREE ENERGY PREDICTED BY IDOCK:   -3.41 KCAL/MOL
REMARK 922        TOTAL FREE ENERGY PREDICTED BY IDOCK:   -4.32 KCAL/MOL
REMARK 923 INTER-LIGAND FREE ENERGY PREDICTED BY IDOCK:   -4.15 KCAL/MOL
REMARK 924 INTRA-LIGAND FREE ENERGY PREDICTED BY IDOCK:   -0.17 KCAL/MOL
REMARK 927      BINDING AFFINITY PREDICTED BY RF-SCORE:    0.00 PKD
ROOT
HETATM    1  C   UNL     1     -11.066   7.914  70.755  1.00  0.00    -0.264 C  
HETATM    2  C   UNL     1     -11.045   9.384  71.138  1.00  0.00    -0.362 C  
ENDROOT
BRANCH   2   3
HETATM    3  O   UNL     1     -11.467  10.142  69.998  1.00  0.00    -0.257 OA 
BRANCH   3   4
HETATM    4  C   UNL     1     -12.013  11.353  70.268  1.00  0.00    -0.373 C  
HETATM    5  O   UNL     1     -12.488  11.713  71.332  1.00  0.00    -0.304 OA 
BRANCH   4   6
HETATM    6  C   UNL     1     -11.856  12.240  69.086  1.00  0.00    -0.355 A  
HETATM    7  C   UNL     1     -11.741  11.656  67.819  1.00  0.00    -0.315 A  
HETATM    8  C   UNL     1     -11.650  12.466  66.680  1.00  0.00    -0.447 A  
HETATM    9  C   UNL     1     -11.629  13.856  66.793  1.00  0.00    -0.378 A  
HETATM   10  C   UNL     1     -11.816  14.433  68.051  1.00  0.00    -0.361 A  
HETATM   11  N   UNL     1     -11.656  14.659  65.647  1.00  0.00    -0.345 NA 
HETATM   12  H2  UNL     1     -12.468  14.395  65.088  1.00  0.00     0.000 HD 
HETATM   13  H1  UNL     1     -11.640  15.675  65.730  1.00  0.00     0.000 HD 
HETATM   14  C   UNL     1     -11.905  13.634  69.194  1.00  0.00    -0.394 A  
ENDBRANCH   4   6
ENDBRANCH   3   4
ENDBRANCH   2   3
TORSDOF 3
ENDMDL
MODEL       78
REMARK 921   NORMALIZED FREE ENERGY PREDICTED BY IDOCK:   -3.41 KCAL/MOL
REMARK 922        TOTAL FREE ENERGY PREDICTED BY IDOCK:   -4.32 KCAL/MOL
REMARK 923 INTER-LIGAND FREE ENERGY PREDICTED BY IDOCK:   -4.18 KCAL/MOL
REMARK 924 INTRA-LIGAND FREE ENERGY PREDICTED BY IDOCK:   -0.14 KCAL/MOL
REMARK 927      BINDING AFFINITY PREDICTED BY RF-SCORE:    0.00 PKD
ROOT
HETATM    1  C   UNL     1     -12.894  10.629  71.491  1.00  0.00    -0.567 C  
HETATM    2  C   UNL     1     -13.023   9.200  71.987  1.00  0.00    -0.424 C  
ENDROOT
BRANCH   2   3
HETATM    3  O   UNL     1     -11.708   8.636  72.050  1.00  0.00    -0.322 OA 
BRANCH   3   4
HETATM    4  C   UNL     1     -11.588   7.372  71.575  1.00  0.00    -0.275 C  
HETATM    5  O   UNL     1     -11.903   6.347  72.156  1.00  0.00    -0.315 OA 
BRANCH   4   6
HETATM    6  C   UNL     1     -11.101   7.415  70.172  1.00  0.00    -0.265 A  
HETATM    7  C   UNL     1     -11.208   6.261  69.388  1.00  0.00    -0.489 A  
HETATM    8  C   UNL     1     -10.812   6.286  68.045  1.00  0.00    -0.409 A  
HETATM    9  C   UNL     1     -10.268   7.442  67.484  1.00  0.00    -0.224 A  
HETATM   10  C   UNL     1     -10.231   8.609  68.249  1.00  0.00    -0.237 A  
HETATM   11  N   UNL     1      -9.983   7.495  66.115  1.00  0.00    -0.434 NA 
HETATM   12  H2  UNL     1     -10.832   7.257  65.600  1.00  0.00     0.000 HD 
HETATM   13  H1  UNL     1      -9.585   8.340  65.704  1.00  0.00     0.000 HD 
HETATM   14  C   UNL     1     -10.621   8.594  69.590  1.00  0.00    -0.219 A  
ENDBRANCH   4   6
ENDBRANCH   3   4
ENDBRANCH   2   3
TORSDOF 3
ENDMDL
MODEL       79
REMARK 921   NORMALIZED FREE ENERGY PREDICTED BY IDOCK:   -3.40 KCAL/MOL
REMARK 922        TOTAL FREE ENERGY PREDICTED BY IDOCK:   -4.31 KCAL/MOL
REMARK 923 INTER-LIGAND FREE ENERGY PREDICTED BY IDOCK:   -4.10 KCAL/MOL
REMARK 924 INTRA-LIGAND FREE ENERGY PREDICTED BY IDOCK:   -0.21 KCAL/MOL
REMARK 927      BINDING AFFINITY PREDICTED BY RF-SCORE:    0.00 PKD
ROOT
HETATM    1  C   UNL     1      -7.396  18.556  67.852  1.00  0.00    -0.247 C  
HETATM    2  C   UNL     1      -8.016  17.554  66.894  1.00  0.00    -0.226 C  
ENDROOT
BRANCH   2   3
HETATM    3  O   UNL     1      -9.357  17.974  66.624  1.00  0.00    -0.275 OA 
BRANCH   3   4
HETATM    4  C   UNL     1     -10.193  17.012  66.162  1.00  0.00    -0.337 C  
HETATM    5  O   UNL     1     -10.553  16.860  65.006  1.00  0.00    -0.700 OA 
BRANCH   4   6
HETATM    6  C   UNL     1     -10.538  16.084  67.269  1.00  0.00    -0.313 A  
HETATM    7  C   UNL     1     -11.043  16.617  68.460  1.00  0.00    -0.301 A  
HETATM    8  C   UNL     1     -11.431  15.764  69.501  1.00  0.00    -0.356 A  
HETATM    9  C   UNL     1     -11.282  14.382  69.384  1.00  0.00    -0.281 A  
HETATM   10  C   UNL     1     -10.846  13.852  68.168  1.00  0.00    -0.262 A  
HETATM   11  N   UNL     1     -11.778  13.531  70.378  1.00  0.00    -0.531 NA 
HETATM   12  H2  UNL     1     -12.769  13.737  70.511  1.00  0.00     0.000 HD 
HETATM   13  H1  UNL     1     -11.669  12.521  70.292  1.00  0.00     0.000 HD 
HETATM   14  C   UNL     1     -10.453  14.694  67.125  1.00  0.00    -0.268 A  
ENDBRANCH   4   6
ENDBRANCH   3   4
ENDBRANCH   2   3
TORSDOF 3
ENDMDL
MODEL       80
REMARK 921   NORMALIZED FREE ENERGY PREDICTED BY IDOCK:   -3.38 KCAL/MOL
REMARK 922        TOTAL FREE ENERGY PREDICTED BY IDOCK:   -4.28 KCAL/MOL
REMARK 923 INTER-LIGAND FREE ENERGY PREDICTED BY IDOCK:   -4.26 KCAL/MOL
REMARK 924 INTRA-LIGAND FREE ENERGY PREDICTED BY IDOCK:   -0.02 KCAL/MOL
REMARK 927      BINDING AFFINITY PREDICTED BY RF-SCORE:    0.00 PKD
ROOT
HETATM    1  C   UNL     1      -9.319  15.692  66.077  1.00  0.00    -0.384 C  
HETATM    2  C   UNL     1     -10.612  15.250  65.414  1.00  0.00    -0.394 C  
ENDROOT
BRANCH   2   3
HETATM    3  O   UNL     1     -11.542  14.909  66.448  1.00  0.00    -0.330 OA 
BRANCH   3   4
HETATM    4  C   UNL     1     -11.117  13.978  67.337  1.00  0.00    -0.303 C  
HETATM    5  O   UNL     1     -10.507  12.954  67.077  1.00  0.00    -0.237 OA 
BRANCH   4   6
HETATM    6  C   UNL     1     -11.418  14.438  68.717  1.00  0.00    -0.319 A  
HETATM    7  C   UNL     1     -12.005  13.537  69.613  1.00  0.00    -0.397 A  
HETATM    8  C   UNL     1     -12.248  13.922  70.937  1.00  0.00    -0.436 A  
HETATM    9  C   UNL     1     -11.948  15.214  71.370  1.00  0.00    -0.350 A  
HETATM   10  C   UNL     1     -11.297  16.084  70.494  1.00  0.00    -0.420 A  
HETATM   11  N   UNL     1     -12.084  15.556  72.720  1.00  0.00    -0.405 NA 
HETATM   12  H2  UNL     1     -11.537  14.897  73.275  1.00  0.00     0.000 HD 
HETATM   13  H1  UNL     1     -11.866  16.500  73.037  1.00  0.00     0.000 HD 
HETATM   14  C   UNL     1     -11.053  15.711  69.170  1.00  0.00    -0.284 A  
ENDBRANCH   4   6
ENDBRANCH   3   4
ENDBRANCH   2   3
TORSDOF 3
ENDMDL
MODEL       81
REMARK 921   NORMALIZED FREE ENERGY PREDICTED BY IDOCK:   -3.38 KCAL/MOL
REMARK 922        TOTAL FREE ENERGY PREDICTED BY IDOCK:   -4.28 KCAL/MOL
REMARK 923 INTER-LIGAND FREE ENERGY PREDICTED BY IDOCK:   -4.17 KCAL/MOL
REMARK 924 INTRA-LIGAND FREE ENERGY PREDICTED BY IDOCK:   -0.11 KCAL/MOL
REMARK 927      BINDING AFFINITY PREDICTED BY RF-SCORE:    0.00 PKD
ROOT
HETATM    1  C   UNL     1     -10.599  18.579  67.239  1.00  0.00    -0.453 C  
HETATM    2  C   UNL     1      -9.726  17.373  67.541  1.00  0.00    -0.266 C  
ENDROOT
BRANCH   2   3
HETATM    3  O   UNL     1     -10.587  16.251  67.761  1.00  0.00    -0.298 OA 
BRANCH   3   4
HETATM    4  C   UNL     1     -10.858  15.964  69.058  1.00  0.00    -0.266 C  
HETATM    5  O   UNL     1     -10.908  16.760  69.980  1.00  0.00    -0.282 OA 
BRANCH   4   6
HETATM    6  C   UNL     1     -11.195  14.522  69.185  1.00  0.00    -0.294 A  
HETATM    7  C   UNL     1     -11.844  14.084  70.345  1.00  0.00    -0.356 A  
HETATM    8  C   UNL     1     -12.226  12.743  70.471  1.00  0.00    -0.389 A  
HETATM    9  C   UNL     1     -11.930  11.820  69.467  1.00  0.00    -0.300 A  
HETATM   10  C   UNL     1     -11.348  12.276  68.283  1.00  0.00    -0.339 A  
HETATM   11  N   UNL     1     -12.416  10.510  69.546  1.00  0.00    -0.655 NA 
HETATM   12  H2  UNL     1     -13.429  10.549  69.657  1.00  0.00     0.000 HD 
HETATM   13  H1  UNL     1     -12.199   9.835  68.813  1.00  0.00     0.000 HD 
HETATM   14  C   UNL     1     -10.960  13.611  68.149  1.00  0.00    -0.273 A  
ENDBRANCH   4   6
ENDBRANCH   3   4
ENDBRANCH   2   3
TORSDOF 3
ENDMDL
MODEL       82
REMARK 921   NORMALIZED FREE ENERGY PREDICTED BY IDOCK:   -3.37 KCAL/MOL
REMARK 922        TOTAL FREE ENERGY PREDICTED BY IDOCK:   -4.27 KCAL/MOL
REMARK 923 INTER-LIGAND FREE ENERGY PREDICTED BY IDOCK:   -3.96 KCAL/MOL
REMARK 924 INTRA-LIGAND FREE ENERGY PREDICTED BY IDOCK:   -0.31 KCAL/MOL
REMARK 927      BINDING AFFINITY PREDICTED BY RF-SCORE:    0.00 PKD
ROOT
HETATM    1  C   UNL     1     -12.004   6.645  70.595  1.00  0.00    -0.404 C  
HETATM    2  C   UNL     1     -12.206   7.317  71.942  1.00  0.00    -0.313 C  
ENDROOT
BRANCH   2   3
HETATM    3  O   UNL     1     -11.480   8.551  71.931  1.00  0.00    -0.290 OA 
BRANCH   3   4
HETATM    4  C   UNL     1     -12.198   9.652  71.597  1.00  0.00    -0.402 C  
HETATM    5  O   UNL     1     -13.208  10.053  72.152  1.00  0.00    -0.442 OA 
BRANCH   4   6
HETATM    6  C   UNL     1     -11.510  10.376  70.498  1.00  0.00    -0.431 A  
HETATM    7  C   UNL     1     -10.272   9.902  70.052  1.00  0.00    -0.319 A  
HETATM    8  C   UNL     1      -9.625  10.528  68.980  1.00  0.00    -0.213 A  
HETATM    9  C   UNL     1     -10.182  11.654  68.370  1.00  0.00    -0.207 A  
HETATM   10  C   UNL     1     -11.450  12.078  68.771  1.00  0.00    -0.355 A  
HETATM   11  N   UNL     1      -9.590  12.203  67.227  1.00  0.00    -0.183 NA 
HETATM   12  H2  UNL     1      -9.504  11.468  66.525  1.00  0.00     0.000 HD 
HETATM   13  H1  UNL     1      -9.997  13.026  66.782  1.00  0.00     0.000 HD 
HETATM   14  C   UNL     1     -12.102  11.463  69.842  1.00  0.00    -0.404 A  
ENDBRANCH   4   6
ENDBRANCH   3   4
ENDBRANCH   2   3
TORSDOF 3
ENDMDL
MODEL       83
REMARK 921   NORMALIZED FREE ENERGY PREDICTED BY IDOCK:   -3.35 KCAL/MOL
REMARK 922        TOTAL FREE ENERGY PREDICTED BY IDOCK:   -4.24 KCAL/MOL
REMARK 923 INTER-LIGAND FREE ENERGY PREDICTED BY IDOCK:   -3.99 KCAL/MOL
REMARK 924 INTRA-LIGAND FREE ENERGY PREDICTED BY IDOCK:   -0.25 KCAL/MOL
REMARK 927      BINDING AFFINITY PREDICTED BY RF-SCORE:    0.00 PKD
ROOT
HETATM    1  C   UNL     1      -9.970  14.694  68.829  1.00  0.00    -0.235 C  
HETATM    2  C   UNL     1     -11.056  14.290  67.848  1.00  0.00    -0.278 C  
ENDROOT
BRANCH   2   3
HETATM    3  O   UNL     1     -11.933  13.375  68.514  1.00  0.00    -0.348 OA 
BRANCH   3   4
HETATM    4  C   UNL     1     -11.889  12.093  68.074  1.00  0.00    -0.285 C  
HETATM    5  O   UNL     1     -11.744  11.729  66.919  1.00  0.00    -0.557 OA 
BRANCH   4   6
HETATM    6  C   UNL     1     -11.942  11.170  69.237  1.00  0.00    -0.421 A  
HETATM    7  C   UNL     1     -11.349   9.907  69.119  1.00  0.00    -0.088 A  
HETATM    8  C   UNL     1     -11.332   9.036  70.215  1.00  0.00    -0.202 A  
HETATM    9  C   UNL     1     -11.938   9.393  71.420  1.00  0.00    -0.371 A  
HETATM   10  C   UNL     1     -12.464  10.679  71.554  1.00  0.00    -0.471 A  
HETATM   11  N   UNL     1     -11.816   8.568  72.544  1.00  0.00    -0.368 NA 
HETATM   12  H2  UNL     1     -10.823   8.409  72.719  1.00  0.00     0.000 HD 
HETATM   13  H1  UNL     1     -12.259   8.829  73.424  1.00  0.00     0.000 HD 
HETATM   14  C   UNL     1     -12.489  11.555  70.466  1.00  0.00    -0.367 A  
ENDBRANCH   4   6
ENDBRANCH   3   4
ENDBRANCH   2   3
TORSDOF 3
ENDMDL
MODEL       84
REMARK 921   NORMALIZED FREE ENERGY PREDICTED BY IDOCK:   -3.34 KCAL/MOL
REMARK 922        TOTAL FREE ENERGY PREDICTED BY IDOCK:   -4.24 KCAL/MOL
REMARK 923 INTER-LIGAND FREE ENERGY PREDICTED BY IDOCK:   -4.02 KCAL/MOL
REMARK 924 INTRA-LIGAND FREE ENERGY PREDICTED BY IDOCK:   -0.22 KCAL/MOL
REMARK 927      BINDING AFFINITY PREDICTED BY RF-SCORE:    0.00 PKD
ROOT
HETATM    1  C   UNL     1     -10.106  19.958  66.074  1.00  0.00    -0.589 C  
HETATM    2  C   UNL     1      -9.691  19.326  67.391  1.00  0.00    -0.323 C  
ENDROOT
BRANCH   2   3
HETATM    3  O   UNL     1      -8.577  18.465  67.135  1.00  0.00    -0.253 OA 
BRANCH   3   4
HETATM    4  C   UNL     1      -8.544  17.317  67.854  1.00  0.00    -0.223 C  
HETATM    5  O   UNL     1      -7.807  17.072  68.795  1.00  0.00    -0.243 OA 
BRANCH   4   6
HETATM    6  C   UNL     1      -9.627  16.412  67.390  1.00  0.00    -0.231 A  
HETATM    7  C   UNL     1      -9.722  16.123  66.024  1.00  0.00    -0.376 A  
HETATM    8  C   UNL     1     -10.696  15.229  65.562  1.00  0.00    -0.385 A  
HETATM    9  C   UNL     1     -11.607  14.648  66.445  1.00  0.00    -0.339 A  
HETATM   10  C   UNL     1     -11.462  14.883  67.814  1.00  0.00    -0.353 A  
HETATM   11  N   UNL     1     -12.500  13.669  65.996  1.00  0.00    -0.444 NA 
HETATM   12  H2  UNL     1     -11.962  12.923  65.553  1.00  0.00     0.000 HD 
HETATM   13  H1  UNL     1     -13.166  13.245  66.641  1.00  0.00     0.000 HD 
HETATM   14  C   UNL     1     -10.496  15.776  68.284  1.00  0.00    -0.259 A  
ENDBRANCH   4   6
ENDBRANCH   3   4
ENDBRANCH   2   3
TORSDOF 3
ENDMDL
MODEL       85
REMARK 921   NORMALIZED FREE ENERGY PREDICTED BY IDOCK:   -3.34 KCAL/MOL
REMARK 922        TOTAL FREE ENERGY PREDICTED BY IDOCK:   -4.24 KCAL/MOL
REMARK 923 INTER-LIGAND FREE ENERGY PREDICTED BY IDOCK:   -4.07 KCAL/MOL
REMARK 924 INTRA-LIGAND FREE ENERGY PREDICTED BY IDOCK:   -0.17 KCAL/MOL
REMARK 927      BINDING AFFINITY PREDICTED BY RF-SCORE:    0.00 PKD
ROOT
HETATM    1  C   UNL     1     -11.470  11.458  69.487  1.00  0.00    -0.381 C  
HETATM    2  C   UNL     1     -10.973  12.443  68.443  1.00  0.00    -0.241 C  
ENDROOT
BRANCH   2   3
HETATM    3  O   UNL     1     -12.002  13.415  68.231  1.00  0.00    -0.345 OA 
BRANCH   3   4
HETATM    4  C   UNL     1     -11.998  14.019  67.017  1.00  0.00    -0.438 C  
HETATM    5  O   UNL     1     -12.613  13.659  66.027  1.00  0.00    -0.441 OA 
BRANCH   4   6
HETATM    6  C   UNL     1     -11.201  15.270  67.090  1.00  0.00    -0.291 A  
HETATM    7  C   UNL     1     -11.273  16.046  68.252  1.00  0.00    -0.350 A  
HETATM    8  C   UNL     1     -10.490  17.200  68.375  1.00  0.00    -0.376 A  
HETATM    9  C   UNL     1      -9.662  17.615  67.330  1.00  0.00    -0.283 A  
HETATM   10  C   UNL     1      -9.540  16.800  66.204  1.00  0.00    -0.302 A  
HETATM   11  N   UNL     1      -8.797  18.701  67.503  1.00  0.00    -0.269 NA 
HETATM   12  H2  UNL     1      -8.215  18.521  68.322  1.00  0.00     0.000 HD 
HETATM   13  H1  UNL     1      -8.193  19.005  66.740  1.00  0.00     0.000 HD 
HETATM   14  C   UNL     1     -10.319  15.648  66.070  1.00  0.00    -0.351 A  
ENDBRANCH   4   6
ENDBRANCH   3   4
ENDBRANCH   2   3
TORSDOF 3
ENDMDL
MODEL       86
REMARK 921   NORMALIZED FREE ENERGY PREDICTED BY IDOCK:   -3.33 KCAL/MOL
REMARK 922        TOTAL FREE ENERGY PREDICTED BY IDOCK:   -4.22 KCAL/MOL
REMARK 923 INTER-LIGAND FREE ENERGY PREDICTED BY IDOCK:   -3.96 KCAL/MOL
REMARK 924 INTRA-LIGAND FREE ENERGY PREDICTED BY IDOCK:   -0.26 KCAL/MOL
REMARK 927      BINDING AFFINITY PREDICTED BY RF-SCORE:    0.00 PKD
ROOT
HETATM    1  C   UNL     1     -12.394  12.128  63.460  1.00  0.00    -0.682 C  
HETATM    2  C   UNL     1     -11.024  11.478  63.554  1.00  0.00    -0.373 C  
ENDROOT
BRANCH   2   3
HETATM    3  O   UNL     1     -10.133  12.418  64.164  1.00  0.00    -0.330 OA 
BRANCH   3   4
HETATM    4  C   UNL     1     -10.286  12.591  65.500  1.00  0.00    -0.275 C  
HETATM    5  O   UNL     1     -10.538  11.722  66.318  1.00  0.00    -0.236 OA 
BRANCH   4   6
HETATM    6  C   UNL     1      -9.996  14.005  65.852  1.00  0.00    -0.325 A  
HETATM    7  C   UNL     1     -10.858  15.003  65.384  1.00  0.00    -0.376 A  
HETATM    8  C   UNL     1     -10.645  16.339  65.746  1.00  0.00    -0.336 A  
HETATM    9  C   UNL     1      -9.553  16.698  66.538  1.00  0.00    -0.273 A  
HETATM   10  C   UNL     1      -8.739  15.691  67.060  1.00  0.00    -0.256 A  
HETATM   11  N   UNL     1      -9.412  18.015  66.991  1.00  0.00    -0.266 NA 
HETATM   12  H2  UNL     1     -10.266  18.278  67.484  1.00  0.00     0.000 HD 
HETATM   13  H1  UNL     1      -8.614  18.277  67.569  1.00  0.00     0.000 HD 
HETATM   14  C   UNL     1      -8.941  14.356  66.702  1.00  0.00    -0.232 A  
ENDBRANCH   4   6
ENDBRANCH   3   4
ENDBRANCH   2   3
TORSDOF 3
ENDMDL
MODEL       87
REMARK 921   NORMALIZED FREE ENERGY PREDICTED BY IDOCK:   -3.32 KCAL/MOL
REMARK 922        TOTAL FREE ENERGY PREDICTED BY IDOCK:   -4.21 KCAL/MOL
REMARK 923 INTER-LIGAND FREE ENERGY PREDICTED BY IDOCK:   -4.05 KCAL/MOL
REMARK 924 INTRA-LIGAND FREE ENERGY PREDICTED BY IDOCK:   -0.15 KCAL/MOL
REMARK 927      BINDING AFFINITY PREDICTED BY RF-SCORE:    0.00 PKD
ROOT
HETATM    1  C   UNL     1     -12.283  14.160  64.057  1.00  0.00    -0.369 C  
HETATM    2  C   UNL     1     -12.715  13.023  64.967  1.00  0.00    -0.410 C  
ENDROOT
BRANCH   2   3
HETATM    3  O   UNL     1     -12.118  13.235  66.251  1.00  0.00    -0.407 OA 
BRANCH   3   4
HETATM    4  C   UNL     1     -11.072  12.428  66.553  1.00  0.00    -0.301 C  
HETATM    5  O   UNL     1     -10.033  12.321  65.922  1.00  0.00    -0.246 OA 
BRANCH   4   6
HETATM    6  C   UNL     1     -11.330  11.749  67.850  1.00  0.00    -0.362 A  
HETATM    7  C   UNL     1     -11.026  10.388  67.967  1.00  0.00    -0.347 A  
HETATM    8  C   UNL     1     -11.204   9.733  69.192  1.00  0.00    -0.101 A  
HETATM    9  C   UNL     1     -11.723  10.412  70.295  1.00  0.00    -0.321 A  
HETATM   10  C   UNL     1     -11.956  11.785  70.193  1.00  0.00    -0.421 A  
HETATM   11  N   UNL     1     -11.789   9.785  71.544  1.00  0.00    -0.399 NA 
HETATM   12  H2  UNL     1     -10.855   9.449  71.784  1.00  0.00     0.000 HD 
HETATM   13  H1  UNL     1     -12.168  10.281  72.350  1.00  0.00     0.000 HD 
HETATM   14  C   UNL     1     -11.785  12.447  68.975  1.00  0.00    -0.372 A  
ENDBRANCH   4   6
ENDBRANCH   3   4
ENDBRANCH   2   3
TORSDOF 3
ENDMDL
MODEL       88
REMARK 921   NORMALIZED FREE ENERGY PREDICTED BY IDOCK:   -3.31 KCAL/MOL
REMARK 922        TOTAL FREE ENERGY PREDICTED BY IDOCK:   -4.20 KCAL/MOL
REMARK 923 INTER-LIGAND FREE ENERGY PREDICTED BY IDOCK:   -4.39 KCAL/MOL
REMARK 924 INTRA-LIGAND FREE ENERGY PREDICTED BY IDOCK:    0.18 KCAL/MOL
REMARK 927      BINDING AFFINITY PREDICTED BY RF-SCORE:    0.00 PKD
ROOT
HETATM    1  C   UNL     1      -8.389  15.843  69.071  1.00  0.00    -0.239 C  
HETATM    2  C   UNL     1      -8.154  14.508  68.385  1.00  0.00    -0.143 C  
ENDROOT
BRANCH   2   3
HETATM    3  O   UNL     1      -9.288  13.674  68.645  1.00  0.00    -0.164 OA 
BRANCH   3   4
HETATM    4  C   UNL     1     -10.498  14.262  68.488  1.00  0.00    -0.253 C  
HETATM    5  O   UNL     1     -11.098  14.918  69.323  1.00  0.00    -0.247 OA 
BRANCH   4   6
HETATM    6  C   UNL     1     -10.960  14.078  67.087  1.00  0.00    -0.303 A  
HETATM    7  C   UNL     1     -11.418  12.817  66.692  1.00  0.00    -0.404 A  
HETATM    8  C   UNL     1     -11.914  12.625  65.396  1.00  0.00    -0.496 A  
HETATM    9  C   UNL     1     -11.918  13.671  64.473  1.00  0.00    -0.418 A  
HETATM   10  C   UNL     1     -11.528  14.943  64.894  1.00  0.00    -0.407 A  
HETATM   11  N   UNL     1     -12.520  13.505  63.220  1.00  0.00    -0.983 NA 
HETATM   12  H2  UNL     1     -13.484  13.200  63.365  1.00  0.00     0.000 HD 
HETATM   13  H1  UNL     1     -12.524  14.269  62.545  1.00  0.00     0.000 HD 
HETATM   14  C   UNL     1     -11.029  15.144  66.183  1.00  0.00    -0.331 A  
ENDBRANCH   4   6
ENDBRANCH   3   4
ENDBRANCH   2   3
TORSDOF 3
ENDMDL
MODEL       89
REMARK 921   NORMALIZED FREE ENERGY PREDICTED BY IDOCK:   -3.30 KCAL/MOL
REMARK 922        TOTAL FREE ENERGY PREDICTED BY IDOCK:   -4.19 KCAL/MOL
REMARK 923 INTER-LIGAND FREE ENERGY PREDICTED BY IDOCK:   -4.01 KCAL/MOL
REMARK 924 INTRA-LIGAND FREE ENERGY PREDICTED BY IDOCK:   -0.18 KCAL/MOL
REMARK 927      BINDING AFFINITY PREDICTED BY RF-SCORE:    0.00 PKD
ROOT
HETATM    1  C   UNL     1     -10.984   6.131  67.148  1.00  0.00    -0.420 C  
HETATM    2  C   UNL     1     -10.014   7.282  67.353  1.00  0.00    -0.174 C  
ENDROOT
BRANCH   2   3
HETATM    3  O   UNL     1     -10.780   8.481  67.510  1.00  0.00    -0.248 OA 
BRANCH   3   4
HETATM    4  C   UNL     1     -10.575   9.163  68.663  1.00  0.00    -0.174 C  
HETATM    5  O   UNL     1     -10.009   8.746  69.660  1.00  0.00    -0.182 OA 
BRANCH   4   6
HETATM    6  C   UNL     1     -11.057  10.559  68.504  1.00  0.00    -0.329 A  
HETATM    7  C   UNL     1     -11.421  11.279  69.647  1.00  0.00    -0.380 A  
HETATM    8  C   UNL     1     -11.825  12.615  69.537  1.00  0.00    -0.376 A  
HETATM    9  C   UNL     1     -11.909  13.233  68.289  1.00  0.00    -0.354 A  
HETATM   10  C   UNL     1     -11.476  12.535  67.160  1.00  0.00    -0.414 A  
HETATM   11  N   UNL     1     -12.200  14.599  68.196  1.00  0.00    -0.596 NA 
HETATM   12  H2  UNL     1     -11.523  15.111  68.762  1.00  0.00     0.000 HD 
HETATM   13  H1  UNL     1     -12.262  15.051  67.283  1.00  0.00     0.000 HD 
HETATM   14  C   UNL     1     -11.075  11.201  67.259  1.00  0.00    -0.366 A  
ENDBRANCH   4   6
ENDBRANCH   3   4
ENDBRANCH   2   3
TORSDOF 3
ENDMDL
MODEL       90
REMARK 921   NORMALIZED FREE ENERGY PREDICTED BY IDOCK:   -3.30 KCAL/MOL
REMARK 922        TOTAL FREE ENERGY PREDICTED BY IDOCK:   -4.19 KCAL/MOL
REMARK 923 INTER-LIGAND FREE ENERGY PREDICTED BY IDOCK:   -3.98 KCAL/MOL
REMARK 924 INTRA-LIGAND FREE ENERGY PREDICTED BY IDOCK:   -0.20 KCAL/MOL
REMARK 927      BINDING AFFINITY PREDICTED BY RF-SCORE:    0.00 PKD
ROOT
HETATM    1  C   UNL     1     -13.987   8.873  71.927  1.00  0.00    -0.476 C  
HETATM    2  C   UNL     1     -12.472   8.816  72.024  1.00  0.00    -0.386 C  
ENDROOT
BRANCH   2   3
HETATM    3  O   UNL     1     -11.946   9.987  71.391  1.00  0.00    -0.365 OA 
BRANCH   3   4
HETATM    4  C   UNL     1     -10.802   9.809  70.686  1.00  0.00    -0.329 C  
HETATM    5  O   UNL     1      -9.842   9.133  71.021  1.00  0.00    -0.253 OA 
BRANCH   4   6
HETATM    6  C   UNL     1     -10.921  10.486  69.369  1.00  0.00    -0.297 A  
HETATM    7  C   UNL     1     -11.678  11.660  69.284  1.00  0.00    -0.396 A  
HETATM    8  C   UNL     1     -11.764  12.353  68.070  1.00  0.00    -0.414 A  
HETATM    9  C   UNL     1     -11.134  11.864  66.924  1.00  0.00    -0.305 A  
HETATM   10  C   UNL     1     -10.322  10.734  67.032  1.00  0.00    -0.275 A  
HETATM   11  N   UNL     1     -11.126  12.620  65.746  1.00  0.00    -0.288 NA 
HETATM   12  H2  UNL     1     -10.738  13.540  65.957  1.00  0.00     0.000 HD 
HETATM   13  H1  UNL     1     -10.666  12.263  64.909  1.00  0.00     0.000 HD 
HETATM   14  C   UNL     1     -10.233  10.033  68.237  1.00  0.00    -0.200 A  
ENDBRANCH   4   6
ENDBRANCH   3   4
ENDBRANCH   2   3
TORSDOF 3
ENDMDL
MODEL       91
REMARK 921   NORMALIZED FREE ENERGY PREDICTED BY IDOCK:   -3.30 KCAL/MOL
REMARK 922        TOTAL FREE ENERGY PREDICTED BY IDOCK:   -4.19 KCAL/MOL
REMARK 923 INTER-LIGAND FREE ENERGY PREDICTED BY IDOCK:   -4.02 KCAL/MOL
REMARK 924 INTRA-LIGAND FREE ENERGY PREDICTED BY IDOCK:   -0.17 KCAL/MOL
REMARK 927      BINDING AFFINITY PREDICTED BY RF-SCORE:    0.00 PKD
ROOT
HETATM    1  C   UNL     1     -12.275  13.573  70.406  1.00  0.00    -0.426 C  
HETATM    2  C   UNL     1     -11.764  12.476  69.489  1.00  0.00    -0.309 C  
ENDROOT
BRANCH   2   3
HETATM    3  O   UNL     1     -11.725  11.257  70.239  1.00  0.00    -0.316 OA 
BRANCH   3   4
HETATM    4  C   UNL     1     -10.692  10.426  69.956  1.00  0.00    -0.265 C  
HETATM    5  O   UNL     1      -9.946  10.500  68.994  1.00  0.00    -0.193 OA 
BRANCH   4   6
HETATM    6  C   UNL     1     -10.527   9.448  71.062  1.00  0.00    -0.392 A  
HETATM    7  C   UNL     1      -9.238   9.008  71.383  1.00  0.00    -0.293 A  
HETATM    8  C   UNL     1      -9.043   8.130  72.457  1.00  0.00    -0.302 A  
HETATM    9  C   UNL     1     -10.129   7.651  73.192  1.00  0.00    -0.323 A  
HETATM   10  C   UNL     1     -11.403   8.149  72.913  1.00  0.00    -0.301 A  
HETATM   11  N   UNL     1      -9.918   6.869  74.333  1.00  0.00    -0.461 NA 
HETATM   12  H2  UNL     1      -9.304   7.383  74.966  1.00  0.00     0.000 HD 
HETATM   13  H1  UNL     1     -10.711   6.518  74.870  1.00  0.00     0.000 HD 
HETATM   14  C   UNL     1     -11.608   9.021  71.842  1.00  0.00    -0.441 A  
ENDBRANCH   4   6
ENDBRANCH   3   4
ENDBRANCH   2   3
TORSDOF 3
ENDMDL
MODEL       92
REMARK 921   NORMALIZED FREE ENERGY PREDICTED BY IDOCK:   -3.29 KCAL/MOL
REMARK 922        TOTAL FREE ENERGY PREDICTED BY IDOCK:   -4.17 KCAL/MOL
REMARK 923 INTER-LIGAND FREE ENERGY PREDICTED BY IDOCK:   -3.97 KCAL/MOL
REMARK 924 INTRA-LIGAND FREE ENERGY PREDICTED BY IDOCK:   -0.21 KCAL/MOL
REMARK 927      BINDING AFFINITY PREDICTED BY RF-SCORE:    0.00 PKD
ROOT
HETATM    1  C   UNL     1     -11.402  12.454  67.119  1.00  0.00    -0.390 C  
HETATM    2  C   UNL     1     -12.186  13.566  66.444  1.00  0.00    -0.400 C  
ENDROOT
BRANCH   2   3
HETATM    3  O   UNL     1     -11.542  14.807  66.750  1.00  0.00    -0.364 OA 
BRANCH   3   4
HETATM    4  C   UNL     1     -10.679  15.269  65.813  1.00  0.00    -0.348 C  
HETATM    5  O   UNL     1     -10.622  14.918  64.646  1.00  0.00    -0.360 OA 
BRANCH   4   6
HETATM    6  C   UNL     1      -9.858  16.364  66.392  1.00  0.00    -0.312 A  
HETATM    7  C   UNL     1     -10.498  17.360  67.138  1.00  0.00    -0.305 A  
HETATM    8  C   UNL     1      -9.746  18.373  67.745  1.00  0.00    -0.316 A  
HETATM    9  C   UNL     1      -8.361  18.429  67.582  1.00  0.00    -0.251 A  
HETATM   10  C   UNL     1      -7.721  17.393  66.898  1.00  0.00    -0.249 A  
HETATM   11  N   UNL     1      -7.604  19.373  68.284  1.00  0.00    -0.298 NA 
HETATM   12  H2  UNL     1      -7.806  19.270  69.279  1.00  0.00     0.000 HD 
HETATM   13  H1  UNL     1      -6.592  19.414  68.165  1.00  0.00     0.000 HD 
HETATM   14  C   UNL     1      -8.462  16.380  66.286  1.00  0.00    -0.372 A  
ENDBRANCH   4   6
ENDBRANCH   3   4
ENDBRANCH   2   3
TORSDOF 3
ENDMDL
MODEL       93
REMARK 921   NORMALIZED FREE ENERGY PREDICTED BY IDOCK:   -3.28 KCAL/MOL
REMARK 922        TOTAL FREE ENERGY PREDICTED BY IDOCK:   -4.16 KCAL/MOL
REMARK 923 INTER-LIGAND FREE ENERGY PREDICTED BY IDOCK:   -4.04 KCAL/MOL
REMARK 924 INTRA-LIGAND FREE ENERGY PREDICTED BY IDOCK:   -0.12 KCAL/MOL
REMARK 927      BINDING AFFINITY PREDICTED BY RF-SCORE:    0.00 PKD
ROOT
HETATM    1  C   UNL     1     -10.657  11.583  64.615  1.00  0.00    -0.369 C  
HETATM    2  C   UNL     1     -10.873  11.554  66.118  1.00  0.00    -0.278 C  
ENDROOT
BRANCH   2   3
HETATM    3  O   UNL     1     -11.557  12.755  66.488  1.00  0.00    -0.335 OA 
BRANCH   3   4
HETATM    4  C   UNL     1     -10.789  13.718  67.054  1.00  0.00    -0.284 C  
HETATM    5  O   UNL     1      -9.807  14.245  66.559  1.00  0.00    -0.268 OA 
BRANCH   4   6
HETATM    6  C   UNL     1     -11.384  14.125  68.353  1.00  0.00    -0.315 A  
HETATM    7  C   UNL     1     -11.720  13.131  69.279  1.00  0.00    -0.376 A  
HETATM    8  C   UNL     1     -12.229  13.484  70.535  1.00  0.00    -0.433 A  
HETATM    9  C   UNL     1     -12.448  14.823  70.864  1.00  0.00    -0.328 A  
HETATM   10  C   UNL     1     -12.044  15.812  69.966  1.00  0.00    -0.344 A  
HETATM   11  N   UNL     1     -12.845  15.175  72.159  1.00  0.00    -0.321 NA 
HETATM   12  H2  UNL     1     -12.170  14.789  72.819  1.00  0.00     0.000 HD 
HETATM   13  H1  UNL     1     -13.006  16.153  72.399  1.00  0.00     0.000 HD 
HETATM   14  C   UNL     1     -11.539  15.470  68.709  1.00  0.00    -0.390 A  
ENDBRANCH   4   6
ENDBRANCH   3   4
ENDBRANCH   2   3
TORSDOF 3
ENDMDL
MODEL       94
REMARK 921   NORMALIZED FREE ENERGY PREDICTED BY IDOCK:   -3.23 KCAL/MOL
REMARK 922        TOTAL FREE ENERGY PREDICTED BY IDOCK:   -4.11 KCAL/MOL
REMARK 923 INTER-LIGAND FREE ENERGY PREDICTED BY IDOCK:   -3.80 KCAL/MOL
REMARK 924 INTRA-LIGAND FREE ENERGY PREDICTED BY IDOCK:   -0.31 KCAL/MOL
REMARK 927      BINDING AFFINITY PREDICTED BY RF-SCORE:    0.00 PKD
ROOT
HETATM    1  C   UNL     1     -11.957  14.398  64.494  1.00  0.00    -0.487 C  
HETATM    2  C   UNL     1     -12.583  13.328  65.371  1.00  0.00    -0.468 C  
ENDROOT
BRANCH   2   3
HETATM    3  O   UNL     1     -12.092  13.507  66.704  1.00  0.00    -0.399 OA 
BRANCH   3   4
HETATM    4  C   UNL     1     -11.610  12.394  67.307  1.00  0.00    -0.365 C  
HETATM    5  O   UNL     1     -12.268  11.467  67.751  1.00  0.00    -0.560 OA 
BRANCH   4   6
HETATM    6  C   UNL     1     -10.125  12.410  67.261  1.00  0.00    -0.214 A  
HETATM    7  C   UNL     1      -9.449  11.228  66.939  1.00  0.00    -0.193 A  
HETATM    8  C   UNL     1      -8.053  11.224  66.830  1.00  0.00    -0.155 A  
HETATM    9  C   UNL     1      -7.316  12.382  67.082  1.00  0.00    -0.081 A  
HETATM   10  C   UNL     1      -7.998  13.574  67.332  1.00  0.00    -0.165 A  
HETATM   11  N   UNL     1      -5.934  12.401  66.859  1.00  0.00    -0.484 NA 
HETATM   12  H2  UNL     1      -5.760  12.113  65.896  1.00  0.00     0.000 HD 
HETATM   13  H1  UNL     1      -5.395  13.247  67.043  1.00  0.00     0.000 HD 
HETATM   14  C   UNL     1      -9.390  13.588  67.445  1.00  0.00    -0.228 A  
ENDBRANCH   4   6
ENDBRANCH   3   4
ENDBRANCH   2   3
TORSDOF 3
ENDMDL
MODEL       95
REMARK 921   NORMALIZED FREE ENERGY PREDICTED BY IDOCK:   -3.20 KCAL/MOL
REMARK 922        TOTAL FREE ENERGY PREDICTED BY IDOCK:   -4.07 KCAL/MOL
REMARK 923 INTER-LIGAND FREE ENERGY PREDICTED BY IDOCK:   -3.85 KCAL/MOL
REMARK 924 INTRA-LIGAND FREE ENERGY PREDICTED BY IDOCK:   -0.22 KCAL/MOL
REMARK 927      BINDING AFFINITY PREDICTED BY RF-SCORE:    0.00 PKD
ROOT
HETATM    1  C   UNL     1      -8.913   7.405  73.783  1.00  0.00    -0.275 C  
HETATM    2  C   UNL     1     -10.395   7.255  73.489  1.00  0.00    -0.366 C  
ENDROOT
BRANCH   2   3
HETATM    3  O   UNL     1     -10.787   8.338  72.639  1.00  0.00    -0.345 OA 
BRANCH   3   4
HETATM    4  C   UNL     1     -11.852   8.099  71.836  1.00  0.00    -0.317 C  
HETATM    5  O   UNL     1     -13.028   8.182  72.148  1.00  0.00    -0.312 OA 
BRANCH   4   6
HETATM    6  C   UNL     1     -11.377   7.812  70.457  1.00  0.00    -0.253 A  
HETATM    7  C   UNL     1     -11.518   6.513  69.955  1.00  0.00    -0.476 A  
HETATM    8  C   UNL     1     -11.133   6.224  68.640  1.00  0.00    -0.409 A  
HETATM    9  C   UNL     1     -10.568   7.209  67.830  1.00  0.00    -0.225 A  
HETATM   10  C   UNL     1     -10.497   8.518  68.311  1.00  0.00    -0.222 A  
HETATM   11  N   UNL     1     -10.294   6.944  66.483  1.00  0.00    -0.478 NA 
HETATM   12  H2  UNL     1     -11.153   6.617  66.039  1.00  0.00     0.000 HD 
HETATM   13  H1  UNL     1      -9.881   7.664  65.891  1.00  0.00     0.000 HD 
HETATM   14  C   UNL     1     -10.875   8.816  69.622  1.00  0.00    -0.175 A  
ENDBRANCH   4   6
ENDBRANCH   3   4
ENDBRANCH   2   3
TORSDOF 3
ENDMDL
MODEL       96
REMARK 921   NORMALIZED FREE ENERGY PREDICTED BY IDOCK:   -3.18 KCAL/MOL
REMARK 922        TOTAL FREE ENERGY PREDICTED BY IDOCK:   -4.05 KCAL/MOL
REMARK 923 INTER-LIGAND FREE ENERGY PREDICTED BY IDOCK:   -3.72 KCAL/MOL
REMARK 924 INTRA-LIGAND FREE ENERGY PREDICTED BY IDOCK:   -0.33 KCAL/MOL
REMARK 927      BINDING AFFINITY PREDICTED BY RF-SCORE:    0.00 PKD
ROOT
HETATM    1  C   UNL     1     -10.606  19.535  65.975  1.00  0.00    -0.589 C  
HETATM    2  C   UNL     1      -9.493  20.231  66.738  1.00  0.00    -0.384 C  
ENDROOT
BRANCH   2   3
HETATM    3  O   UNL     1      -9.545  19.783  68.097  1.00  0.00    -0.355 OA 
BRANCH   3   4
HETATM    4  C   UNL     1      -8.397  19.251  68.584  1.00  0.00    -0.372 C  
HETATM    5  O   UNL     1      -7.575  19.820  69.284  1.00  0.00    -0.297 OA 
BRANCH   4   6
HETATM    6  C   UNL     1      -8.326  17.812  68.223  1.00  0.00    -0.276 A  
HETATM    7  C   UNL     1      -9.394  16.978  68.575  1.00  0.00    -0.265 A  
HETATM    8  C   UNL     1      -9.384  15.629  68.199  1.00  0.00    -0.194 A  
HETATM    9  C   UNL     1      -8.297  15.089  67.509  1.00  0.00    -0.176 A  
HETATM   10  C   UNL     1      -7.270  15.940  67.098  1.00  0.00    -0.254 A  
HETATM   11  N   UNL     1      -8.344  13.773  67.035  1.00  0.00    -0.379 NA 
HETATM   12  H2  UNL     1      -9.177  13.671  66.453  1.00  0.00     0.000 HD 
HETATM   13  H1  UNL     1      -7.550  13.379  66.531  1.00  0.00     0.000 HD 
HETATM   14  C   UNL     1      -7.269  17.287  67.471  1.00  0.00    -0.180 A  
ENDBRANCH   4   6
ENDBRANCH   3   4
ENDBRANCH   2   3
TORSDOF 3
ENDMDL
MODEL       97
REMARK 921   NORMALIZED FREE ENERGY PREDICTED BY IDOCK:   -3.18 KCAL/MOL
REMARK 922        TOTAL FREE ENERGY PREDICTED BY IDOCK:   -4.05 KCAL/MOL
REMARK 923 INTER-LIGAND FREE ENERGY PREDICTED BY IDOCK:   -3.79 KCAL/MOL
REMARK 924 INTRA-LIGAND FREE ENERGY PREDICTED BY IDOCK:   -0.26 KCAL/MOL
REMARK 927      BINDING AFFINITY PREDICTED BY RF-SCORE:    0.00 PKD
ROOT
HETATM    1  C   UNL     1     -10.432  19.329  67.941  1.00  0.00    -0.514 C  
HETATM    2  C   UNL     1     -10.425  19.326  66.422  1.00  0.00    -0.474 C  
ENDROOT
BRANCH   2   3
HETATM    3  O   UNL     1     -10.189  17.984  65.985  1.00  0.00    -0.478 OA 
BRANCH   3   4
HETATM    4  C   UNL     1      -8.939  17.507  66.198  1.00  0.00    -0.124 C  
HETATM    5  O   UNL     1      -7.893  18.061  65.903  1.00  0.00    -0.511 OA 
BRANCH   4   6
HETATM    6  C   UNL     1      -9.018  16.230  66.953  1.00  0.00    -0.242 A  
HETATM    7  C   UNL     1     -10.275  15.655  67.171  1.00  0.00    -0.270 A  
HETATM    8  C   UNL     1     -10.378  14.423  67.829  1.00  0.00    -0.238 A  
HETATM    9  C   UNL     1      -9.241  13.774  68.310  1.00  0.00    -0.204 A  
HETATM   10  C   UNL     1      -7.986  14.315  68.027  1.00  0.00    -0.142 A  
HETATM   11  N   UNL     1      -9.340  12.492  68.862  1.00  0.00    -0.382 NA 
HETATM   12  H2  UNL     1      -9.791  11.883  68.179  1.00  0.00     0.000 HD 
HETATM   13  H1  UNL     1      -8.508  12.017  69.214  1.00  0.00     0.000 HD 
HETATM   14  C   UNL     1      -7.871  15.545  67.375  1.00  0.00    -0.213 A  
ENDBRANCH   4   6
ENDBRANCH   3   4
ENDBRANCH   2   3
TORSDOF 3
ENDMDL
MODEL       98
REMARK 921   NORMALIZED FREE ENERGY PREDICTED BY IDOCK:   -3.17 KCAL/MOL
REMARK 922        TOTAL FREE ENERGY PREDICTED BY IDOCK:   -4.04 KCAL/MOL
REMARK 923 INTER-LIGAND FREE ENERGY PREDICTED BY IDOCK:   -3.81 KCAL/MOL
REMARK 924 INTRA-LIGAND FREE ENERGY PREDICTED BY IDOCK:   -0.23 KCAL/MOL
REMARK 927      BINDING AFFINITY PREDICTED BY RF-SCORE:    0.00 PKD
ROOT
HETATM    1  C   UNL     1     -11.545  15.282  71.780  1.00  0.00    -0.498 C  
HETATM    2  C   UNL     1     -11.642  14.415  70.537  1.00  0.00    -0.209 C  
ENDROOT
BRANCH   2   3
HETATM    3  O   UNL     1     -11.651  15.280  69.396  1.00  0.00    -0.289 OA 
BRANCH   3   4
HETATM    4  C   UNL     1     -10.501  15.320  68.680  1.00  0.00    -0.235 C  
HETATM    5  O   UNL     1      -9.655  14.444  68.620  1.00  0.00    -0.213 OA 
BRANCH   4   6
HETATM    6  C   UNL     1     -10.462  16.569  67.876  1.00  0.00    -0.313 A  
HETATM    7  C   UNL     1     -10.518  16.472  66.481  1.00  0.00    -0.270 A  
HETATM    8  C   UNL     1     -10.541  17.633  65.698  1.00  0.00    -0.137 A  
HETATM    9  C   UNL     1     -10.467  18.894  66.290  1.00  0.00    -0.445 A  
HETATM   10  C   UNL     1     -10.485  18.986  67.683  1.00  0.00    -0.523 A  
HETATM   11  N   UNL     1     -10.608  20.049  65.512  1.00  0.00    -0.344 NA 
HETATM   12  H2  UNL     1     -11.488  19.986  65.000  1.00  0.00     0.000 HD 
HETATM   13  H1  UNL     1     -10.553  20.971  65.945  1.00  0.00     0.000 HD 
HETATM   14  C   UNL     1     -10.458  17.835  68.473  1.00  0.00    -0.332 A  
ENDBRANCH   4   6
ENDBRANCH   3   4
ENDBRANCH   2   3
TORSDOF 3
ENDMDL
MODEL       99
REMARK 921   NORMALIZED FREE ENERGY PREDICTED BY IDOCK:   -3.17 KCAL/MOL
REMARK 922        TOTAL FREE ENERGY PREDICTED BY IDOCK:   -4.03 KCAL/MOL
REMARK 923 INTER-LIGAND FREE ENERGY PREDICTED BY IDOCK:   -3.93 KCAL/MOL
REMARK 924 INTRA-LIGAND FREE ENERGY PREDICTED BY IDOCK:   -0.11 KCAL/MOL
REMARK 927      BINDING AFFINITY PREDICTED BY RF-SCORE:    0.00 PKD
ROOT
HETATM    1  C   UNL     1      -9.461  13.302  66.525  1.00  0.00    -0.251 C  
HETATM    2  C   UNL     1     -10.315  13.130  67.769  1.00  0.00    -0.230 C  
ENDROOT
BRANCH   2   3
HETATM    3  O   UNL     1      -9.996  14.194  68.673  1.00  0.00    -0.232 OA 
BRANCH   3   4
HETATM    4  C   UNL     1     -10.804  15.280  68.610  1.00  0.00    -0.253 C  
HETATM    5  O   UNL     1     -10.941  16.026  67.654  1.00  0.00    -0.325 OA 
BRANCH   4   6
HETATM    6  C   UNL     1     -11.596  15.380  69.863  1.00  0.00    -0.342 A  
HETATM    7  C   UNL     1     -12.907  14.892  69.869  1.00  0.00    -0.035 A  
HETATM    8  C   UNL     1     -13.660  14.919  71.049  1.00  0.00    -0.402 A  
HETATM    9  C   UNL     1     -13.133  15.469  72.219  1.00  0.00    -0.430 A  
HETATM   10  C   UNL     1     -11.802  15.889  72.225  1.00  0.00    -0.617 A  
HETATM   11  N   UNL     1     -13.846  15.388  73.421  1.00  0.00    -0.527 NA 
HETATM   12  H2  UNL     1     -14.066  14.408  73.598  1.00  0.00     0.000 HD 
HETATM   13  H1  UNL     1     -13.461  15.791  74.275  1.00  0.00     0.000 HD 
HETATM   14  C   UNL     1     -11.043  15.869  71.052  1.00  0.00    -0.283 A  
ENDBRANCH   4   6
ENDBRANCH   3   4
ENDBRANCH   2   3
TORSDOF 3
ENDMDL
MODEL      100
REMARK 921   NORMALIZED FREE ENERGY PREDICTED BY IDOCK:   -3.17 KCAL/MOL
REMARK 922        TOTAL FREE ENERGY PREDICTED BY IDOCK:   -4.03 KCAL/MOL
REMARK 923 INTER-LIGAND FREE ENERGY PREDICTED BY IDOCK:   -3.98 KCAL/MOL
REMARK 924 INTRA-LIGAND FREE ENERGY PREDICTED BY IDOCK:   -0.05 KCAL/MOL
REMARK 927      BINDING AFFINITY PREDICTED BY RF-SCORE:    0.00 PKD
ROOT
HETATM    1  C   UNL     1     -11.749  12.171  63.354  1.00  0.00    -0.533 C  
HETATM    2  C   UNL     1     -10.857  12.801  64.410  1.00  0.00    -0.368 C  
ENDROOT
BRANCH   2   3
HETATM    3  O   UNL     1     -11.373  14.104  64.703  1.00  0.00    -0.359 OA 
BRANCH   3   4
HETATM    4  C   UNL     1     -11.359  14.461  66.010  1.00  0.00    -0.335 C  
HETATM    5  O   UNL     1     -12.281  14.351  66.801  1.00  0.00    -0.420 OA 
BRANCH   4   6
HETATM    6  C   UNL     1      -9.996  14.922  66.382  1.00  0.00    -0.290 A  
HETATM    7  C   UNL     1      -9.154  14.043  67.071  1.00  0.00    -0.256 A  
HETATM    8  C   UNL     1      -7.845  14.427  67.385  1.00  0.00    -0.211 A  
HETATM    9  C   UNL     1      -7.377  15.700  67.056  1.00  0.00    -0.168 A  
HETATM   10  C   UNL     1      -8.196  16.546  66.306  1.00  0.00    -0.360 A  
HETATM   11  N   UNL     1      -6.035  16.036  67.268  1.00  0.00    -0.306 NA 
HETATM   12  H2  UNL     1      -5.452  15.347  66.791  1.00  0.00     0.000 HD 
HETATM   13  H1  UNL     1      -5.693  16.966  67.027  1.00  0.00     0.000 HD 
HETATM   14  C   UNL     1      -9.505  16.173  65.990  1.00  0.00    -0.374 A  
ENDBRANCH   4   6
ENDBRANCH   3   4
ENDBRANCH   2   3
TORSDOF 3
ENDMDL
MODEL      101
REMARK 921   NORMALIZED FREE ENERGY PREDICTED BY IDOCK:   -3.16 KCAL/MOL
REMARK 922        TOTAL FREE ENERGY PREDICTED BY IDOCK:   -4.03 KCAL/MOL
REMARK 923 INTER-LIGAND FREE ENERGY PREDICTED BY IDOCK:   -3.86 KCAL/MOL
REMARK 924 INTRA-LIGAND FREE ENERGY PREDICTED BY IDOCK:   -0.17 KCAL/MOL
REMARK 927      BINDING AFFINITY PREDICTED BY RF-SCORE:    0.00 PKD
ROOT
HETATM    1  C   UNL     1      -8.712   9.850  62.508  1.00  0.00    -0.225 C  
HETATM    2  C   UNL     1      -8.659  10.049  64.013  1.00  0.00    -0.190 C  
ENDROOT
BRANCH   2   3
HETATM    3  O   UNL     1     -10.000  10.234  64.479  1.00  0.00    -0.339 OA 
BRANCH   3   4
HETATM    4  C   UNL     1     -10.202   9.987  65.797  1.00  0.00    -0.200 C  
HETATM    5  O   UNL     1      -9.938   8.954  66.389  1.00  0.00    -0.264 OA 
BRANCH   4   6
HETATM    6  C   UNL     1     -10.710  11.217  66.458  1.00  0.00    -0.323 A  
HETATM    7  C   UNL     1     -10.982  12.340  65.669  1.00  0.00    -0.338 A  
HETATM    8  C   UNL     1     -11.515  13.496  66.254  1.00  0.00    -0.350 A  
HETATM    9  C   UNL     1     -11.742  13.559  67.629  1.00  0.00    -0.363 A  
HETATM   10  C   UNL     1     -11.537  12.413  68.399  1.00  0.00    -0.373 A  
HETATM   11  N   UNL     1     -12.382  14.670  68.189  1.00  0.00    -0.592 NA 
HETATM   12  H2  UNL     1     -13.274  14.803  67.710  1.00  0.00     0.000 HD 
HETATM   13  H1  UNL     1     -12.548  14.717  69.194  1.00  0.00     0.000 HD 
HETATM   14  C   UNL     1     -11.002  11.256  67.827  1.00  0.00    -0.305 A  
ENDBRANCH   4   6
ENDBRANCH   3   4
ENDBRANCH   2   3
TORSDOF 3
ENDMDL
MODEL      102
REMARK 921   NORMALIZED FREE ENERGY PREDICTED BY IDOCK:   -3.16 KCAL/MOL
REMARK 922        TOTAL FREE ENERGY PREDICTED BY IDOCK:   -4.02 KCAL/MOL
REMARK 923 INTER-LIGAND FREE ENERGY PREDICTED BY IDOCK:   -3.83 KCAL/MOL
REMARK 924 INTRA-LIGAND FREE ENERGY PREDICTED BY IDOCK:   -0.18 KCAL/MOL
REMARK 927      BINDING AFFINITY PREDICTED BY RF-SCORE:    0.00 PKD
ROOT
HETATM    1  C   UNL     1     -11.819  12.519  68.965  1.00  0.00    -0.344 C  
HETATM    2  C   UNL     1     -10.600  13.339  68.583  1.00  0.00    -0.246 C  
ENDROOT
BRANCH   2   3
HETATM    3  O   UNL     1     -11.043  14.660  68.253  1.00  0.00    -0.253 OA 
BRANCH   3   4
HETATM    4  C   UNL     1     -10.596  15.152  67.072  1.00  0.00    -0.300 C  
HETATM    5  O   UNL     1     -10.560  14.558  66.007  1.00  0.00    -0.290 OA 
BRANCH   4   6
HETATM    6  C   UNL     1     -10.240  16.585  67.237  1.00  0.00    -0.287 A  
HETATM    7  C   UNL     1     -10.190  17.400  66.100  1.00  0.00    -0.334 A  
HETATM    8  C   UNL     1      -9.914  18.766  66.228  1.00  0.00    -0.418 A  
HETATM    9  C   UNL     1      -9.646  19.326  67.478  1.00  0.00    -0.313 A  
HETATM   10  C   UNL     1      -9.768  18.525  68.614  1.00  0.00    -0.398 A  
HETATM   11  N   UNL     1      -9.486  20.710  67.613  1.00  0.00    -0.321 NA 
HETATM   12  H2  UNL     1     -10.313  21.167  67.227  1.00  0.00     0.000 HD 
HETATM   13  H1  UNL     1      -9.290  21.118  68.526  1.00  0.00     0.000 HD 
HETATM   14  C   UNL     1     -10.039  17.160  68.498  1.00  0.00    -0.329 A  
ENDBRANCH   4   6
ENDBRANCH   3   4
ENDBRANCH   2   3
TORSDOF 3
ENDMDL
MODEL      103
REMARK 921   NORMALIZED FREE ENERGY PREDICTED BY IDOCK:   -3.13 KCAL/MOL
REMARK 922        TOTAL FREE ENERGY PREDICTED BY IDOCK:   -3.99 KCAL/MOL
REMARK 923 INTER-LIGAND FREE ENERGY PREDICTED BY IDOCK:   -3.87 KCAL/MOL
REMARK 924 INTRA-LIGAND FREE ENERGY PREDICTED BY IDOCK:   -0.12 KCAL/MOL
REMARK 927      BINDING AFFINITY PREDICTED BY RF-SCORE:    0.00 PKD
ROOT
HETATM    1  C   UNL     1      -7.264   4.906  70.198  1.00  0.00    -0.051 C  
HETATM    2  C   UNL     1      -8.139   5.844  71.013  1.00  0.00    -0.121 C  
ENDROOT
BRANCH   2   3
HETATM    3  O   UNL     1      -9.162   6.352  70.150  1.00  0.00    -0.155 OA 
BRANCH   3   4
HETATM    4  C   UNL     1      -9.318   7.698  70.153  1.00  0.00    -0.157 C  
HETATM    5  O   UNL     1      -8.575   8.515  69.635  1.00  0.00    -0.127 OA 
BRANCH   4   6
HETATM    6  C   UNL     1     -10.608   8.045  70.805  1.00  0.00    -0.228 A  
HETATM    7  C   UNL     1     -11.449   7.008  71.223  1.00  0.00    -0.324 A  
HETATM    8  C   UNL     1     -12.644   7.300  71.892  1.00  0.00    -0.326 A  
HETATM    9  C   UNL     1     -13.033   8.623  72.112  1.00  0.00    -0.387 A  
HETATM   10  C   UNL     1     -12.157   9.650  71.757  1.00  0.00    -0.446 A  
HETATM   11  N   UNL     1     -14.167   8.907  72.881  1.00  0.00    -1.123 NA 
HETATM   12  H2  UNL     1     -14.064   8.448  73.787  1.00  0.00     0.000 HD 
HETATM   13  H1  UNL     1     -14.451   9.873  73.041  1.00  0.00     0.000 HD 
HETATM   14  C   UNL     1     -10.964   9.369  71.087  1.00  0.00    -0.430 A  
ENDBRANCH   4   6
ENDBRANCH   3   4
ENDBRANCH   2   3
TORSDOF 3
ENDMDL
MODEL      104
REMARK 921   NORMALIZED FREE ENERGY PREDICTED BY IDOCK:   -3.13 KCAL/MOL
REMARK 922        TOTAL FREE ENERGY PREDICTED BY IDOCK:   -3.99 KCAL/MOL
REMARK 923 INTER-LIGAND FREE ENERGY PREDICTED BY IDOCK:   -3.81 KCAL/MOL
REMARK 924 INTRA-LIGAND FREE ENERGY PREDICTED BY IDOCK:   -0.18 KCAL/MOL
REMARK 927      BINDING AFFINITY PREDICTED BY RF-SCORE:    0.00 PKD
ROOT
HETATM    1  C   UNL     1     -10.296   8.845  67.105  1.00  0.00    -0.351 C  
HETATM    2  C   UNL     1      -9.821  10.096  66.387  1.00  0.00    -0.222 C  
ENDROOT
BRANCH   2   3
HETATM    3  O   UNL     1     -10.910  11.025  66.355  1.00  0.00    -0.257 OA 
BRANCH   3   4
HETATM    4  C   UNL     1     -10.932  11.867  65.293  1.00  0.00    -0.302 C  
HETATM    5  O   UNL     1     -11.032  11.550  64.119  1.00  0.00    -0.347 OA 
BRANCH   4   6
HETATM    6  C   UNL     1     -10.918  13.272  65.776  1.00  0.00    -0.284 A  
HETATM    7  C   UNL     1     -11.154  13.519  67.133  1.00  0.00    -0.308 A  
HETATM    8  C   UNL     1     -11.092  14.826  67.630  1.00  0.00    -0.311 A  
HETATM    9  C   UNL     1     -10.836  15.901  66.777  1.00  0.00    -0.228 A  
HETATM   10  C   UNL     1     -10.530  15.643  65.440  1.00  0.00    -0.435 A  
HETATM   11  N   UNL     1     -10.659  17.188  67.298  1.00  0.00    -0.306 NA 
HETATM   12  H2  UNL     1      -9.919  17.153  68.000  1.00  0.00     0.000 HD 
HETATM   13  H1  UNL     1     -10.473  17.974  66.675  1.00  0.00     0.000 HD 
HETATM   14  C   UNL     1     -10.593  14.343  64.934  1.00  0.00    -0.456 A  
ENDBRANCH   4   6
ENDBRANCH   3   4
ENDBRANCH   2   3
TORSDOF 3
ENDMDL
MODEL      105
REMARK 921   NORMALIZED FREE ENERGY PREDICTED BY IDOCK:   -3.12 KCAL/MOL
REMARK 922        TOTAL FREE ENERGY PREDICTED BY IDOCK:   -3.98 KCAL/MOL
REMARK 923 INTER-LIGAND FREE ENERGY PREDICTED BY IDOCK:   -4.09 KCAL/MOL
REMARK 924 INTRA-LIGAND FREE ENERGY PREDICTED BY IDOCK:    0.11 KCAL/MOL
REMARK 927      BINDING AFFINITY PREDICTED BY RF-SCORE:    0.00 PKD
ROOT
HETATM    1  C   UNL     1      -8.198   9.035  68.299  1.00  0.00    -0.116 C  
HETATM    2  C   UNL     1      -9.663   8.807  67.970  1.00  0.00    -0.157 C  
ENDROOT
BRANCH   2   3
HETATM    3  O   UNL     1     -10.008   7.484  68.392  1.00  0.00    -0.160 OA 
BRANCH   3   4
HETATM    4  C   UNL     1      -9.746   7.193  69.690  1.00  0.00    -0.158 C  
HETATM    5  O   UNL     1      -8.733   6.670  70.124  1.00  0.00    -0.138 OA 
BRANCH   4   6
HETATM    6  C   UNL     1     -10.847   7.707  70.544  1.00  0.00    -0.249 A  
HETATM    7  C   UNL     1     -11.979   6.906  70.734  1.00  0.00    -0.424 A  
HETATM    8  C   UNL     1     -13.009   7.336  71.579  1.00  0.00    -0.434 A  
HETATM    9  C   UNL     1     -12.943   8.580  72.208  1.00  0.00    -0.341 A  
HETATM   10  C   UNL     1     -11.781   9.342  72.073  1.00  0.00    -0.336 A  
HETATM   11  N   UNL     1     -13.918   8.953  73.141  1.00  0.00    -1.215 NA 
HETATM   12  H2  UNL     1     -13.966   8.231  73.861  1.00  0.00     0.000 HD 
HETATM   13  H1  UNL     1     -13.869   9.862  73.600  1.00  0.00     0.000 HD 
HETATM   14  C   UNL     1     -10.749   8.923  71.230  1.00  0.00    -0.357 A  
ENDBRANCH   4   6
ENDBRANCH   3   4
ENDBRANCH   2   3
TORSDOF 3
ENDMDL
MODEL      106
REMARK 921   NORMALIZED FREE ENERGY PREDICTED BY IDOCK:   -3.12 KCAL/MOL
REMARK 922        TOTAL FREE ENERGY PREDICTED BY IDOCK:   -3.97 KCAL/MOL
REMARK 923 INTER-LIGAND FREE ENERGY PREDICTED BY IDOCK:   -3.81 KCAL/MOL
REMARK 924 INTRA-LIGAND FREE ENERGY PREDICTED BY IDOCK:   -0.16 KCAL/MOL
REMARK 927      BINDING AFFINITY PREDICTED BY RF-SCORE:    0.00 PKD
ROOT
HETATM    1  C   UNL     1     -13.299  10.056  71.562  1.00  0.00    -0.451 C  
HETATM    2  C   UNL     1     -12.240  10.721  70.701  1.00  0.00    -0.379 C  
ENDROOT
BRANCH   2   3
HETATM    3  O   UNL     1     -11.564   9.697  69.964  1.00  0.00    -0.198 OA 
BRANCH   3   4
HETATM    4  C   UNL     1     -10.379   9.287  70.479  1.00  0.00    -0.254 C  
HETATM    5  O   UNL     1      -9.288   9.795  70.278  1.00  0.00    -0.247 OA 
BRANCH   4   6
HETATM    6  C   UNL     1     -10.612   8.168  71.427  1.00  0.00    -0.269 A  
HETATM    7  C   UNL     1     -11.222   7.001  70.952  1.00  0.00    -0.318 A  
HETATM    8  C   UNL     1     -11.404   5.907  71.806  1.00  0.00    -0.289 A  
HETATM    9  C   UNL     1     -11.020   5.977  73.146  1.00  0.00    -0.239 A  
HETATM   10  C   UNL     1     -10.348   7.114  73.596  1.00  0.00    -0.411 A  
HETATM   11  N   UNL     1     -11.097   4.843  73.963  1.00  0.00    -0.387 NA 
HETATM   12  H2  UNL     1     -10.571   4.090  73.518  1.00  0.00     0.000 HD 
HETATM   13  H1  UNL     1     -10.818   4.894  74.942  1.00  0.00     0.000 HD 
HETATM   14  C   UNL     1     -10.165   8.213  72.753  1.00  0.00    -0.372 A  
ENDBRANCH   4   6
ENDBRANCH   3   4
ENDBRANCH   2   3
TORSDOF 3
ENDMDL
MODEL      107
REMARK 921   NORMALIZED FREE ENERGY PREDICTED BY IDOCK:   -3.05 KCAL/MOL
REMARK 922        TOTAL FREE ENERGY PREDICTED BY IDOCK:   -3.90 KCAL/MOL
REMARK 923 INTER-LIGAND FREE ENERGY PREDICTED BY IDOCK:   -3.73 KCAL/MOL
REMARK 924 INTRA-LIGAND FREE ENERGY PREDICTED BY IDOCK:   -0.17 KCAL/MOL
REMARK 927      BINDING AFFINITY PREDICTED BY RF-SCORE:    0.00 PKD
ROOT
HETATM    1  C   UNL     1     -10.160   7.473  66.782  1.00  0.00    -0.313 C  
HETATM    2  C   UNL     1      -9.644   8.858  67.129  1.00  0.00    -0.172 C  
ENDROOT
BRANCH   2   3
HETATM    3  O   UNL     1     -10.679   9.801  66.831  1.00  0.00    -0.205 OA 
BRANCH   3   4
HETATM    4  C   UNL     1     -10.310  10.855  66.063  1.00  0.00    -0.245 C  
HETATM    5  O   UNL     1      -9.810  10.801  64.951  1.00  0.00    -0.243 OA 
BRANCH   4   6
HETATM    6  C   UNL     1     -10.701  12.120  66.737  1.00  0.00    -0.269 A  
HETATM    7  C   UNL     1     -11.817  12.817  66.261  1.00  0.00    -0.485 A  
HETATM    8  C   UNL     1     -12.246  13.982  66.910  1.00  0.00    -0.415 A  
HETATM    9  C   UNL     1     -11.546  14.484  68.008  1.00  0.00    -0.336 A  
HETATM   10  C   UNL     1     -10.478  13.747  68.522  1.00  0.00    -0.248 A  
HETATM   11  N   UNL     1     -12.045  15.580  68.721  1.00  0.00    -0.584 NA 
HETATM   12  H2  UNL     1     -12.997  15.363  69.019  1.00  0.00     0.000 HD 
HETATM   13  H1  UNL     1     -11.534  15.948  69.523  1.00  0.00     0.000 HD 
HETATM   14  C   UNL     1     -10.041  12.586  67.880  1.00  0.00    -0.214 A  
ENDBRANCH   4   6
ENDBRANCH   3   4
ENDBRANCH   2   3
TORSDOF 3
ENDMDL
MODEL      108
REMARK 921   NORMALIZED FREE ENERGY PREDICTED BY IDOCK:   -3.05 KCAL/MOL
REMARK 922        TOTAL FREE ENERGY PREDICTED BY IDOCK:   -3.90 KCAL/MOL
REMARK 923 INTER-LIGAND FREE ENERGY PREDICTED BY IDOCK:   -3.58 KCAL/MOL
REMARK 924 INTRA-LIGAND FREE ENERGY PREDICTED BY IDOCK:   -0.31 KCAL/MOL
REMARK 927      BINDING AFFINITY PREDICTED BY RF-SCORE:    0.00 PKD
ROOT
HETATM    1  C   UNL     1      -9.951  12.520  66.255  1.00  0.00    -0.263 C  
HETATM    2  C   UNL     1     -11.450  12.595  66.490  1.00  0.00    -0.353 C  
ENDROOT
BRANCH   2   3
HETATM    3  O   UNL     1     -11.834  11.444  67.250  1.00  0.00    -0.594 OA 
BRANCH   3   4
HETATM    4  C   UNL     1     -11.693  11.553  68.593  1.00  0.00    -0.326 C  
HETATM    5  O   UNL     1     -12.016  12.508  69.280  1.00  0.00    -0.296 OA 
BRANCH   4   6
HETATM    6  C   UNL     1     -11.171  10.274  69.142  1.00  0.00    -0.268 A  
HETATM    7  C   UNL     1     -10.779   9.271  68.249  1.00  0.00    -0.195 A  
HETATM    8  C   UNL     1     -10.229   8.077  68.732  1.00  0.00    -0.220 A  
HETATM    9  C   UNL     1     -10.105   7.854  70.104  1.00  0.00    -0.194 A  
HETATM   10  C   UNL     1     -10.431   8.885  70.987  1.00  0.00    -0.316 A  
HETATM   11  N   UNL     1      -9.450   6.711  70.577  1.00  0.00    -0.166 NA 
HETATM   12  H2  UNL     1      -8.518   6.680  70.161  1.00  0.00     0.000 HD 
HETATM   13  H1  UNL     1      -9.359   6.548  71.580  1.00  0.00     0.000 HD 
HETATM   14  C   UNL     1     -10.983  10.078  70.515  1.00  0.00    -0.392 A  
ENDBRANCH   4   6
ENDBRANCH   3   4
ENDBRANCH   2   3
TORSDOF 3
ENDMDL
MODEL      109
REMARK 921   NORMALIZED FREE ENERGY PREDICTED BY IDOCK:   -3.05 KCAL/MOL
REMARK 922        TOTAL FREE ENERGY PREDICTED BY IDOCK:   -3.89 KCAL/MOL
REMARK 923 INTER-LIGAND FREE ENERGY PREDICTED BY IDOCK:   -3.82 KCAL/MOL
REMARK 924 INTRA-LIGAND FREE ENERGY PREDICTED BY IDOCK:   -0.07 KCAL/MOL
REMARK 927      BINDING AFFINITY PREDICTED BY RF-SCORE:    0.00 PKD
ROOT
HETATM    1  C   UNL     1      -9.232   9.894  62.331  1.00  0.00    -0.308 C  
HETATM    2  C   UNL     1      -9.429  11.336  62.765  1.00  0.00    -0.326 C  
ENDROOT
BRANCH   2   3
HETATM    3  O   UNL     1     -10.545  11.378  63.660  1.00  0.00    -0.356 OA 
BRANCH   3   4
HETATM    4  C   UNL     1     -10.306  11.938  64.871  1.00  0.00    -0.286 C  
HETATM    5  O   UNL     1     -10.132  13.124  65.099  1.00  0.00    -0.281 OA 
BRANCH   4   6
HETATM    6  C   UNL     1     -10.388  10.893  65.924  1.00  0.00    -0.310 A  
HETATM    7  C   UNL     1     -11.037  11.199  67.125  1.00  0.00    -0.352 A  
HETATM    8  C   UNL     1     -11.182  10.218  68.114  1.00  0.00    -0.294 A  
HETATM    9  C   UNL     1     -10.646   8.942  67.936  1.00  0.00    -0.183 A  
HETATM   10  C   UNL     1     -10.064   8.621  66.709  1.00  0.00    -0.366 A  
HETATM   11  N   UNL     1     -10.894   7.935  68.876  1.00  0.00    -0.418 NA 
HETATM   12  H2  UNL     1     -11.904   7.846  68.993  1.00  0.00     0.000 HD 
HETATM   13  H1  UNL     1     -10.503   7.002  68.746  1.00  0.00     0.000 HD 
HETATM   14  C   UNL     1      -9.912   9.593  65.717  1.00  0.00    -0.342 A  
ENDBRANCH   4   6
ENDBRANCH   3   4
ENDBRANCH   2   3
TORSDOF 3
ENDMDL
MODEL      110
REMARK 921   NORMALIZED FREE ENERGY PREDICTED BY IDOCK:   -3.04 KCAL/MOL
REMARK 922        TOTAL FREE ENERGY PREDICTED BY IDOCK:   -3.89 KCAL/MOL
REMARK 923 INTER-LIGAND FREE ENERGY PREDICTED BY IDOCK:   -3.71 KCAL/MOL
REMARK 924 INTRA-LIGAND FREE ENERGY PREDICTED BY IDOCK:   -0.18 KCAL/MOL
REMARK 927      BINDING AFFINITY PREDICTED BY RF-SCORE:    0.00 PKD
ROOT
HETATM    1  C   UNL     1      -7.473  11.247  66.753  1.00  0.00    -0.146 C  
HETATM    2  C   UNL     1      -8.968  11.241  66.489  1.00  0.00    -0.184 C  
ENDROOT
BRANCH   2   3
HETATM    3  O   UNL     1      -9.554  12.301  67.253  1.00  0.00    -0.182 OA 
BRANCH   3   4
HETATM    4  C   UNL     1     -10.766  12.032  67.797  1.00  0.00    -0.210 C  
HETATM    5  O   UNL     1     -11.459  11.054  67.573  1.00  0.00    -0.468 OA 
BRANCH   4   6
HETATM    6  C   UNL     1     -11.096  13.071  68.807  1.00  0.00    -0.311 A  
HETATM    7  C   UNL     1     -10.397  14.283  68.777  1.00  0.00    -0.239 A  
HETATM    8  C   UNL     1     -10.724  15.304  69.678  1.00  0.00    -0.289 A  
HETATM    9  C   UNL     1     -11.717  15.114  70.640  1.00  0.00    -0.312 A  
HETATM   10  C   UNL     1     -12.459  13.932  70.619  1.00  0.00    -0.436 A  
HETATM   11  N   UNL     1     -12.118  16.175  71.460  1.00  0.00    -0.616 NA 
HETATM   12  H2  UNL     1     -12.396  16.955  70.862  1.00  0.00     0.000 HD 
HETATM   13  H1  UNL     1     -12.843  16.037  72.163  1.00  0.00     0.000 HD 
HETATM   14  C   UNL     1     -12.138  12.906  69.727  1.00  0.00    -0.312 A  
ENDBRANCH   4   6
ENDBRANCH   3   4
ENDBRANCH   2   3
TORSDOF 3
ENDMDL
MODEL      111
REMARK 921   NORMALIZED FREE ENERGY PREDICTED BY IDOCK:   -3.03 KCAL/MOL
REMARK 922        TOTAL FREE ENERGY PREDICTED BY IDOCK:   -3.88 KCAL/MOL
REMARK 923 INTER-LIGAND FREE ENERGY PREDICTED BY IDOCK:   -3.69 KCAL/MOL
REMARK 924 INTRA-LIGAND FREE ENERGY PREDICTED BY IDOCK:   -0.19 KCAL/MOL
REMARK 927      BINDING AFFINITY PREDICTED BY RF-SCORE:    0.00 PKD
ROOT
HETATM    1  C   UNL     1     -12.858   8.713  72.186  1.00  0.00    -0.442 C  
HETATM    2  C   UNL     1     -12.984   7.359  71.509  1.00  0.00    -0.375 C  
ENDROOT
BRANCH   2   3
HETATM    3  O   UNL     1     -11.965   7.271  70.507  1.00  0.00    -0.255 OA 
BRANCH   3   4
HETATM    4  C   UNL     1     -11.003   6.342  70.727  1.00  0.00    -0.297 C  
HETATM    5  O   UNL     1     -10.571   5.990  71.813  1.00  0.00    -0.214 OA 
BRANCH   4   6
HETATM    6  C   UNL     1     -10.611   5.721  69.436  1.00  0.00    -0.383 A  
HETATM    7  C   UNL     1      -9.893   4.520  69.459  1.00  0.00    -0.277 A  
HETATM    8  C   UNL     1      -9.558   3.880  68.260  1.00  0.00    -0.178 A  
HETATM    9  C   UNL     1      -9.895   4.447  67.030  1.00  0.00    -0.194 A  
HETATM   10  C   UNL     1     -10.673   5.606  67.014  1.00  0.00    -0.332 A  
HETATM   11  N   UNL     1      -9.661   3.747  65.841  1.00  0.00    -0.330 NA 
HETATM   12  H2  UNL     1     -10.116   2.836  65.910  1.00  0.00     0.000 HD 
HETATM   13  H1  UNL     1      -9.908   4.162  64.943  1.00  0.00     0.000 HD 
HETATM   14  C   UNL     1     -11.010   6.254  68.205  1.00  0.00    -0.412 A  
ENDBRANCH   4   6
ENDBRANCH   3   4
ENDBRANCH   2   3
TORSDOF 3
ENDMDL
MODEL      112
REMARK 921   NORMALIZED FREE ENERGY PREDICTED BY IDOCK:   -3.03 KCAL/MOL
REMARK 922        TOTAL FREE ENERGY PREDICTED BY IDOCK:   -3.88 KCAL/MOL
REMARK 923 INTER-LIGAND FREE ENERGY PREDICTED BY IDOCK:   -3.72 KCAL/MOL
REMARK 924 INTRA-LIGAND FREE ENERGY PREDICTED BY IDOCK:   -0.15 KCAL/MOL
REMARK 927      BINDING AFFINITY PREDICTED BY RF-SCORE:    0.00 PKD
ROOT
HETATM    1  C   UNL     1      -6.668  18.762  68.716  1.00  0.00    -0.292 C  
HETATM    2  C   UNL     1      -7.161  17.329  68.816  1.00  0.00    -0.245 C  
ENDROOT
BRANCH   2   3
HETATM    3  O   UNL     1      -8.134  17.126  67.786  1.00  0.00    -0.187 OA 
BRANCH   3   4
HETATM    4  C   UNL     1      -7.890  16.093  66.942  1.00  0.00    -0.248 C  
HETATM    5  O   UNL     1      -6.799  15.614  66.681  1.00  0.00    -0.114 OA 
BRANCH   4   6
HETATM    6  C   UNL     1      -9.178  15.545  66.445  1.00  0.00    -0.339 A  
HETATM    7  C   UNL     1      -9.955  16.330  65.585  1.00  0.00    -0.306 A  
HETATM    8  C   UNL     1     -11.146  15.820  65.054  1.00  0.00    -0.380 A  
HETATM    9  C   UNL     1     -11.595  14.546  65.405  1.00  0.00    -0.355 A  
HETATM   10  C   UNL     1     -10.782  13.742  66.204  1.00  0.00    -0.283 A  
HETATM   11  N   UNL     1     -12.722  13.999  64.781  1.00  0.00    -0.683 NA 
HETATM   12  H2  UNL     1     -12.573  14.020  63.772  1.00  0.00     0.000 HD 
HETATM   13  H1  UNL     1     -13.051  13.068  65.038  1.00  0.00     0.000 HD 
HETATM   14  C   UNL     1      -9.594  14.242  66.742  1.00  0.00    -0.290 A  
ENDBRANCH   4   6
ENDBRANCH   3   4
ENDBRANCH   2   3
TORSDOF 3
ENDMDL
MODEL      113
REMARK 921   NORMALIZED FREE ENERGY PREDICTED BY IDOCK:   -3.00 KCAL/MOL
REMARK 922        TOTAL FREE ENERGY PREDICTED BY IDOCK:   -3.83 KCAL/MOL
REMARK 923 INTER-LIGAND FREE ENERGY PREDICTED BY IDOCK:   -3.69 KCAL/MOL
REMARK 924 INTRA-LIGAND FREE ENERGY PREDICTED BY IDOCK:   -0.14 KCAL/MOL
REMARK 927      BINDING AFFINITY PREDICTED BY RF-SCORE:    0.00 PKD
ROOT
HETATM    1  C   UNL     1      -9.398   7.098  68.958  1.00  0.00    -0.140 C  
HETATM    2  C   UNL     1      -9.665   8.542  69.345  1.00  0.00    -0.177 C  
ENDROOT
BRANCH   2   3
HETATM    3  O   UNL     1     -10.758   9.016  68.552  1.00  0.00    -0.186 OA 
BRANCH   3   4
HETATM    4  C   UNL     1     -10.865  10.363  68.444  1.00  0.00    -0.245 C  
HETATM    5  O   UNL     1     -10.961  11.157  69.365  1.00  0.00    -0.238 OA 
BRANCH   4   6
HETATM    6  C   UNL     1     -10.744  10.756  67.017  1.00  0.00    -0.320 A  
HETATM    7  C   UNL     1      -9.897  10.016  66.185  1.00  0.00    -0.309 A  
HETATM    8  C   UNL     1      -9.805  10.325  64.823  1.00  0.00    -0.403 A  
HETATM    9  C   UNL     1     -10.520  11.397  64.285  1.00  0.00    -0.342 A  
HETATM   10  C   UNL     1     -11.417  12.086  65.103  1.00  0.00    -0.344 A  
HETATM   11  N   UNL     1     -10.514  11.628  62.905  1.00  0.00    -0.664 NA 
HETATM   12  H2  UNL     1     -10.815  10.774  62.435  1.00  0.00     0.000 HD 
HETATM   13  H1  UNL     1     -11.036  12.411  62.512  1.00  0.00     0.000 HD 
HETATM   14  C   UNL     1     -11.514  11.787  66.464  1.00  0.00    -0.325 A  
ENDBRANCH   4   6
ENDBRANCH   3   4
ENDBRANCH   2   3
TORSDOF 3
ENDMDL
MODEL      114
REMARK 921   NORMALIZED FREE ENERGY PREDICTED BY IDOCK:   -3.00 KCAL/MOL
REMARK 922        TOTAL FREE ENERGY PREDICTED BY IDOCK:   -3.83 KCAL/MOL
REMARK 923 INTER-LIGAND FREE ENERGY PREDICTED BY IDOCK:   -3.65 KCAL/MOL
REMARK 924 INTRA-LIGAND FREE ENERGY PREDICTED BY IDOCK:   -0.18 KCAL/MOL
REMARK 927      BINDING AFFINITY PREDICTED BY RF-SCORE:    0.00 PKD
ROOT
HETATM    1  C   UNL     1     -11.150   6.306  68.710  1.00  0.00    -0.424 C  
HETATM    2  C   UNL     1     -10.707   6.388  67.259  1.00  0.00    -0.353 C  
ENDROOT
BRANCH   2   3
HETATM    3  O   UNL     1     -10.901   7.735  66.815  1.00  0.00    -0.254 OA 
BRANCH   3   4
HETATM    4  C   UNL     1      -9.774   8.415  66.492  1.00  0.00    -0.260 C  
HETATM    5  O   UNL     1      -8.665   7.937  66.316  1.00  0.00    -0.138 OA 
BRANCH   4   6
HETATM    6  C   UNL     1     -10.105   9.848  66.278  1.00  0.00    -0.311 A  
HETATM    7  C   UNL     1     -10.058  10.360  64.976  1.00  0.00    -0.379 A  
HETATM    8  C   UNL     1     -10.420  11.691  64.733  1.00  0.00    -0.346 A  
HETATM    9  C   UNL     1     -10.789  12.532  65.783  1.00  0.00    -0.276 A  
HETATM   10  C   UNL     1     -10.903  11.997  67.067  1.00  0.00    -0.297 A  
HETATM   11  N   UNL     1     -11.261  13.824  65.520  1.00  0.00    -0.297 NA 
HETATM   12  H2  UNL     1     -12.047  13.753  64.874  1.00  0.00     0.000 HD 
HETATM   13  H1  UNL     1     -11.530  14.439  66.288  1.00  0.00     0.000 HD 
HETATM   14  C   UNL     1     -10.542  10.672  67.321  1.00  0.00    -0.313 A  
ENDBRANCH   4   6
ENDBRANCH   3   4
ENDBRANCH   2   3
TORSDOF 3
ENDMDL
MODEL      115
REMARK 921   NORMALIZED FREE ENERGY PREDICTED BY IDOCK:   -2.99 KCAL/MOL
REMARK 922        TOTAL FREE ENERGY PREDICTED BY IDOCK:   -3.83 KCAL/MOL
REMARK 923 INTER-LIGAND FREE ENERGY PREDICTED BY IDOCK:   -3.57 KCAL/MOL
REMARK 924 INTRA-LIGAND FREE ENERGY PREDICTED BY IDOCK:   -0.25 KCAL/MOL
REMARK 927      BINDING AFFINITY PREDICTED BY RF-SCORE:    0.00 PKD
ROOT
HETATM    1  C   UNL     1     -10.780  19.798  66.333  1.00  0.00    -0.499 C  
HETATM    2  C   UNL     1      -9.815  20.174  67.444  1.00  0.00    -0.434 C  
ENDROOT
BRANCH   2   3
HETATM    3  O   UNL     1      -9.981  19.233  68.509  1.00  0.00    -0.384 OA 
BRANCH   3   4
HETATM    4  C   UNL     1      -9.511  17.984  68.268  1.00  0.00    -0.302 C  
HETATM    5  O   UNL     1      -8.452  17.700  67.734  1.00  0.00    -0.221 OA 
BRANCH   4   6
HETATM    6  C   UNL     1     -10.442  16.984  68.852  1.00  0.00    -0.347 A  
HETATM    7  C   UNL     1     -10.608  16.952  70.241  1.00  0.00     0.298 A  
HETATM    8  C   UNL     1     -11.521  16.060  70.818  1.00  0.00    -0.444 A  
HETATM    9  C   UNL     1     -12.243  15.167  70.025  1.00  0.00    -0.338 A  
HETATM   10  C   UNL     1     -12.127  15.253  68.637  1.00  0.00    -0.160 A  
HETATM   11  N   UNL     1     -13.236  14.361  70.594  1.00  0.00    -0.450 NA 
HETATM   12  H2  UNL     1     -13.898  14.965  71.082  1.00  0.00     0.000 HD 
HETATM   13  H1  UNL     1     -13.763  13.708  70.015  1.00  0.00     0.000 HD 
HETATM   14  C   UNL     1     -11.217  16.136  68.052  1.00  0.00    -0.291 A  
ENDBRANCH   4   6
ENDBRANCH   3   4
ENDBRANCH   2   3
TORSDOF 3
ENDMDL
MODEL      116
REMARK 921   NORMALIZED FREE ENERGY PREDICTED BY IDOCK:   -2.99 KCAL/MOL
REMARK 922        TOTAL FREE ENERGY PREDICTED BY IDOCK:   -3.82 KCAL/MOL
REMARK 923 INTER-LIGAND FREE ENERGY PREDICTED BY IDOCK:   -3.65 KCAL/MOL
REMARK 924 INTRA-LIGAND FREE ENERGY PREDICTED BY IDOCK:   -0.17 KCAL/MOL
REMARK 927      BINDING AFFINITY PREDICTED BY RF-SCORE:    0.00 PKD
ROOT
HETATM    1  C   UNL     1      -9.834  10.994  64.785  1.00  0.00    -0.329 C  
HETATM    2  C   UNL     1     -10.159  10.275  66.083  1.00  0.00    -0.242 C  
ENDROOT
BRANCH   2   3
HETATM    3  O   UNL     1     -10.760  11.222  66.972  1.00  0.00    -0.233 OA 
BRANCH   3   4
HETATM    4  C   UNL     1     -10.038  11.532  68.076  1.00  0.00    -0.186 C  
HETATM    5  O   UNL     1      -8.902  11.977  68.097  1.00  0.00    -0.171 OA 
BRANCH   4   6
HETATM    6  C   UNL     1     -10.880  11.348  69.286  1.00  0.00    -0.242 A  
HETATM    7  C   UNL     1     -11.809  12.341  69.616  1.00  0.00    -0.393 A  
HETATM    8  C   UNL     1     -12.657  12.170  70.717  1.00  0.00    -0.305 A  
HETATM    9  C   UNL     1     -12.561  11.034  71.522  1.00  0.00    -0.356 A  
HETATM   10  C   UNL     1     -11.683  10.016  71.147  1.00  0.00    -0.472 A  
HETATM   11  N   UNL     1     -13.486  10.816  72.548  1.00  0.00    -0.361 NA 
HETATM   12  H2  UNL     1     -14.424  10.845  72.147  1.00  0.00     0.000 HD 
HETATM   13  H1  UNL     1     -13.415   9.986  73.137  1.00  0.00     0.000 HD 
HETATM   14  C   UNL     1     -10.830  10.177  70.053  1.00  0.00    -0.361 A  
ENDBRANCH   4   6
ENDBRANCH   3   4
ENDBRANCH   2   3
TORSDOF 3
ENDMDL
MODEL      117
REMARK 921   NORMALIZED FREE ENERGY PREDICTED BY IDOCK:   -2.97 KCAL/MOL
REMARK 922        TOTAL FREE ENERGY PREDICTED BY IDOCK:   -3.80 KCAL/MOL
REMARK 923 INTER-LIGAND FREE ENERGY PREDICTED BY IDOCK:   -3.50 KCAL/MOL
REMARK 924 INTRA-LIGAND FREE ENERGY PREDICTED BY IDOCK:   -0.31 KCAL/MOL
REMARK 927      BINDING AFFINITY PREDICTED BY RF-SCORE:    0.00 PKD
ROOT
HETATM    1  C   UNL     1      -8.449  13.249  68.154  1.00  0.00    -0.173 C  
HETATM    2  C   UNL     1      -9.811  13.827  67.812  1.00  0.00    -0.234 C  
ENDROOT
BRANCH   2   3
HETATM    3  O   UNL     1     -10.792  12.810  68.044  1.00  0.00    -0.220 OA 
BRANCH   3   4
HETATM    4  C   UNL     1     -11.397  12.314  66.937  1.00  0.00    -0.333 C  
HETATM    5  O   UNL     1     -12.286  12.851  66.297  1.00  0.00    -0.477 OA 
BRANCH   4   6
HETATM    6  C   UNL     1     -10.741  11.041  66.542  1.00  0.00    -0.298 A  
HETATM    7  C   UNL     1      -9.995  11.009  65.358  1.00  0.00    -0.313 A  
HETATM    8  C   UNL     1      -9.317   9.841  64.988  1.00  0.00    -0.325 A  
HETATM    9  C   UNL     1      -9.409   8.686  65.766  1.00  0.00    -0.158 A  
HETATM   10  C   UNL     1     -10.094   8.745  66.981  1.00  0.00    -0.335 A  
HETATM   11  N   UNL     1      -8.638   7.561  65.454  1.00  0.00    -0.307 NA 
HETATM   12  H2  UNL     1      -7.658   7.844  65.414  1.00  0.00     0.000 HD 
HETATM   13  H1  UNL     1      -8.705   6.717  66.022  1.00  0.00     0.000 HD 
HETATM   14  C   UNL     1     -10.776   9.904  67.358  1.00  0.00    -0.323 A  
ENDBRANCH   4   6
ENDBRANCH   3   4
ENDBRANCH   2   3
TORSDOF 3
ENDMDL
MODEL      118
REMARK 921   NORMALIZED FREE ENERGY PREDICTED BY IDOCK:   -2.97 KCAL/MOL
REMARK 922        TOTAL FREE ENERGY PREDICTED BY IDOCK:   -3.80 KCAL/MOL
REMARK 923 INTER-LIGAND FREE ENERGY PREDICTED BY IDOCK:   -3.53 KCAL/MOL
REMARK 924 INTRA-LIGAND FREE ENERGY PREDICTED BY IDOCK:   -0.27 KCAL/MOL
REMARK 927      BINDING AFFINITY PREDICTED BY RF-SCORE:    0.00 PKD
ROOT
HETATM    1  C   UNL     1     -11.658   6.594  70.295  1.00  0.00    -0.454 C  
HETATM    2  C   UNL     1     -10.782   5.832  69.316  1.00  0.00    -0.316 C  
ENDROOT
BRANCH   2   3
HETATM    3  O   UNL     1     -10.001   6.786  68.589  1.00  0.00    -0.140 OA 
BRANCH   3   4
HETATM    4  C   UNL     1     -10.414   7.041  67.324  1.00  0.00    -0.293 C  
HETATM    5  O   UNL     1     -10.999   6.269  66.583  1.00  0.00    -0.306 OA 
BRANCH   4   6
HETATM    6  C   UNL     1     -10.139   8.463  66.992  1.00  0.00    -0.354 A  
HETATM    7  C   UNL     1      -9.501   8.759  65.782  1.00  0.00    -0.239 A  
HETATM    8  C   UNL     1      -9.279  10.092  65.413  1.00  0.00    -0.259 A  
HETATM    9  C   UNL     1      -9.651  11.137  66.260  1.00  0.00    -0.206 A  
HETATM   10  C   UNL     1     -10.352  10.839  67.430  1.00  0.00    -0.251 A  
HETATM   11  N   UNL     1      -9.533  12.465  65.836  1.00  0.00    -0.397 NA 
HETATM   12  H2  UNL     1     -10.042  12.568  64.957  1.00  0.00     0.000 HD 
HETATM   13  H1  UNL     1      -9.805  13.229  66.454  1.00  0.00     0.000 HD 
HETATM   14  C   UNL     1     -10.575   9.513  67.809  1.00  0.00    -0.318 A  
ENDBRANCH   4   6
ENDBRANCH   3   4
ENDBRANCH   2   3
TORSDOF 3
ENDMDL
MODEL      119
REMARK 921   NORMALIZED FREE ENERGY PREDICTED BY IDOCK:   -2.97 KCAL/MOL
REMARK 922        TOTAL FREE ENERGY PREDICTED BY IDOCK:   -3.80 KCAL/MOL
REMARK 923 INTER-LIGAND FREE ENERGY PREDICTED BY IDOCK:   -3.60 KCAL/MOL
REMARK 924 INTRA-LIGAND FREE ENERGY PREDICTED BY IDOCK:   -0.20 KCAL/MOL
REMARK 927      BINDING AFFINITY PREDICTED BY RF-SCORE:    0.00 PKD
ROOT
HETATM    1  C   UNL     1     -12.462  13.138  70.891  1.00  0.00    -0.407 C  
HETATM    2  C   UNL     1     -11.693  12.631  69.683  1.00  0.00    -0.303 C  
ENDROOT
BRANCH   2   3
HETATM    3  O   UNL     1     -11.711  13.659  68.687  1.00  0.00    -0.308 OA 
BRANCH   3   4
HETATM    4  C   UNL     1     -10.688  13.633  67.798  1.00  0.00    -0.246 C  
HETATM    5  O   UNL     1     -10.260  12.651  67.214  1.00  0.00    -0.222 OA 
BRANCH   4   6
HETATM    6  C   UNL     1     -10.214  15.019  67.549  1.00  0.00    -0.234 A  
HETATM    7  C   UNL     1      -9.064  15.207  66.774  1.00  0.00    -0.282 A  
HETATM    8  C   UNL     1      -8.624  16.502  66.474  1.00  0.00    -0.321 A  
HETATM    9  C   UNL     1      -9.297  17.617  66.975  1.00  0.00    -0.257 A  
HETATM   10  C   UNL     1     -10.482  17.426  67.686  1.00  0.00    -0.368 A  
HETATM   11  N   UNL     1      -8.922  18.905  66.576  1.00  0.00    -0.317 NA 
HETATM   12  H2  UNL     1      -8.947  18.946  65.557  1.00  0.00     0.000 HD 
HETATM   13  H1  UNL     1      -9.413  19.721  66.943  1.00  0.00     0.000 HD 
HETATM   14  C   UNL     1     -10.928  16.138  67.994  1.00  0.00    -0.338 A  
ENDBRANCH   4   6
ENDBRANCH   3   4
ENDBRANCH   2   3
TORSDOF 3
ENDMDL
MODEL      120
REMARK 921   NORMALIZED FREE ENERGY PREDICTED BY IDOCK:   -2.93 KCAL/MOL
REMARK 922        TOTAL FREE ENERGY PREDICTED BY IDOCK:   -3.76 KCAL/MOL
REMARK 923 INTER-LIGAND FREE ENERGY PREDICTED BY IDOCK:   -3.48 KCAL/MOL
REMARK 924 INTRA-LIGAND FREE ENERGY PREDICTED BY IDOCK:   -0.28 KCAL/MOL
REMARK 927      BINDING AFFINITY PREDICTED BY RF-SCORE:    0.00 PKD
ROOT
HETATM    1  C   UNL     1     -11.418  12.236  69.210  1.00  0.00    -0.352 C  
HETATM    2  C   UNL     1     -11.717  12.898  67.876  1.00  0.00    -0.357 C  
ENDROOT
BRANCH   2   3
HETATM    3  O   UNL     1     -11.833  11.868  66.889  1.00  0.00    -0.590 OA 
BRANCH   3   4
HETATM    4  C   UNL     1     -10.943  11.929  65.868  1.00  0.00    -0.307 C  
HETATM    5  O   UNL     1     -10.674  12.914  65.200  1.00  0.00    -0.289 OA 
BRANCH   4   6
HETATM    6  C   UNL     1     -10.247  10.623  65.739  1.00  0.00    -0.317 A  
HETATM    7  C   UNL     1      -9.254  10.484  64.763  1.00  0.00    -0.266 A  
HETATM    8  C   UNL     1      -8.540   9.285  64.654  1.00  0.00    -0.209 A  
HETATM    9  C   UNL     1      -8.835   8.202  65.483  1.00  0.00    -0.089 A  
HETATM   10  C   UNL     1      -9.776   8.369  66.501  1.00  0.00    -0.330 A  
HETATM   11  N   UNL     1      -8.042   7.049  65.448  1.00  0.00    -0.129 NA 
HETATM   12  H2  UNL     1      -7.072   7.321  65.609  1.00  0.00     0.000 HD 
HETATM   13  H1  UNL     1      -8.258   6.257  66.054  1.00  0.00     0.000 HD 
HETATM   14  C   UNL     1     -10.496   9.560  66.616  1.00  0.00    -0.241 A  
ENDBRANCH   4   6
ENDBRANCH   3   4
ENDBRANCH   2   3
TORSDOF 3
ENDMDL
MODEL      121
REMARK 921   NORMALIZED FREE ENERGY PREDICTED BY IDOCK:   -2.93 KCAL/MOL
REMARK 922        TOTAL FREE ENERGY PREDICTED BY IDOCK:   -3.75 KCAL/MOL
REMARK 923 INTER-LIGAND FREE ENERGY PREDICTED BY IDOCK:   -3.56 KCAL/MOL
REMARK 924 INTRA-LIGAND FREE ENERGY PREDICTED BY IDOCK:   -0.20 KCAL/MOL
REMARK 927      BINDING AFFINITY PREDICTED BY RF-SCORE:    0.00 PKD
ROOT
HETATM    1  C   UNL     1     -12.904  10.772  71.558  1.00  0.00    -0.567 C  
HETATM    2  C   UNL     1     -13.648   9.503  71.936  1.00  0.00    -0.391 C  
ENDROOT
BRANCH   2   3
HETATM    3  O   UNL     1     -12.728   8.636  72.607  1.00  0.00    -0.365 OA 
BRANCH   3   4
HETATM    4  C   UNL     1     -12.381   7.512  71.934  1.00  0.00    -0.310 C  
HETATM    5  O   UNL     1     -12.827   7.146  70.859  1.00  0.00    -0.294 OA 
BRANCH   4   6
HETATM    6  C   UNL     1     -11.281   6.823  72.655  1.00  0.00    -0.291 A  
HETATM    7  C   UNL     1     -11.391   5.448  72.894  1.00  0.00    -0.365 A  
HETATM    8  C   UNL     1     -10.346   4.759  73.521  1.00  0.00    -0.245 A  
HETATM    9  C   UNL     1      -9.203   5.434  73.951  1.00  0.00    -0.122 A  
HETATM   10  C   UNL     1      -9.067   6.790  73.646  1.00  0.00    -0.169 A  
HETATM   11  N   UNL     1      -8.115   4.723  74.470  1.00  0.00    -0.095 NA 
HETATM   12  H2  UNL     1      -7.834   4.021  73.784  1.00  0.00     0.000 HD 
HETATM   13  H1  UNL     1      -7.281   5.216  74.785  1.00  0.00     0.000 HD 
HETATM   14  C   UNL     1     -10.105   7.488  73.025  1.00  0.00    -0.342 A  
ENDBRANCH   4   6
ENDBRANCH   3   4
ENDBRANCH   2   3
TORSDOF 3
ENDMDL
MODEL      122
REMARK 921   NORMALIZED FREE ENERGY PREDICTED BY IDOCK:   -2.92 KCAL/MOL
REMARK 922        TOTAL FREE ENERGY PREDICTED BY IDOCK:   -3.74 KCAL/MOL
REMARK 923 INTER-LIGAND FREE ENERGY PREDICTED BY IDOCK:   -3.49 KCAL/MOL
REMARK 924 INTRA-LIGAND FREE ENERGY PREDICTED BY IDOCK:   -0.25 KCAL/MOL
REMARK 927      BINDING AFFINITY PREDICTED BY RF-SCORE:    0.00 PKD
ROOT
HETATM    1  C   UNL     1      -9.851   7.821  73.302  1.00  0.00    -0.362 C  
HETATM    2  C   UNL     1     -11.109   6.987  73.129  1.00  0.00    -0.224 C  
ENDROOT
BRANCH   2   3
HETATM    3  O   UNL     1     -11.451   6.991  71.739  1.00  0.00    -0.248 OA 
BRANCH   3   4
HETATM    4  C   UNL     1     -10.653   6.247  70.935  1.00  0.00    -0.241 C  
HETATM    5  O   UNL     1     -10.151   5.170  71.209  1.00  0.00    -0.192 OA 
BRANCH   4   6
HETATM    6  C   UNL     1     -10.553   6.894  69.601  1.00  0.00    -0.258 A  
HETATM    7  C   UNL     1      -9.950   8.154  69.509  1.00  0.00    -0.187 A  
HETATM    8  C   UNL     1      -9.789   8.765  68.260  1.00  0.00    -0.185 A  
HETATM    9  C   UNL     1     -10.262   8.151  67.099  1.00  0.00    -0.296 A  
HETATM   10  C   UNL     1     -10.797   6.864  67.188  1.00  0.00    -0.447 A  
HETATM   11  N   UNL     1      -9.995   8.710  65.845  1.00  0.00    -0.442 NA 
HETATM   12  H2  UNL     1      -8.986   8.831  65.755  1.00  0.00     0.000 HD 
HETATM   13  H1  UNL     1     -10.342   8.262  64.997  1.00  0.00     0.000 HD 
HETATM   14  C   UNL     1     -10.965   6.247  68.430  1.00  0.00    -0.409 A  
ENDBRANCH   4   6
ENDBRANCH   3   4
ENDBRANCH   2   3
TORSDOF 3
ENDMDL
MODEL      123
REMARK 921   NORMALIZED FREE ENERGY PREDICTED BY IDOCK:   -2.92 KCAL/MOL
REMARK 922        TOTAL FREE ENERGY PREDICTED BY IDOCK:   -3.74 KCAL/MOL
REMARK 923 INTER-LIGAND FREE ENERGY PREDICTED BY IDOCK:   -3.46 KCAL/MOL
REMARK 924 INTRA-LIGAND FREE ENERGY PREDICTED BY IDOCK:   -0.27 KCAL/MOL
REMARK 927      BINDING AFFINITY PREDICTED BY RF-SCORE:    0.00 PKD
ROOT
HETATM    1  C   UNL     1      -8.130  11.304  66.902  1.00  0.00    -0.155 C  
HETATM    2  C   UNL     1      -9.273  10.341  66.629  1.00  0.00    -0.155 C  
ENDROOT
BRANCH   2   3
HETATM    3  O   UNL     1     -10.443  10.852  67.277  1.00  0.00    -0.208 OA 
BRANCH   3   4
HETATM    4  C   UNL     1     -10.704  10.342  68.505  1.00  0.00    -0.227 C  
HETATM    5  O   UNL     1     -10.363   9.247  68.922  1.00  0.00    -0.204 OA 
BRANCH   4   6
HETATM    6  C   UNL     1     -11.394  11.367  69.330  1.00  0.00    -0.365 A  
HETATM    7  C   UNL     1     -11.920  10.989  70.570  1.00  0.00    -0.474 A  
HETATM    8  C   UNL     1     -12.525  11.944  71.397  1.00  0.00    -0.261 A  
HETATM    9  C   UNL     1     -12.649  13.271  70.981  1.00  0.00    -0.324 A  
HETATM   10  C   UNL     1     -12.059  13.657  69.776  1.00  0.00    -0.396 A  
HETATM   11  N   UNL     1     -13.148  14.241  71.856  1.00  0.00    -0.343 NA 
HETATM   12  H2  UNL     1     -12.587  14.224  72.709  1.00  0.00     0.000 HD 
HETATM   13  H1  UNL     1     -13.240  15.210  71.552  1.00  0.00     0.000 HD 
HETATM   14  C   UNL     1     -11.457  12.711  68.943  1.00  0.00    -0.354 A  
ENDBRANCH   4   6
ENDBRANCH   3   4
ENDBRANCH   2   3
TORSDOF 3
ENDMDL
MODEL      124
REMARK 921   NORMALIZED FREE ENERGY PREDICTED BY IDOCK:   -2.86 KCAL/MOL
REMARK 922        TOTAL FREE ENERGY PREDICTED BY IDOCK:   -3.67 KCAL/MOL
REMARK 923 INTER-LIGAND FREE ENERGY PREDICTED BY IDOCK:   -3.43 KCAL/MOL
REMARK 924 INTRA-LIGAND FREE ENERGY PREDICTED BY IDOCK:   -0.24 KCAL/MOL
REMARK 927      BINDING AFFINITY PREDICTED BY RF-SCORE:    0.00 PKD
ROOT
HETATM    1  C   UNL     1     -10.707  19.345  66.021  1.00  0.00    -0.512 C  
HETATM    2  C   UNL     1     -10.392  17.892  65.712  1.00  0.00    -0.180 C  
ENDROOT
BRANCH   2   3
HETATM    3  O   UNL     1      -9.883  17.288  66.906  1.00  0.00    -0.265 OA 
BRANCH   3   4
HETATM    4  C   UNL     1      -8.571  16.948  66.879  1.00  0.00    -0.214 C  
HETATM    5  O   UNL     1      -8.100  15.916  66.432  1.00  0.00    -0.265 OA 
BRANCH   4   6
HETATM    6  C   UNL     1      -7.757  18.081  67.390  1.00  0.00    -0.216 A  
HETATM    7  C   UNL     1      -8.165  18.727  68.562  1.00  0.00    -0.379 A  
HETATM    8  C   UNL     1      -7.388  19.760  69.100  1.00  0.00    -0.290 A  
HETATM    9  C   UNL     1      -6.225  20.186  68.458  1.00  0.00    -0.292 A  
HETATM   10  C   UNL     1      -5.784  19.491  67.331  1.00  0.00    -0.180 A  
HETATM   11  N   UNL     1      -5.393  21.137  69.061  1.00  0.00    -0.423 NA 
HETATM   12  H2  UNL     1      -5.141  20.800  69.991  1.00  0.00     0.000 HD 
HETATM   13  H1  UNL     1      -4.543  21.449  68.592  1.00  0.00     0.000 HD 
HETATM   14  C   UNL     1      -6.554  18.462  66.783  1.00  0.00    -0.212 A  
ENDBRANCH   4   6
ENDBRANCH   3   4
ENDBRANCH   2   3
TORSDOF 3
ENDMDL
MODEL      125
REMARK 921   NORMALIZED FREE ENERGY PREDICTED BY IDOCK:   -2.84 KCAL/MOL
REMARK 922        TOTAL FREE ENERGY PREDICTED BY IDOCK:   -3.65 KCAL/MOL
REMARK 923 INTER-LIGAND FREE ENERGY PREDICTED BY IDOCK:   -3.52 KCAL/MOL
REMARK 924 INTRA-LIGAND FREE ENERGY PREDICTED BY IDOCK:   -0.13 KCAL/MOL
REMARK 927      BINDING AFFINITY PREDICTED BY RF-SCORE:    0.00 PKD
ROOT
HETATM    1  C   UNL     1     -12.639  15.049  70.308  1.00  0.00    -0.363 C  
HETATM    2  C   UNL     1     -11.531  14.154  69.780  1.00  0.00    -0.250 C  
ENDROOT
BRANCH   2   3
HETATM    3  O   UNL     1     -12.128  12.930  69.338  1.00  0.00    -0.275 OA 
BRANCH   3   4
HETATM    4  C   UNL     1     -11.331  12.123  68.594  1.00  0.00    -0.280 C  
HETATM    5  O   UNL     1     -10.783  12.415  67.544  1.00  0.00    -0.221 OA 
BRANCH   4   6
HETATM    6  C   UNL     1     -11.131  10.834  69.305  1.00  0.00    -0.312 A  
HETATM    7  C   UNL     1     -11.629  10.700  70.606  1.00  0.00    -0.432 A  
HETATM    8  C   UNL     1     -11.507   9.480  71.282  1.00  0.00    -0.447 A  
HETATM    9  C   UNL     1     -10.854   8.399  70.689  1.00  0.00    -0.231 A  
HETATM   10  C   UNL     1     -10.424   8.515  69.366  1.00  0.00    -0.223 A  
HETATM   11  N   UNL     1     -10.838   7.150  71.321  1.00  0.00    -0.231 NA 
HETATM   12  H2  UNL     1     -11.802   6.876  71.515  1.00  0.00     0.000 HD 
HETATM   13  H1  UNL     1     -10.360   6.360  70.888  1.00  0.00     0.000 HD 
HETATM   14  C   UNL     1     -10.537   9.729  68.684  1.00  0.00    -0.249 A  
ENDBRANCH   4   6
ENDBRANCH   3   4
ENDBRANCH   2   3
TORSDOF 3
ENDMDL
MODEL      126
REMARK 921   NORMALIZED FREE ENERGY PREDICTED BY IDOCK:   -2.84 KCAL/MOL
REMARK 922        TOTAL FREE ENERGY PREDICTED BY IDOCK:   -3.64 KCAL/MOL
REMARK 923 INTER-LIGAND FREE ENERGY PREDICTED BY IDOCK:   -3.46 KCAL/MOL
REMARK 924 INTRA-LIGAND FREE ENERGY PREDICTED BY IDOCK:   -0.19 KCAL/MOL
REMARK 927      BINDING AFFINITY PREDICTED BY RF-SCORE:    0.00 PKD
ROOT
HETATM    1  C   UNL     1      -9.442   4.192  65.359  1.00  0.00    -0.173 C  
HETATM    2  C   UNL     1     -10.658   4.763  66.068  1.00  0.00    -0.254 C  
ENDROOT
BRANCH   2   3
HETATM    3  O   UNL     1     -10.246   5.196  67.369  1.00  0.00    -0.188 OA 
BRANCH   3   4
HETATM    4  C   UNL     1     -10.436   6.511  67.638  1.00  0.00    -0.230 C  
HETATM    5  O   UNL     1     -10.563   7.407  66.820  1.00  0.00    -0.310 OA 
BRANCH   4   6
HETATM    6  C   UNL     1     -10.575   6.700  69.105  1.00  0.00    -0.280 A  
HETATM    7  C   UNL     1     -10.651   8.003  69.610  1.00  0.00    -0.223 A  
HETATM    8  C   UNL     1     -10.840   8.214  70.982  1.00  0.00    -0.265 A  
HETATM    9  C   UNL     1     -10.912   7.136  71.866  1.00  0.00    -0.231 A  
HETATM   10  C   UNL     1     -10.908   5.840  71.349  1.00  0.00    -0.316 A  
HETATM   11  N   UNL     1     -11.217   7.349  73.215  1.00  0.00    -0.596 NA 
HETATM   12  H2  UNL     1     -12.094   7.867  73.268  1.00  0.00     0.000 HD 
HETATM   13  H1  UNL     1     -11.269   6.562  73.861  1.00  0.00     0.000 HD 
HETATM   14  C   UNL     1     -10.717   5.618  69.983  1.00  0.00    -0.390 A  
ENDBRANCH   4   6
ENDBRANCH   3   4
ENDBRANCH   2   3
TORSDOF 3
ENDMDL
MODEL      127
REMARK 921   NORMALIZED FREE ENERGY PREDICTED BY IDOCK:   -2.83 KCAL/MOL
REMARK 922        TOTAL FREE ENERGY PREDICTED BY IDOCK:   -3.63 KCAL/MOL
REMARK 923 INTER-LIGAND FREE ENERGY PREDICTED BY IDOCK:   -3.44 KCAL/MOL
REMARK 924 INTRA-LIGAND FREE ENERGY PREDICTED BY IDOCK:   -0.19 KCAL/MOL
REMARK 927      BINDING AFFINITY PREDICTED BY RF-SCORE:    0.00 PKD
ROOT
HETATM    1  C   UNL     1     -12.091  14.085  64.253  1.00  0.00    -0.476 C  
HETATM    2  C   UNL     1     -12.354  12.630  64.599  1.00  0.00    -0.476 C  
ENDROOT
BRANCH   2   3
HETATM    3  O   UNL     1     -11.226  12.141  65.333  1.00  0.00    -0.314 OA 
BRANCH   3   4
HETATM    4  C   UNL     1     -10.525  11.145  64.738  1.00  0.00    -0.323 C  
HETATM    5  O   UNL     1     -10.150  11.117  63.577  1.00  0.00    -0.316 OA 
BRANCH   4   6
HETATM    6  C   UNL     1     -10.179  10.112  65.748  1.00  0.00    -0.283 A  
HETATM    7  C   UNL     1      -9.395   9.023  65.353  1.00  0.00    -0.213 A  
HETATM    8  C   UNL     1      -9.003   8.062  66.294  1.00  0.00    -0.208 A  
HETATM    9  C   UNL     1      -9.422   8.153  67.622  1.00  0.00    -0.145 A  
HETATM   10  C   UNL     1     -10.143   9.279  68.025  1.00  0.00    -0.234 A  
HETATM   11  N   UNL     1      -8.933   7.257  68.579  1.00  0.00    -0.131 NA 
HETATM   12  H2  UNL     1      -7.914   7.292  68.561  1.00  0.00     0.000 HD 
HETATM   13  H1  UNL     1      -9.240   7.323  69.550  1.00  0.00     0.000 HD 
HETATM   14  C   UNL     1     -10.541  10.241  67.094  1.00  0.00    -0.320 A  
ENDBRANCH   4   6
ENDBRANCH   3   4
ENDBRANCH   2   3
TORSDOF 3
ENDMDL
MODEL      128
REMARK 921   NORMALIZED FREE ENERGY PREDICTED BY IDOCK:   -2.81 KCAL/MOL
REMARK 922        TOTAL FREE ENERGY PREDICTED BY IDOCK:   -3.61 KCAL/MOL
REMARK 923 INTER-LIGAND FREE ENERGY PREDICTED BY IDOCK:   -3.37 KCAL/MOL
REMARK 924 INTRA-LIGAND FREE ENERGY PREDICTED BY IDOCK:   -0.24 KCAL/MOL
REMARK 927      BINDING AFFINITY PREDICTED BY RF-SCORE:    0.00 PKD
ROOT
HETATM    1  C   UNL     1      -9.226   7.722  66.393  1.00  0.00    -0.229 C  
HETATM    2  C   UNL     1     -10.011   9.009  66.581  1.00  0.00    -0.278 C  
ENDROOT
BRANCH   2   3
HETATM    3  O   UNL     1      -9.671   9.548  67.863  1.00  0.00    -0.142 OA 
BRANCH   3   4
HETATM    4  C   UNL     1     -10.709  10.022  68.595  1.00  0.00    -0.226 C  
HETATM    5  O   UNL     1     -11.529  10.851  68.236  1.00  0.00    -0.294 OA 
BRANCH   4   6
HETATM    6  C   UNL     1     -10.771   9.299  69.892  1.00  0.00    -0.253 A  
HETATM    7  C   UNL     1      -9.578   8.851  70.469  1.00  0.00    -0.242 A  
HETATM    8  C   UNL     1      -9.597   8.217  71.717  1.00  0.00    -0.274 A  
HETATM    9  C   UNL     1     -10.803   7.987  72.381  1.00  0.00    -0.327 A  
HETATM   10  C   UNL     1     -11.981   8.500  71.836  1.00  0.00    -0.409 A  
HETATM   11  N   UNL     1     -10.805   7.460  73.678  1.00  0.00    -0.524 NA 
HETATM   12  H2  UNL     1     -10.222   8.055  74.268  1.00  0.00     0.000 HD 
HETATM   13  H1  UNL     1     -11.686   7.291  74.163  1.00  0.00     0.000 HD 
HETATM   14  C   UNL     1     -11.973   9.130  70.590  1.00  0.00    -0.171 A  
ENDBRANCH   4   6
ENDBRANCH   3   4
ENDBRANCH   2   3
TORSDOF 3
ENDMDL
MODEL      129
REMARK 921   NORMALIZED FREE ENERGY PREDICTED BY IDOCK:   -2.81 KCAL/MOL
REMARK 922        TOTAL FREE ENERGY PREDICTED BY IDOCK:   -3.61 KCAL/MOL
REMARK 923 INTER-LIGAND FREE ENERGY PREDICTED BY IDOCK:   -4.05 KCAL/MOL
REMARK 924 INTRA-LIGAND FREE ENERGY PREDICTED BY IDOCK:    0.44 KCAL/MOL
REMARK 927      BINDING AFFINITY PREDICTED BY RF-SCORE:    0.00 PKD
ROOT
HETATM    1  C   UNL     1     -12.285  14.434  65.175  1.00  0.00    -0.393 C  
HETATM    2  C   UNL     1     -10.829  14.811  65.385  1.00  0.00    -0.363 C  
ENDROOT
BRANCH   2   3
HETATM    3  O   UNL     1     -10.645  16.145  64.898  1.00  0.00    -0.622 OA 
BRANCH   3   4
HETATM    4  C   UNL     1     -10.257  17.059  65.821  1.00  0.00    -0.245 C  
HETATM    5  O   UNL     1     -10.534  18.247  65.825  1.00  0.00    -0.589 OA 
BRANCH   4   6
HETATM    6  C   UNL     1      -9.511  16.376  66.910  1.00  0.00    -0.249 A  
HETATM    7  C   UNL     1      -8.297  15.752  66.604  1.00  0.00    -0.319 A  
HETATM    8  C   UNL     1      -7.542  15.150  67.618  1.00  0.00    -0.194 A  
HETATM    9  C   UNL     1      -8.007  15.126  68.934  1.00  0.00    -0.178 A  
HETATM   10  C   UNL     1      -9.183  15.812  69.246  1.00  0.00    -0.266 A  
HETATM   11  N   UNL     1      -7.197  14.627  69.960  1.00  0.00    -0.387 NA 
HETATM   12  H2  UNL     1      -6.310  15.131  69.943  1.00  0.00     0.000 HD 
HETATM   13  H1  UNL     1      -7.537  14.609  70.922  1.00  0.00     0.000 HD 
HETATM   14  C   UNL     1      -9.944  16.412  68.241  1.00  0.00    -0.243 A  
ENDBRANCH   4   6
ENDBRANCH   3   4
ENDBRANCH   2   3
TORSDOF 3
ENDMDL
MODEL      130
REMARK 921   NORMALIZED FREE ENERGY PREDICTED BY IDOCK:   -2.79 KCAL/MOL
REMARK 922        TOTAL FREE ENERGY PREDICTED BY IDOCK:   -3.59 KCAL/MOL
REMARK 923 INTER-LIGAND FREE ENERGY PREDICTED BY IDOCK:   -3.31 KCAL/MOL
REMARK 924 INTRA-LIGAND FREE ENERGY PREDICTED BY IDOCK:   -0.28 KCAL/MOL
REMARK 927      BINDING AFFINITY PREDICTED BY RF-SCORE:    0.00 PKD
ROOT
HETATM    1  C   UNL     1     -13.842   7.487  71.502  1.00  0.00    -0.487 C  
HETATM    2  C   UNL     1     -13.155   8.728  72.045  1.00  0.00    -0.392 C  
ENDROOT
BRANCH   2   3
HETATM    3  O   UNL     1     -12.189   8.308  73.015  1.00  0.00    -0.228 OA 
BRANCH   3   4
HETATM    4  C   UNL     1     -10.934   8.107  72.545  1.00  0.00    -0.369 C  
HETATM    5  O   UNL     1     -10.225   8.934  71.995  1.00  0.00    -0.334 OA 
BRANCH   4   6
HETATM    6  C   UNL     1     -10.491   6.732  72.891  1.00  0.00    -0.260 A  
HETATM    7  C   UNL     1      -9.934   6.503  74.155  1.00  0.00    -0.344 A  
HETATM    8  C   UNL     1      -9.560   5.208  74.533  1.00  0.00    -0.163 A  
HETATM    9  C   UNL     1      -9.696   4.139  73.646  1.00  0.00    -0.112 A  
HETATM   10  C   UNL     1     -10.317   4.360  72.416  1.00  0.00    -0.241 A  
HETATM   11  N   UNL     1      -9.429   2.832  74.070  1.00  0.00    -0.087 NA 
HETATM   12  H2  UNL     1      -9.999   2.639  74.894  1.00  0.00     0.000 HD 
HETATM   13  H1  UNL     1      -9.528   2.051  73.422  1.00  0.00     0.000 HD 
HETATM   14  C   UNL     1     -10.691   5.648  72.027  1.00  0.00    -0.291 A  
ENDBRANCH   4   6
ENDBRANCH   3   4
ENDBRANCH   2   3
TORSDOF 3
ENDMDL
MODEL      131
REMARK 921   NORMALIZED FREE ENERGY PREDICTED BY IDOCK:   -2.78 KCAL/MOL
REMARK 922        TOTAL FREE ENERGY PREDICTED BY IDOCK:   -3.58 KCAL/MOL
REMARK 923 INTER-LIGAND FREE ENERGY PREDICTED BY IDOCK:   -3.45 KCAL/MOL
REMARK 924 INTRA-LIGAND FREE ENERGY PREDICTED BY IDOCK:   -0.12 KCAL/MOL
REMARK 927      BINDING AFFINITY PREDICTED BY RF-SCORE:    0.00 PKD
ROOT
HETATM    1  C   UNL     1      -8.092  11.816  67.980  1.00  0.00    -0.145 C  
HETATM    2  C   UNL     1      -9.291  12.708  67.709  1.00  0.00    -0.198 C  
ENDROOT
BRANCH   2   3
HETATM    3  O   UNL     1      -8.960  13.571  66.616  1.00  0.00    -0.210 OA 
BRANCH   3   4
HETATM    4  C   UNL     1      -9.992  14.275  66.090  1.00  0.00    -0.314 C  
HETATM    5  O   UNL     1     -10.835  13.855  65.315  1.00  0.00    -0.304 OA 
BRANCH   4   6
HETATM    6  C   UNL     1     -10.015  15.637  66.684  1.00  0.00    -0.269 A  
HETATM    7  C   UNL     1     -10.878  15.888  67.757  1.00  0.00    -0.324 A  
HETATM    8  C   UNL     1     -10.881  17.144  68.375  1.00  0.00    -0.309 A  
HETATM    9  C   UNL     1     -10.060  18.171  67.907  1.00  0.00    -0.357 A  
HETATM   10  C   UNL     1      -9.151  17.894  66.885  1.00  0.00    -0.266 A  
HETATM   11  N   UNL     1      -9.983  19.385  68.600  1.00  0.00    -0.425 NA 
HETATM   12  H2  UNL     1      -9.729  19.186  69.568  1.00  0.00     0.000 HD 
HETATM   13  H1  UNL     1      -9.384  20.135  68.258  1.00  0.00     0.000 HD 
HETATM   14  C   UNL     1      -9.142  16.646  66.259  1.00  0.00    -0.333 A  
ENDBRANCH   4   6
ENDBRANCH   3   4
ENDBRANCH   2   3
TORSDOF 3
ENDMDL
MODEL      132
REMARK 921   NORMALIZED FREE ENERGY PREDICTED BY IDOCK:   -2.77 KCAL/MOL
REMARK 922        TOTAL FREE ENERGY PREDICTED BY IDOCK:   -3.57 KCAL/MOL
REMARK 923 INTER-LIGAND FREE ENERGY PREDICTED BY IDOCK:   -3.46 KCAL/MOL
REMARK 924 INTRA-LIGAND FREE ENERGY PREDICTED BY IDOCK:   -0.11 KCAL/MOL
REMARK 927      BINDING AFFINITY PREDICTED BY RF-SCORE:    0.00 PKD
ROOT
HETATM    1  C   UNL     1     -10.472  19.651  66.164  1.00  0.00    -0.624 C  
HETATM    2  C   UNL     1     -10.422  18.251  66.751  1.00  0.00    -0.365 C  
ENDROOT
BRANCH   2   3
HETATM    3  O   UNL     1     -10.286  18.373  68.170  1.00  0.00    -0.353 OA 
BRANCH   3   4
HETATM    4  C   UNL     1     -10.095  17.213  68.844  1.00  0.00    -0.322 C  
HETATM    5  O   UNL     1     -10.872  16.695  69.630  1.00  0.00    -0.341 OA 
BRANCH   4   6
HETATM    6  C   UNL     1      -8.820  16.589  68.405  1.00  0.00    -0.218 A  
HETATM    7  C   UNL     1      -7.623  17.276  68.634  1.00  0.00    -0.260 A  
HETATM    8  C   UNL     1      -6.400  16.691  68.284  1.00  0.00    -0.136 A  
HETATM    9  C   UNL     1      -6.359  15.440  67.668  1.00  0.00    -0.151 A  
HETATM   10  C   UNL     1      -7.550  14.728  67.507  1.00  0.00    -0.215 A  
HETATM   11  N   UNL     1      -5.132  14.810  67.427  1.00  0.00    -0.310 NA 
HETATM   12  H2  UNL     1      -4.624  14.749  68.310  1.00  0.00     0.000 HD 
HETATM   13  H1  UNL     1      -5.102  13.896  66.976  1.00  0.00     0.000 HD 
HETATM   14  C   UNL     1      -8.775  15.305  67.850  1.00  0.00    -0.164 A  
ENDBRANCH   4   6
ENDBRANCH   3   4
ENDBRANCH   2   3
TORSDOF 3
ENDMDL
MODEL      133
REMARK 921   NORMALIZED FREE ENERGY PREDICTED BY IDOCK:   -2.76 KCAL/MOL
REMARK 922        TOTAL FREE ENERGY PREDICTED BY IDOCK:   -3.56 KCAL/MOL
REMARK 923 INTER-LIGAND FREE ENERGY PREDICTED BY IDOCK:   -3.37 KCAL/MOL
REMARK 924 INTRA-LIGAND FREE ENERGY PREDICTED BY IDOCK:   -0.19 KCAL/MOL
REMARK 927      BINDING AFFINITY PREDICTED BY RF-SCORE:    0.00 PKD
ROOT
HETATM    1  C   UNL     1      -9.502   4.369  69.569  1.00  0.00    -0.251 C  
HETATM    2  C   UNL     1     -10.494   5.505  69.389  1.00  0.00    -0.290 C  
ENDROOT
BRANCH   2   3
HETATM    3  O   UNL     1      -9.754   6.729  69.326  1.00  0.00    -0.150 OA 
BRANCH   3   4
HETATM    4  C   UNL     1     -10.104   7.674  70.233  1.00  0.00    -0.198 C  
HETATM    5  O   UNL     1      -9.936   7.616  71.440  1.00  0.00    -0.181 OA 
BRANCH   4   6
HETATM    6  C   UNL     1     -10.643   8.864  69.526  1.00  0.00    -0.233 A  
HETATM    7  C   UNL     1     -11.171   9.914  70.284  1.00  0.00    -0.364 A  
HETATM    8  C   UNL     1     -11.634  11.074  69.650  1.00  0.00    -0.390 A  
HETATM    9  C   UNL     1     -11.614  11.182  68.258  1.00  0.00    -0.289 A  
HETATM   10  C   UNL     1     -11.020  10.163  67.512  1.00  0.00    -0.319 A  
HETATM   11  N   UNL     1     -11.968  12.386  67.639  1.00  0.00    -0.481 NA 
HETATM   12  H2  UNL     1     -11.387  13.130  68.026  1.00  0.00     0.000 HD 
HETATM   13  H1  UNL     1     -11.954  12.464  66.622  1.00  0.00     0.000 HD 
HETATM   14  C   UNL     1     -10.559   9.000  68.135  1.00  0.00    -0.225 A  
ENDBRANCH   4   6
ENDBRANCH   3   4
ENDBRANCH   2   3
TORSDOF 3
ENDMDL
MODEL      134
REMARK 921   NORMALIZED FREE ENERGY PREDICTED BY IDOCK:   -2.76 KCAL/MOL
REMARK 922        TOTAL FREE ENERGY PREDICTED BY IDOCK:   -3.55 KCAL/MOL
REMARK 923 INTER-LIGAND FREE ENERGY PREDICTED BY IDOCK:   -3.25 KCAL/MOL
REMARK 924 INTRA-LIGAND FREE ENERGY PREDICTED BY IDOCK:   -0.30 KCAL/MOL
REMARK 927      BINDING AFFINITY PREDICTED BY RF-SCORE:    0.00 PKD
ROOT
HETATM    1  C   UNL     1      -8.633   8.145  72.943  1.00  0.00    -0.269 C  
HETATM    2  C   UNL     1      -9.937   7.654  73.548  1.00  0.00    -0.295 C  
ENDROOT
BRANCH   2   3
HETATM    3  O   UNL     1     -10.869   7.452  72.481  1.00  0.00    -0.241 OA 
BRANCH   3   4
HETATM    4  C   UNL     1     -11.174   6.160  72.204  1.00  0.00    -0.287 C  
HETATM    5  O   UNL     1     -11.790   5.392  72.924  1.00  0.00    -0.263 OA 
BRANCH   4   6
HETATM    6  C   UNL     1     -10.731   5.832  70.825  1.00  0.00    -0.342 A  
HETATM    7  C   UNL     1     -11.415   6.404  69.746  1.00  0.00    -0.468 A  
HETATM    8  C   UNL     1     -10.986   6.160  68.435  1.00  0.00    -0.391 A  
HETATM    9  C   UNL     1      -9.904   5.315  68.185  1.00  0.00    -0.150 A  
HETATM   10  C   UNL     1      -9.182   4.807  69.266  1.00  0.00    -0.172 A  
HETATM   11  N   UNL     1      -9.409   5.169  66.884  1.00  0.00    -0.124 NA 
HETATM   12  H2  UNL     1      -9.184   6.095  66.519  1.00  0.00     0.000 HD 
HETATM   13  H1  UNL     1      -8.618   4.552  66.700  1.00  0.00     0.000 HD 
HETATM   14  C   UNL     1      -9.603   5.041  70.577  1.00  0.00    -0.252 A  
ENDBRANCH   4   6
ENDBRANCH   3   4
ENDBRANCH   2   3
TORSDOF 3
ENDMDL
MODEL      135
REMARK 921   NORMALIZED FREE ENERGY PREDICTED BY IDOCK:   -2.73 KCAL/MOL
REMARK 922        TOTAL FREE ENERGY PREDICTED BY IDOCK:   -3.52 KCAL/MOL
REMARK 923 INTER-LIGAND FREE ENERGY PREDICTED BY IDOCK:   -3.25 KCAL/MOL
REMARK 924 INTRA-LIGAND FREE ENERGY PREDICTED BY IDOCK:   -0.27 KCAL/MOL
REMARK 927      BINDING AFFINITY PREDICTED BY RF-SCORE:    0.00 PKD
ROOT
HETATM    1  C   UNL     1     -11.842  12.907  67.301  1.00  0.00    -0.416 C  
HETATM    2  C   UNL     1     -10.575  12.497  66.571  1.00  0.00    -0.242 C  
ENDROOT
BRANCH   2   3
HETATM    3  O   UNL     1      -9.986  11.408  67.291  1.00  0.00    -0.191 OA 
BRANCH   3   4
HETATM    4  C   UNL     1     -10.126  10.185  66.724  1.00  0.00    -0.219 C  
HETATM    5  O   UNL     1      -9.954   9.908  65.548  1.00  0.00    -0.304 OA 
BRANCH   4   6
HETATM    6  C   UNL     1     -10.428   9.183  67.778  1.00  0.00    -0.306 A  
HETATM    7  C   UNL     1     -10.636   7.851  67.400  1.00  0.00    -0.342 A  
HETATM    8  C   UNL     1     -10.865   6.873  68.374  1.00  0.00    -0.238 A  
HETATM    9  C   UNL     1     -10.932   7.214  69.726  1.00  0.00    -0.231 A  
HETATM   10  C   UNL     1     -10.653   8.529  70.103  1.00  0.00    -0.238 A  
HETATM   11  N   UNL     1     -11.045   6.217  70.701  1.00  0.00    -0.305 NA 
HETATM   12  H2  UNL     1     -10.278   5.556  70.575  1.00  0.00     0.000 HD 
HETATM   13  H1  UNL     1     -11.095   6.467  71.689  1.00  0.00     0.000 HD 
HETATM   14  C   UNL     1     -10.426   9.513  69.138  1.00  0.00    -0.224 A  
ENDBRANCH   4   6
ENDBRANCH   3   4
ENDBRANCH   2   3
TORSDOF 3
ENDMDL
MODEL      136
REMARK 921   NORMALIZED FREE ENERGY PREDICTED BY IDOCK:   -2.73 KCAL/MOL
REMARK 922        TOTAL FREE ENERGY PREDICTED BY IDOCK:   -3.52 KCAL/MOL
REMARK 923 INTER-LIGAND FREE ENERGY PREDICTED BY IDOCK:   -3.27 KCAL/MOL
REMARK 924 INTRA-LIGAND FREE ENERGY PREDICTED BY IDOCK:   -0.24 KCAL/MOL
REMARK 927      BINDING AFFINITY PREDICTED BY RF-SCORE:    0.00 PKD
ROOT
HETATM    1  C   UNL     1     -10.709  11.707  64.775  1.00  0.00    -0.365 C  
HETATM    2  C   UNL     1     -10.715  11.102  66.168  1.00  0.00    -0.225 C  
ENDROOT
BRANCH   2   3
HETATM    3  O   UNL     1     -11.076  12.132  67.094  1.00  0.00    -0.259 OA 
BRANCH   3   4
HETATM    4  C   UNL     1     -10.110  12.497  67.973  1.00  0.00    -0.220 C  
HETATM    5  O   UNL     1      -9.286  11.761  68.490  1.00  0.00    -0.198 OA 
BRANCH   4   6
HETATM    6  C   UNL     1     -10.130  13.973  68.145  1.00  0.00    -0.244 A  
HETATM    7  C   UNL     1     -11.331  14.658  67.933  1.00  0.00    -0.332 A  
HETATM    8  C   UNL     1     -11.397  16.041  68.142  1.00  0.00    -0.289 A  
HETATM    9  C   UNL     1     -10.262  16.759  68.522  1.00  0.00    -0.298 A  
HETATM   10  C   UNL     1      -9.086  16.061  68.802  1.00  0.00    -0.222 A  
HETATM   11  N   UNL     1     -10.361  18.117  68.843  1.00  0.00    -0.436 NA 
HETATM   12  H2  UNL     1     -11.068  18.225  69.571  1.00  0.00     0.000 HD 
HETATM   13  H1  UNL     1      -9.532  18.642  69.120  1.00  0.00     0.000 HD 
HETATM   14  C   UNL     1      -9.009  14.682  68.593  1.00  0.00    -0.184 A  
ENDBRANCH   4   6
ENDBRANCH   3   4
ENDBRANCH   2   3
TORSDOF 3
ENDMDL
MODEL      137
REMARK 921   NORMALIZED FREE ENERGY PREDICTED BY IDOCK:   -2.72 KCAL/MOL
REMARK 922        TOTAL FREE ENERGY PREDICTED BY IDOCK:   -3.51 KCAL/MOL
REMARK 923 INTER-LIGAND FREE ENERGY PREDICTED BY IDOCK:   -3.23 KCAL/MOL
REMARK 924 INTRA-LIGAND FREE ENERGY PREDICTED BY IDOCK:   -0.27 KCAL/MOL
REMARK 927      BINDING AFFINITY PREDICTED BY RF-SCORE:    0.00 PKD
ROOT
HETATM    1  C   UNL     1     -13.105   8.731  71.918  1.00  0.00    -0.420 C  
HETATM    2  C   UNL     1     -12.713   7.370  71.368  1.00  0.00    -0.369 C  
ENDROOT
BRANCH   2   3
HETATM    3  O   UNL     1     -11.311   7.400  71.080  1.00  0.00    -0.262 OA 
BRANCH   3   4
HETATM    4  C   UNL     1     -10.963   7.043  69.820  1.00  0.00    -0.250 C  
HETATM    5  O   UNL     1     -11.057   5.929  69.330  1.00  0.00    -0.363 OA 
BRANCH   4   6
HETATM    6  C   UNL     1     -10.534   8.249  69.065  1.00  0.00    -0.212 A  
HETATM    7  C   UNL     1     -10.102   9.371  69.780  1.00  0.00    -0.229 A  
HETATM    8  C   UNL     1      -9.637  10.502  69.098  1.00  0.00    -0.214 A  
HETATM    9  C   UNL     1      -9.638  10.543  67.703  1.00  0.00    -0.157 A  
HETATM   10  C   UNL     1     -10.002   9.396  66.995  1.00  0.00    -0.282 A  
HETATM   11  N   UNL     1      -9.065  11.628  67.028  1.00  0.00    -0.174 NA 
HETATM   12  H2  UNL     1      -8.103  11.736  67.352  1.00  0.00     0.000 HD 
HETATM   13  H1  UNL     1      -9.066  11.658  66.009  1.00  0.00     0.000 HD 
HETATM   14  C   UNL     1     -10.470   8.264  67.666  1.00  0.00    -0.303 A  
ENDBRANCH   4   6
ENDBRANCH   3   4
ENDBRANCH   2   3
TORSDOF 3
ENDMDL
MODEL      138
REMARK 921   NORMALIZED FREE ENERGY PREDICTED BY IDOCK:   -2.71 KCAL/MOL
REMARK 922        TOTAL FREE ENERGY PREDICTED BY IDOCK:   -3.49 KCAL/MOL
REMARK 923 INTER-LIGAND FREE ENERGY PREDICTED BY IDOCK:   -3.55 KCAL/MOL
REMARK 924 INTRA-LIGAND FREE ENERGY PREDICTED BY IDOCK:    0.06 KCAL/MOL
REMARK 927      BINDING AFFINITY PREDICTED BY RF-SCORE:    0.00 PKD
ROOT
HETATM    1  C   UNL     1     -12.466  12.384  63.231  1.00  0.00    -0.449 C  
HETATM    2  C   UNL     1     -11.168  12.117  63.974  1.00  0.00    -0.390 C  
ENDROOT
BRANCH   2   3
HETATM    3  O   UNL     1     -10.491  13.367  64.140  1.00  0.00    -0.393 OA 
BRANCH   3   4
HETATM    4  C   UNL     1     -10.823  14.072  65.249  1.00  0.00    -0.347 C  
HETATM    5  O   UNL     1     -11.834  14.735  65.410  1.00  0.00    -0.330 OA 
BRANCH   4   6
HETATM    6  C   UNL     1      -9.807  13.837  66.307  1.00  0.00    -0.314 A  
HETATM    7  C   UNL     1      -9.006  14.907  66.719  1.00  0.00    -0.295 A  
HETATM    8  C   UNL     1      -8.079  14.733  67.754  1.00  0.00    -0.161 A  
HETATM    9  C   UNL     1      -7.911  13.485  68.358  1.00  0.00    -0.142 A  
HETATM   10  C   UNL     1      -8.762  12.440  67.993  1.00  0.00    -0.186 A  
HETATM   11  N   UNL     1      -7.069  13.345  69.467  1.00  0.00    -0.322 NA 
HETATM   12  H2  UNL     1      -7.366  14.010  70.182  1.00  0.00     0.000 HD 
HETATM   13  H1  UNL     1      -6.946  12.434  69.907  1.00  0.00     0.000 HD 
HETATM   14  C   UNL     1      -9.687  12.604  66.959  1.00  0.00    -0.225 A  
ENDBRANCH   4   6
ENDBRANCH   3   4
ENDBRANCH   2   3
TORSDOF 3
ENDMDL
MODEL      139
REMARK 921   NORMALIZED FREE ENERGY PREDICTED BY IDOCK:   -2.70 KCAL/MOL
REMARK 922        TOTAL FREE ENERGY PREDICTED BY IDOCK:   -3.48 KCAL/MOL
REMARK 923 INTER-LIGAND FREE ENERGY PREDICTED BY IDOCK:   -3.24 KCAL/MOL
REMARK 924 INTRA-LIGAND FREE ENERGY PREDICTED BY IDOCK:   -0.24 KCAL/MOL
REMARK 927      BINDING AFFINITY PREDICTED BY RF-SCORE:    0.00 PKD
ROOT
HETATM    1  C   UNL     1      -7.228   6.278  68.289  1.00  0.00    -0.085 C  
HETATM    2  C   UNL     1      -8.228   6.971  67.380  1.00  0.00    -0.119 C  
ENDROOT
BRANCH   2   3
HETATM    3  O   UNL     1      -9.351   7.361  68.178  1.00  0.00    -0.136 OA 
BRANCH   3   4
HETATM    4  C   UNL     1     -10.386   6.487  68.202  1.00  0.00    -0.187 C  
HETATM    5  O   UNL     1     -10.948   6.002  67.233  1.00  0.00    -0.313 OA 
BRANCH   4   6
HETATM    6  C   UNL     1     -10.684   6.111  69.608  1.00  0.00    -0.385 A  
HETATM    7  C   UNL     1      -9.961   5.065  70.192  1.00  0.00    -0.328 A  
HETATM    8  C   UNL     1     -10.178   4.725  71.533  1.00  0.00    -0.246 A  
HETATM    9  C   UNL     1     -11.142   5.391  72.290  1.00  0.00    -0.196 A  
HETATM   10  C   UNL     1     -11.808   6.480  71.726  1.00  0.00    -0.384 A  
HETATM   11  N   UNL     1     -11.272   5.126  73.658  1.00  0.00    -0.441 NA 
HETATM   12  H2  UNL     1     -10.363   5.266  74.101  1.00  0.00     0.000 HD 
HETATM   13  H1  UNL     1     -11.976   5.613  74.212  1.00  0.00     0.000 HD 
HETATM   14  C   UNL     1     -11.602   6.825  70.388  1.00  0.00    -0.422 A  
ENDBRANCH   4   6
ENDBRANCH   3   4
ENDBRANCH   2   3
TORSDOF 3
ENDMDL
MODEL      140
REMARK 921   NORMALIZED FREE ENERGY PREDICTED BY IDOCK:   -2.69 KCAL/MOL
REMARK 922        TOTAL FREE ENERGY PREDICTED BY IDOCK:   -3.47 KCAL/MOL
REMARK 923 INTER-LIGAND FREE ENERGY PREDICTED BY IDOCK:   -3.25 KCAL/MOL
REMARK 924 INTRA-LIGAND FREE ENERGY PREDICTED BY IDOCK:   -0.22 KCAL/MOL
REMARK 927      BINDING AFFINITY PREDICTED BY RF-SCORE:    0.00 PKD
ROOT
HETATM    1  C   UNL     1      -9.311   5.617  70.274  1.00  0.00    -0.186 C  
HETATM    2  C   UNL     1      -9.750   6.868  69.535  1.00  0.00    -0.158 C  
ENDROOT
BRANCH   2   3
HETATM    3  O   UNL     1      -8.775   7.888  69.776  1.00  0.00    -0.135 OA 
BRANCH   3   4
HETATM    4  C   UNL     1      -9.179   8.911  70.567  1.00  0.00    -0.203 C  
HETATM    5  O   UNL     1      -8.893   9.075  71.742  1.00  0.00    -0.348 OA 
BRANCH   4   6
HETATM    6  C   UNL     1      -9.954   9.887  69.758  1.00  0.00    -0.275 A  
HETATM    7  C   UNL     1      -9.370  10.413  68.600  1.00  0.00    -0.167 A  
HETATM    8  C   UNL     1     -10.096  11.290  67.784  1.00  0.00    -0.199 A  
HETATM    9  C   UNL     1     -11.389  11.683  68.134  1.00  0.00    -0.292 A  
HETATM   10  C   UNL     1     -11.992  11.100  69.250  1.00  0.00    -0.421 A  
HETATM   11  N   UNL     1     -12.150  12.465  67.258  1.00  0.00    -0.494 NA 
HETATM   12  H2  UNL     1     -12.192  11.989  66.356  1.00  0.00     0.000 HD 
HETATM   13  H1  UNL     1     -13.094  12.753  67.513  1.00  0.00     0.000 HD 
HETATM   14  C   UNL     1     -11.275  10.227  70.071  1.00  0.00    -0.376 A  
ENDBRANCH   4   6
ENDBRANCH   3   4
ENDBRANCH   2   3
TORSDOF 3
ENDMDL
MODEL      141
REMARK 921   NORMALIZED FREE ENERGY PREDICTED BY IDOCK:   -2.66 KCAL/MOL
REMARK 922        TOTAL FREE ENERGY PREDICTED BY IDOCK:   -3.44 KCAL/MOL
REMARK 923 INTER-LIGAND FREE ENERGY PREDICTED BY IDOCK:   -3.20 KCAL/MOL
REMARK 924 INTRA-LIGAND FREE ENERGY PREDICTED BY IDOCK:   -0.24 KCAL/MOL
REMARK 927      BINDING AFFINITY PREDICTED BY RF-SCORE:    0.00 PKD
ROOT
HETATM    1  C   UNL     1     -10.537  13.305  68.153  1.00  0.00    -0.259 C  
HETATM    2  C   UNL     1     -11.917  12.953  68.682  1.00  0.00    -0.247 C  
ENDROOT
BRANCH   2   3
HETATM    3  O   UNL     1     -12.171  11.580  68.369  1.00  0.00    -0.540 OA 
BRANCH   3   4
HETATM    4  C   UNL     1     -11.612  10.673  69.207  1.00  0.00    -0.275 C  
HETATM    5  O   UNL     1     -11.723  10.644  70.421  1.00  0.00    -0.299 OA 
BRANCH   4   6
HETATM    6  C   UNL     1     -10.908   9.634  68.412  1.00  0.00    -0.212 A  
HETATM    7  C   UNL     1     -10.571   9.917  67.084  1.00  0.00    -0.295 A  
HETATM    8  C   UNL     1      -9.857   8.981  66.326  1.00  0.00    -0.361 A  
HETATM    9  C   UNL     1      -9.509   7.742  66.867  1.00  0.00    -0.187 A  
HETATM   10  C   UNL     1      -9.784   7.494  68.213  1.00  0.00    -0.163 A  
HETATM   11  N   UNL     1      -8.697   6.860  66.146  1.00  0.00    -0.142 NA 
HETATM   12  H2  UNL     1      -7.839   7.350  65.889  1.00  0.00     0.000 HD 
HETATM   13  H1  UNL     1      -8.443   5.954  66.540  1.00  0.00     0.000 HD 
HETATM   14  C   UNL     1     -10.499   8.420  68.976  1.00  0.00    -0.216 A  
ENDBRANCH   4   6
ENDBRANCH   3   4
ENDBRANCH   2   3
TORSDOF 3
ENDMDL
MODEL      142
REMARK 921   NORMALIZED FREE ENERGY PREDICTED BY IDOCK:   -2.66 KCAL/MOL
REMARK 922        TOTAL FREE ENERGY PREDICTED BY IDOCK:   -3.44 KCAL/MOL
REMARK 923 INTER-LIGAND FREE ENERGY PREDICTED BY IDOCK:   -3.31 KCAL/MOL
REMARK 924 INTRA-LIGAND FREE ENERGY PREDICTED BY IDOCK:   -0.13 KCAL/MOL
REMARK 927      BINDING AFFINITY PREDICTED BY RF-SCORE:    0.00 PKD
ROOT
HETATM    1  C   UNL     1      -7.858   9.235  70.921  1.00  0.00    -0.148 C  
HETATM    2  C   UNL     1      -9.302   9.147  70.457  1.00  0.00    -0.240 C  
ENDROOT
BRANCH   2   3
HETATM    3  O   UNL     1      -9.428   9.923  69.261  1.00  0.00    -0.184 OA 
BRANCH   3   4
HETATM    4  C   UNL     1     -10.587  10.613  69.129  1.00  0.00    -0.226 C  
HETATM    5  O   UNL     1     -11.475  10.704  69.961  1.00  0.00    -0.274 OA 
BRANCH   4   6
HETATM    6  C   UNL     1     -10.582  11.346  67.836  1.00  0.00    -0.224 A  
HETATM    7  C   UNL     1     -10.292  12.715  67.842  1.00  0.00    -0.221 A  
HETATM    8  C   UNL     1     -10.222  13.422  66.635  1.00  0.00    -0.274 A  
HETATM    9  C   UNL     1     -10.481  12.786  65.420  1.00  0.00    -0.286 A  
HETATM   10  C   UNL     1     -10.698  11.407  65.415  1.00  0.00    -0.313 A  
HETATM   11  N   UNL     1     -10.296  13.469  64.213  1.00  0.00    -0.671 NA 
HETATM   12  H2  UNL     1      -9.341  13.828  64.190  1.00  0.00     0.000 HD 
HETATM   13  H1  UNL     1     -10.485  13.004  63.325  1.00  0.00     0.000 HD 
HETATM   14  C   UNL     1     -10.773  10.693  66.613  1.00  0.00    -0.246 A  
ENDBRANCH   4   6
ENDBRANCH   3   4
ENDBRANCH   2   3
TORSDOF 3
ENDMDL
MODEL      143
REMARK 921   NORMALIZED FREE ENERGY PREDICTED BY IDOCK:   -2.66 KCAL/MOL
REMARK 922        TOTAL FREE ENERGY PREDICTED BY IDOCK:   -3.43 KCAL/MOL
REMARK 923 INTER-LIGAND FREE ENERGY PREDICTED BY IDOCK:   -3.16 KCAL/MOL
REMARK 924 INTRA-LIGAND FREE ENERGY PREDICTED BY IDOCK:   -0.27 KCAL/MOL
REMARK 927      BINDING AFFINITY PREDICTED BY RF-SCORE:    0.00 PKD
ROOT
HETATM    1  C   UNL     1      -7.465  11.142  66.828  1.00  0.00    -0.146 C  
HETATM    2  C   UNL     1      -8.759  11.896  66.575  1.00  0.00    -0.158 C  
ENDROOT
BRANCH   2   3
HETATM    3  O   UNL     1      -9.831  11.127  67.129  1.00  0.00    -0.183 OA 
BRANCH   3   4
HETATM    4  C   UNL     1     -10.153   9.996  66.455  1.00  0.00    -0.232 C  
HETATM    5  O   UNL     1     -10.201   9.864  65.243  1.00  0.00    -0.269 OA 
BRANCH   4   6
HETATM    6  C   UNL     1     -10.347   8.883  67.420  1.00  0.00    -0.337 A  
HETATM    7  C   UNL     1     -10.386   9.179  68.788  1.00  0.00    -0.235 A  
HETATM    8  C   UNL     1     -10.624   8.161  69.719  1.00  0.00    -0.231 A  
HETATM    9  C   UNL     1     -10.783   6.838  69.304  1.00  0.00    -0.253 A  
HETATM   10  C   UNL     1     -10.814   6.560  67.937  1.00  0.00    -0.383 A  
HETATM   11  N   UNL     1     -11.135   5.846  70.227  1.00  0.00    -0.325 NA 
HETATM   12  H2  UNL     1     -11.990   6.138  70.701  1.00  0.00     0.000 HD 
HETATM   13  H1  UNL     1     -11.251   4.879  69.924  1.00  0.00     0.000 HD 
HETATM   14  C   UNL     1     -10.575   7.568  67.000  1.00  0.00    -0.409 A  
ENDBRANCH   4   6
ENDBRANCH   3   4
ENDBRANCH   2   3
TORSDOF 3
ENDMDL
MODEL      144
REMARK 921   NORMALIZED FREE ENERGY PREDICTED BY IDOCK:   -2.65 KCAL/MOL
REMARK 922        TOTAL FREE ENERGY PREDICTED BY IDOCK:   -3.43 KCAL/MOL
REMARK 923 INTER-LIGAND FREE ENERGY PREDICTED BY IDOCK:   -3.17 KCAL/MOL
REMARK 924 INTRA-LIGAND FREE ENERGY PREDICTED BY IDOCK:   -0.26 KCAL/MOL
REMARK 927      BINDING AFFINITY PREDICTED BY RF-SCORE:    0.00 PKD
ROOT
HETATM    1  C   UNL     1      -7.556  10.474  66.962  1.00  0.00    -0.107 C  
HETATM    2  C   UNL     1      -8.585   9.541  66.347  1.00  0.00    -0.134 C  
ENDROOT
BRANCH   2   3
HETATM    3  O   UNL     1      -9.776   9.616  67.138  1.00  0.00    -0.160 OA 
BRANCH   3   4
HETATM    4  C   UNL     1      -9.909   8.662  68.091  1.00  0.00    -0.165 C  
HETATM    5  O   UNL     1      -9.360   7.572  68.107  1.00  0.00    -0.137 OA 
BRANCH   4   6
HETATM    6  C   UNL     1     -10.759   9.180  69.194  1.00  0.00    -0.190 A  
HETATM    7  C   UNL     1     -11.350  10.441  69.052  1.00  0.00    -0.279 A  
HETATM    8  C   UNL     1     -12.202  10.933  70.048  1.00  0.00    -0.422 A  
HETATM    9  C   UNL     1     -12.440  10.197  71.209  1.00  0.00    -0.406 A  
HETATM   10  C   UNL     1     -11.906   8.912  71.314  1.00  0.00    -0.371 A  
HETATM   11  N   UNL     1     -13.381  10.641  72.146  1.00  0.00    -0.580 NA 
HETATM   12  H2  UNL     1     -14.271  10.779  71.666  1.00  0.00     0.000 HD 
HETATM   13  H1  UNL     1     -13.555  10.104  72.995  1.00  0.00     0.000 HD 
HETATM   14  C   UNL     1     -11.052   8.413  70.328  1.00  0.00    -0.216 A  
ENDBRANCH   4   6
ENDBRANCH   3   4
ENDBRANCH   2   3
TORSDOF 3
ENDMDL
MODEL      145
REMARK 921   NORMALIZED FREE ENERGY PREDICTED BY IDOCK:   -2.65 KCAL/MOL
REMARK 922        TOTAL FREE ENERGY PREDICTED BY IDOCK:   -3.43 KCAL/MOL
REMARK 923 INTER-LIGAND FREE ENERGY PREDICTED BY IDOCK:   -3.15 KCAL/MOL
REMARK 924 INTRA-LIGAND FREE ENERGY PREDICTED BY IDOCK:   -0.27 KCAL/MOL
REMARK 927      BINDING AFFINITY PREDICTED BY RF-SCORE:    0.00 PKD
ROOT
HETATM    1  C   UNL     1      -9.862   7.528  67.011  1.00  0.00    -0.280 C  
HETATM    2  C   UNL     1     -10.909   6.523  67.459  1.00  0.00    -0.352 C  
ENDROOT
BRANCH   2   3
HETATM    3  O   UNL     1     -11.126   6.710  68.862  1.00  0.00    -0.272 OA 
BRANCH   3   4
HETATM    4  C   UNL     1     -10.434   5.879  69.679  1.00  0.00    -0.277 C  
HETATM    5  O   UNL     1     -10.161   4.711  69.461  1.00  0.00    -0.222 OA 
BRANCH   4   6
HETATM    6  C   UNL     1      -9.953   6.637  70.863  1.00  0.00    -0.204 A  
HETATM    7  C   UNL     1     -10.604   6.454  72.088  1.00  0.00    -0.249 A  
HETATM    8  C   UNL     1     -10.140   7.109  73.235  1.00  0.00    -0.318 A  
HETATM    9  C   UNL     1      -9.054   7.983  73.166  1.00  0.00    -0.275 A  
HETATM   10  C   UNL     1      -8.365   8.107  71.959  1.00  0.00    -0.199 A  
HETATM   11  N   UNL     1      -8.523   8.543  74.334  1.00  0.00    -0.355 NA 
HETATM   12  H2  UNL     1      -8.285   7.785  74.974  1.00  0.00     0.000 HD 
HETATM   13  H1  UNL     1      -7.730   9.182  74.283  1.00  0.00     0.000 HD 
HETATM   14  C   UNL     1      -8.822   7.460  70.808  1.00  0.00    -0.149 A  
ENDBRANCH   4   6
ENDBRANCH   3   4
ENDBRANCH   2   3
TORSDOF 3
ENDMDL
MODEL      146
REMARK 921   NORMALIZED FREE ENERGY PREDICTED BY IDOCK:   -2.65 KCAL/MOL
REMARK 922        TOTAL FREE ENERGY PREDICTED BY IDOCK:   -3.43 KCAL/MOL
REMARK 923 INTER-LIGAND FREE ENERGY PREDICTED BY IDOCK:   -3.31 KCAL/MOL
REMARK 924 INTRA-LIGAND FREE ENERGY PREDICTED BY IDOCK:   -0.12 KCAL/MOL
REMARK 927      BINDING AFFINITY PREDICTED BY RF-SCORE:    0.00 PKD
ROOT
HETATM    1  C   UNL     1      -8.026   6.278  64.294  1.00  0.00    -0.108 C  
HETATM    2  C   UNL     1      -7.462   7.678  64.122  1.00  0.00    -0.102 C  
ENDROOT
BRANCH   2   3
HETATM    3  O   UNL     1      -8.559   8.597  64.113  1.00  0.00    -0.128 OA 
BRANCH   3   4
HETATM    4  C   UNL     1      -8.235   9.897  63.909  1.00  0.00    -0.156 C  
HETATM    5  O   UNL     1      -7.222  10.315  63.372  1.00  0.00    -0.136 OA 
BRANCH   4   6
HETATM    6  C   UNL     1      -9.359  10.763  64.349  1.00  0.00    -0.279 A  
HETATM    7  C   UNL     1     -10.343  11.111  63.417  1.00  0.00    -0.419 A  
HETATM    8  C   UNL     1     -11.446  11.878  63.815  1.00  0.00    -0.542 A  
HETATM    9  C   UNL     1     -11.558  12.338  65.128  1.00  0.00    -0.351 A  
HETATM   10  C   UNL     1     -10.612  11.928  66.068  1.00  0.00    -0.304 A  
HETATM   11  N   UNL     1     -12.716  13.003  65.546  1.00  0.00    -0.528 NA 
HETATM   12  H2  UNL     1     -13.519  12.406  65.346  1.00  0.00     0.000 HD 
HETATM   13  H1  UNL     1     -12.798  13.340  66.505  1.00  0.00     0.000 HD 
HETATM   14  C   UNL     1      -9.507  11.166  65.682  1.00  0.00    -0.252 A  
ENDBRANCH   4   6
ENDBRANCH   3   4
ENDBRANCH   2   3
TORSDOF 3
ENDMDL
MODEL      147
REMARK 921   NORMALIZED FREE ENERGY PREDICTED BY IDOCK:   -2.61 KCAL/MOL
REMARK 922        TOTAL FREE ENERGY PREDICTED BY IDOCK:   -3.38 KCAL/MOL
REMARK 923 INTER-LIGAND FREE ENERGY PREDICTED BY IDOCK:   -3.10 KCAL/MOL
REMARK 924 INTRA-LIGAND FREE ENERGY PREDICTED BY IDOCK:   -0.29 KCAL/MOL
REMARK 927      BINDING AFFINITY PREDICTED BY RF-SCORE:    0.00 PKD
ROOT
HETATM    1  C   UNL     1     -11.180  15.851  64.518  1.00  0.00    -0.324 C  
HETATM    2  C   UNL     1     -10.192  14.710  64.686  1.00  0.00     0.025 C  
ENDROOT
BRANCH   2   3
HETATM    3  O   UNL     1     -10.885  13.612  65.288  1.00  0.00    -0.299 OA 
BRANCH   3   4
HETATM    4  C   UNL     1     -10.236  12.993  66.304  1.00  0.00    -0.288 C  
HETATM    5  O   UNL     1      -9.428  12.085  66.200  1.00  0.00    -0.232 OA 
BRANCH   4   6
HETATM    6  C   UNL     1     -10.576  13.659  67.588  1.00  0.00    -0.245 A  
HETATM    7  C   UNL     1      -9.582  14.389  68.250  1.00  0.00    -0.211 A  
HETATM    8  C   UNL     1      -9.885  15.076  69.431  1.00  0.00    -0.170 A  
HETATM    9  C   UNL     1     -11.164  15.010  69.986  1.00  0.00    -0.271 A  
HETATM   10  C   UNL     1     -12.169  14.341  69.285  1.00  0.00    -0.289 A  
HETATM   11  N   UNL     1     -11.492  15.791  71.100  1.00  0.00    -0.383 NA 
HETATM   12  H2  UNL     1     -11.288  16.766  70.880  1.00  0.00     0.000 HD 
HETATM   13  H1  UNL     1     -12.426  15.741  71.506  1.00  0.00     0.000 HD 
HETATM   14  C   UNL     1     -11.876  13.649  68.107  1.00  0.00    -0.407 A  
ENDBRANCH   4   6
ENDBRANCH   3   4
ENDBRANCH   2   3
TORSDOF 3
ENDMDL
MODEL      148
REMARK 921   NORMALIZED FREE ENERGY PREDICTED BY IDOCK:   -2.61 KCAL/MOL
REMARK 922        TOTAL FREE ENERGY PREDICTED BY IDOCK:   -3.38 KCAL/MOL
REMARK 923 INTER-LIGAND FREE ENERGY PREDICTED BY IDOCK:   -3.13 KCAL/MOL
REMARK 924 INTRA-LIGAND FREE ENERGY PREDICTED BY IDOCK:   -0.25 KCAL/MOL
REMARK 927      BINDING AFFINITY PREDICTED BY RF-SCORE:    0.00 PKD
ROOT
HETATM    1  C   UNL     1     -12.401  11.218  70.441  1.00  0.00    -0.415 C  
HETATM    2  C   UNL     1     -11.506  10.001  70.592  1.00  0.00    -0.345 C  
ENDROOT
BRANCH   2   3
HETATM    3  O   UNL     1     -11.039   9.633  69.290  1.00  0.00    -0.208 OA 
BRANCH   3   4
HETATM    4  C   UNL     1      -9.787  10.046  68.976  1.00  0.00    -0.199 C  
HETATM    5  O   UNL     1      -8.842  10.140  69.743  1.00  0.00    -0.193 OA 
BRANCH   4   6
HETATM    6  C   UNL     1      -9.695  10.278  67.512  1.00  0.00    -0.196 A  
HETATM    7  C   UNL     1      -9.068   9.312  66.717  1.00  0.00    -0.170 A  
HETATM    8  C   UNL     1      -9.015   9.474  65.327  1.00  0.00    -0.244 A  
HETATM    9  C   UNL     1      -9.547  10.613  64.721  1.00  0.00    -0.280 A  
HETATM   10  C   UNL     1     -10.233  11.538  65.510  1.00  0.00    -0.303 A  
HETATM   11  N   UNL     1      -9.595  10.714  63.326  1.00  0.00    -0.317 NA 
HETATM   12  H2  UNL     1     -10.088   9.898  62.962  1.00  0.00     0.000 HD 
HETATM   13  H1  UNL     1      -9.983  11.547  62.884  1.00  0.00     0.000 HD 
HETATM   14  C   UNL     1     -10.288  11.387  66.898  1.00  0.00    -0.262 A  
ENDBRANCH   4   6
ENDBRANCH   3   4
ENDBRANCH   2   3
TORSDOF 3
ENDMDL
MODEL      149
REMARK 921   NORMALIZED FREE ENERGY PREDICTED BY IDOCK:   -2.60 KCAL/MOL
REMARK 922        TOTAL FREE ENERGY PREDICTED BY IDOCK:   -3.36 KCAL/MOL
REMARK 923 INTER-LIGAND FREE ENERGY PREDICTED BY IDOCK:   -3.29 KCAL/MOL
REMARK 924 INTRA-LIGAND FREE ENERGY PREDICTED BY IDOCK:   -0.07 KCAL/MOL
REMARK 927      BINDING AFFINITY PREDICTED BY RF-SCORE:    0.00 PKD
ROOT
HETATM    1  C   UNL     1     -11.289   9.399  70.601  1.00  0.00    -0.352 C  
HETATM    2  C   UNL     1     -11.517  10.816  70.103  1.00  0.00    -0.331 C  
ENDROOT
BRANCH   2   3
HETATM    3  O   UNL     1     -11.137  10.865  68.724  1.00  0.00    -0.216 OA 
BRANCH   3   4
HETATM    4  C   UNL     1      -9.923  11.412  68.468  1.00  0.00    -0.201 C  
HETATM    5  O   UNL     1      -8.839  10.940  68.769  1.00  0.00    -0.158 OA 
BRANCH   4   6
HETATM    6  C   UNL     1     -10.097  12.647  67.662  1.00  0.00    -0.218 A  
HETATM    7  C   UNL     1     -11.334  13.301  67.693  1.00  0.00    -0.328 A  
HETATM    8  C   UNL     1     -11.512  14.499  66.990  1.00  0.00    -0.383 A  
HETATM    9  C   UNL     1     -10.479  15.032  66.218  1.00  0.00    -0.304 A  
HETATM   10  C   UNL     1      -9.228  14.415  66.247  1.00  0.00    -0.202 A  
HETATM   11  N   UNL     1     -10.625  16.286  65.613  1.00  0.00    -0.364 NA 
HETATM   12  H2  UNL     1     -10.870  16.965  66.335  1.00  0.00     0.000 HD 
HETATM   13  H1  UNL     1      -9.871  16.676  65.048  1.00  0.00     0.000 HD 
HETATM   14  C   UNL     1      -9.040  13.219  66.943  1.00  0.00    -0.235 A  
ENDBRANCH   4   6
ENDBRANCH   3   4
ENDBRANCH   2   3
TORSDOF 3
ENDMDL
MODEL      150
REMARK 921   NORMALIZED FREE ENERGY PREDICTED BY IDOCK:   -2.59 KCAL/MOL
REMARK 922        TOTAL FREE ENERGY PREDICTED BY IDOCK:   -3.36 KCAL/MOL
REMARK 923 INTER-LIGAND FREE ENERGY PREDICTED BY IDOCK:   -3.29 KCAL/MOL
REMARK 924 INTRA-LIGAND FREE ENERGY PREDICTED BY IDOCK:   -0.07 KCAL/MOL
REMARK 927      BINDING AFFINITY PREDICTED BY RF-SCORE:    0.00 PKD
ROOT
HETATM    1  C   UNL     1     -11.678  14.352  64.007  1.00  0.00    -0.147 C  
HETATM    2  C   UNL     1     -12.142  13.096  63.291  1.00  0.00    -0.386 C  
ENDROOT
BRANCH   2   3
HETATM    3  O   UNL     1     -12.312  12.067  64.271  1.00  0.00    -0.362 OA 
BRANCH   3   4
HETATM    4  C   UNL     1     -11.178  11.642  64.880  1.00  0.00    -0.222 C  
HETATM    5  O   UNL     1     -10.111  11.405  64.338  1.00  0.00    -0.251 OA 
BRANCH   4   6
HETATM    6  C   UNL     1     -11.391  11.602  66.350  1.00  0.00    -0.312 A  
HETATM    7  C   UNL     1     -11.861  12.752  66.992  1.00  0.00    -0.428 A  
HETATM    8  C   UNL     1     -12.126  12.730  68.367  1.00  0.00    -0.145 A  
HETATM    9  C   UNL     1     -11.887  11.579  69.120  1.00  0.00    -0.340 A  
HETATM   10  C   UNL     1     -11.487  10.415  68.463  1.00  0.00    -0.231 A  
HETATM   11  N   UNL     1     -12.263  11.527  70.467  1.00  0.00    -0.377 NA 
HETATM   12  H2  UNL     1     -13.256  11.752  70.533  1.00  0.00     0.000 HD 
HETATM   13  H1  UNL     1     -12.088  10.686  71.018  1.00  0.00     0.000 HD 
HETATM   14  C   UNL     1     -11.217  10.428  67.092  1.00  0.00    -0.086 A  
ENDBRANCH   4   6
ENDBRANCH   3   4
ENDBRANCH   2   3
TORSDOF 3
ENDMDL
MODEL      151
REMARK 921   NORMALIZED FREE ENERGY PREDICTED BY IDOCK:   -2.59 KCAL/MOL
REMARK 922        TOTAL FREE ENERGY PREDICTED BY IDOCK:   -3.35 KCAL/MOL
REMARK 923 INTER-LIGAND FREE ENERGY PREDICTED BY IDOCK:   -3.18 KCAL/MOL
REMARK 924 INTRA-LIGAND FREE ENERGY PREDICTED BY IDOCK:   -0.16 KCAL/MOL
REMARK 927      BINDING AFFINITY PREDICTED BY RF-SCORE:    0.00 PKD
ROOT
HETATM    1  C   UNL     1      -9.743   9.132  66.342  1.00  0.00    -0.330 C  
HETATM    2  C   UNL     1     -10.289  10.527  66.591  1.00  0.00    -0.237 C  
ENDROOT
BRANCH   2   3
HETATM    3  O   UNL     1      -9.753  10.996  67.833  1.00  0.00    -0.166 OA 
BRANCH   3   4
HETATM    4  C   UNL     1      -9.129  12.198  67.788  1.00  0.00    -0.189 C  
HETATM    5  O   UNL     1      -8.023  12.423  67.325  1.00  0.00    -0.169 OA 
BRANCH   4   6
HETATM    6  C   UNL     1     -10.045  13.250  68.300  1.00  0.00    -0.250 A  
HETATM    7  C   UNL     1     -11.041  12.887  69.214  1.00  0.00    -0.192 A  
HETATM    8  C   UNL     1     -11.883  13.863  69.759  1.00  0.00    -0.390 A  
HETATM    9  C   UNL     1     -11.770  15.199  69.371  1.00  0.00    -0.332 A  
HETATM   10  C   UNL     1     -10.730  15.567  68.515  1.00  0.00    -0.259 A  
HETATM   11  N   UNL     1     -12.534  16.186  70.005  1.00  0.00    -0.454 NA 
HETATM   12  H2  UNL     1     -12.364  16.128  71.009  1.00  0.00     0.000 HD 
HETATM   13  H1  UNL     1     -12.453  17.162  69.720  1.00  0.00     0.000 HD 
HETATM   14  C   UNL     1      -9.887  14.599  67.963  1.00  0.00    -0.216 A  
ENDBRANCH   4   6
ENDBRANCH   3   4
ENDBRANCH   2   3
TORSDOF 3
ENDMDL
MODEL      152
REMARK 921   NORMALIZED FREE ENERGY PREDICTED BY IDOCK:   -2.57 KCAL/MOL
REMARK 922        TOTAL FREE ENERGY PREDICTED BY IDOCK:   -3.33 KCAL/MOL
REMARK 923 INTER-LIGAND FREE ENERGY PREDICTED BY IDOCK:   -3.11 KCAL/MOL
REMARK 924 INTRA-LIGAND FREE ENERGY PREDICTED BY IDOCK:   -0.22 KCAL/MOL
REMARK 927      BINDING AFFINITY PREDICTED BY RF-SCORE:    0.00 PKD
ROOT
HETATM    1  C   UNL     1     -11.544  12.818  69.206  1.00  0.00    -0.372 C  
HETATM    2  C   UNL     1     -12.152  13.257  67.885  1.00  0.00    -0.228 C  
ENDROOT
BRANCH   2   3
HETATM    3  O   UNL     1     -11.918  12.220  66.926  1.00  0.00    -0.578 OA 
BRANCH   3   4
HETATM    4  C   UNL     1     -11.193  12.579  65.838  1.00  0.00    -0.320 C  
HETATM    5  O   UNL     1     -11.485  13.441  65.026  1.00  0.00    -0.301 OA 
BRANCH   4   6
HETATM    6  C   UNL     1      -9.911  11.828  65.828  1.00  0.00    -0.269 A  
HETATM    7  C   UNL     1      -9.650  10.958  64.764  1.00  0.00    -0.301 A  
HETATM    8  C   UNL     1      -8.427  10.280  64.696  1.00  0.00    -0.179 A  
HETATM    9  C   UNL     1      -7.473  10.428  65.703  1.00  0.00    -0.149 A  
HETATM   10  C   UNL     1      -7.708  11.351  66.724  1.00  0.00    -0.150 A  
HETATM   11  N   UNL     1      -6.209   9.841  65.571  1.00  0.00    -0.069 NA 
HETATM   12  H2  UNL     1      -5.799  10.156  64.692  1.00  0.00     0.000 HD 
HETATM   13  H1  UNL     1      -5.512   9.948  66.307  1.00  0.00     0.000 HD 
HETATM   14  C   UNL     1      -8.926  12.030  66.803  1.00  0.00    -0.198 A  
ENDBRANCH   4   6
ENDBRANCH   3   4
ENDBRANCH   2   3
TORSDOF 3
ENDMDL
MODEL      153
REMARK 921   NORMALIZED FREE ENERGY PREDICTED BY IDOCK:   -2.57 KCAL/MOL
REMARK 922        TOTAL FREE ENERGY PREDICTED BY IDOCK:   -3.33 KCAL/MOL
REMARK 923 INTER-LIGAND FREE ENERGY PREDICTED BY IDOCK:   -3.16 KCAL/MOL
REMARK 924 INTRA-LIGAND FREE ENERGY PREDICTED BY IDOCK:   -0.17 KCAL/MOL
REMARK 927      BINDING AFFINITY PREDICTED BY RF-SCORE:    0.00 PKD
ROOT
HETATM    1  C   UNL     1      -7.523  14.619  68.938  1.00  0.00    -0.134 C  
HETATM    2  C   UNL     1      -6.984  14.963  67.560  1.00  0.00    -0.176 C  
ENDROOT
BRANCH   2   3
HETATM    3  O   UNL     1      -5.905  15.889  67.728  1.00  0.00    -0.126 OA 
BRANCH   3   4
HETATM    4  C   UNL     1      -5.939  16.982  66.927  1.00  0.00    -0.191 C  
HETATM    5  O   UNL     1      -5.206  17.208  65.978  1.00  0.00    -0.344 OA 
BRANCH   4   6
HETATM    6  C   UNL     1      -7.089  17.841  67.310  1.00  0.00    -0.201 A  
HETATM    7  C   UNL     1      -8.171  17.948  66.429  1.00  0.00    -0.287 A  
HETATM    8  C   UNL     1      -9.295  18.704  66.786  1.00  0.00    -0.312 A  
HETATM    9  C   UNL     1      -9.335  19.391  68.000  1.00  0.00    -0.336 A  
HETATM   10  C   UNL     1      -8.285  19.223  68.905  1.00  0.00    -0.344 A  
HETATM   11  N   UNL     1     -10.504  20.047  68.402  1.00  0.00    -0.413 NA 
HETATM   12  H2  UNL     1     -11.271  19.374  68.389  1.00  0.00     0.000 HD 
HETATM   13  H1  UNL     1     -10.533  20.550  69.288  1.00  0.00     0.000 HD 
HETATM   14  C   UNL     1      -7.159  18.474  68.557  1.00  0.00    -0.293 A  
ENDBRANCH   4   6
ENDBRANCH   3   4
ENDBRANCH   2   3
TORSDOF 3
ENDMDL
MODEL      154
REMARK 921   NORMALIZED FREE ENERGY PREDICTED BY IDOCK:   -2.56 KCAL/MOL
REMARK 922        TOTAL FREE ENERGY PREDICTED BY IDOCK:   -3.32 KCAL/MOL
REMARK 923 INTER-LIGAND FREE ENERGY PREDICTED BY IDOCK:   -3.11 KCAL/MOL
REMARK 924 INTRA-LIGAND FREE ENERGY PREDICTED BY IDOCK:   -0.21 KCAL/MOL
REMARK 927      BINDING AFFINITY PREDICTED BY RF-SCORE:    0.00 PKD
ROOT
HETATM    1  C   UNL     1      -7.056  15.669  69.175  1.00  0.00    -0.168 C  
HETATM    2  C   UNL     1      -7.587  16.872  68.414  1.00  0.00    -0.209 C  
ENDROOT
BRANCH   2   3
HETATM    3  O   UNL     1      -8.995  16.693  68.234  1.00  0.00    -0.202 OA 
BRANCH   3   4
HETATM    4  C   UNL     1      -9.357  15.815  67.266  1.00  0.00    -0.211 C  
HETATM    5  O   UNL     1      -9.055  15.874  66.086  1.00  0.00    -0.310 OA 
BRANCH   4   6
HETATM    6  C   UNL     1     -10.107  14.688  67.876  1.00  0.00    -0.225 A  
HETATM    7  C   UNL     1      -9.536  13.410  67.853  1.00  0.00    -0.216 A  
HETATM    8  C   UNL     1     -10.191  12.337  68.470  1.00  0.00    -0.213 A  
HETATM    9  C   UNL     1     -11.435  12.516  69.077  1.00  0.00    -0.304 A  
HETATM   10  C   UNL     1     -11.966  13.804  69.160  1.00  0.00    -0.403 A  
HETATM   11  N   UNL     1     -12.029  11.469  69.791  1.00  0.00    -0.334 NA 
HETATM   12  H2  UNL     1     -11.369  11.149  70.501  1.00  0.00     0.000 HD 
HETATM   13  H1  UNL     1     -12.938  11.599  70.234  1.00  0.00     0.000 HD 
HETATM   14  C   UNL     1     -11.322  14.880  68.545  1.00  0.00    -0.314 A  
ENDBRANCH   4   6
ENDBRANCH   3   4
ENDBRANCH   2   3
TORSDOF 3
ENDMDL
MODEL      155
REMARK 921   NORMALIZED FREE ENERGY PREDICTED BY IDOCK:   -2.56 KCAL/MOL
REMARK 922        TOTAL FREE ENERGY PREDICTED BY IDOCK:   -3.32 KCAL/MOL
REMARK 923 INTER-LIGAND FREE ENERGY PREDICTED BY IDOCK:   -3.09 KCAL/MOL
REMARK 924 INTRA-LIGAND FREE ENERGY PREDICTED BY IDOCK:   -0.23 KCAL/MOL
REMARK 927      BINDING AFFINITY PREDICTED BY RF-SCORE:    0.00 PKD
ROOT
HETATM    1  C   UNL     1      -9.998  19.366  66.301  1.00  0.00    -0.509 C  
HETATM    2  C   UNL     1     -10.710  18.228  65.590  1.00  0.00    -0.033 C  
ENDROOT
BRANCH   2   3
HETATM    3  O   UNL     1      -9.821  17.107  65.554  1.00  0.00    -0.549 OA 
BRANCH   3   4
HETATM    4  C   UNL     1     -10.375  15.908  65.861  1.00  0.00    -0.365 C  
HETATM    5  O   UNL     1     -11.464  15.498  65.492  1.00  0.00    -0.168 OA 
BRANCH   4   6
HETATM    6  C   UNL     1      -9.406  15.101  66.645  1.00  0.00    -0.291 A  
HETATM    7  C   UNL     1      -8.115  15.606  66.841  1.00  0.00    -0.290 A  
HETATM    8  C   UNL     1      -7.196  14.896  67.623  1.00  0.00    -0.207 A  
HETATM    9  C   UNL     1      -7.536  13.664  68.182  1.00  0.00    -0.137 A  
HETATM   10  C   UNL     1      -8.846  13.200  68.044  1.00  0.00    -0.191 A  
HETATM   11  N   UNL     1      -6.656  13.017  69.056  1.00  0.00    -0.102 NA 
HETATM   12  H2  UNL     1      -6.426  13.660  69.815  1.00  0.00     0.000 HD 
HETATM   13  H1  UNL     1      -6.904  12.116  69.464  1.00  0.00     0.000 HD 
HETATM   14  C   UNL     1      -9.769  13.898  67.262  1.00  0.00    -0.245 A  
ENDBRANCH   4   6
ENDBRANCH   3   4
ENDBRANCH   2   3
TORSDOF 3
ENDMDL
MODEL      156
REMARK 921   NORMALIZED FREE ENERGY PREDICTED BY IDOCK:   -2.56 KCAL/MOL
REMARK 922        TOTAL FREE ENERGY PREDICTED BY IDOCK:   -3.32 KCAL/MOL
REMARK 923 INTER-LIGAND FREE ENERGY PREDICTED BY IDOCK:   -3.10 KCAL/MOL
REMARK 924 INTRA-LIGAND FREE ENERGY PREDICTED BY IDOCK:   -0.21 KCAL/MOL
REMARK 927      BINDING AFFINITY PREDICTED BY RF-SCORE:    0.00 PKD
ROOT
HETATM    1  C   UNL     1     -12.066  10.302  70.926  1.00  0.00    -0.468 C  
HETATM    2  C   UNL     1     -13.022   9.284  71.521  1.00  0.00    -0.359 C  
ENDROOT
BRANCH   2   3
HETATM    3  O   UNL     1     -12.490   7.979  71.266  1.00  0.00    -0.304 OA 
BRANCH   3   4
HETATM    4  C   UNL     1     -11.337   7.678  71.912  1.00  0.00    -0.266 C  
HETATM    5  O   UNL     1     -11.066   7.943  73.072  1.00  0.00    -0.402 OA 
BRANCH   4   6
HETATM    6  C   UNL     1     -10.466   6.871  71.019  1.00  0.00    -0.235 A  
HETATM    7  C   UNL     1      -9.338   7.476  70.454  1.00  0.00    -0.161 A  
HETATM    8  C   UNL     1      -8.466   6.727  69.654  1.00  0.00    -0.133 A  
HETATM    9  C   UNL     1      -8.730   5.385  69.376  1.00  0.00    -0.105 A  
HETATM   10  C   UNL     1      -9.815   4.768  70.001  1.00  0.00    -0.297 A  
HETATM   11  N   UNL     1      -7.796   4.613  68.675  1.00  0.00    -0.079 NA 
HETATM   12  H2  UNL     1      -6.901   4.670  69.162  1.00  0.00     0.000 HD 
HETATM   13  H1  UNL     1      -7.989   3.632  68.472  1.00  0.00     0.000 HD 
HETATM   14  C   UNL     1     -10.693   5.507  70.797  1.00  0.00    -0.294 A  
ENDBRANCH   4   6
ENDBRANCH   3   4
ENDBRANCH   2   3
TORSDOF 3
ENDMDL
MODEL      157
REMARK 921   NORMALIZED FREE ENERGY PREDICTED BY IDOCK:   -2.55 KCAL/MOL
REMARK 922        TOTAL FREE ENERGY PREDICTED BY IDOCK:   -3.31 KCAL/MOL
REMARK 923 INTER-LIGAND FREE ENERGY PREDICTED BY IDOCK:   -3.15 KCAL/MOL
REMARK 924 INTRA-LIGAND FREE ENERGY PREDICTED BY IDOCK:   -0.16 KCAL/MOL
REMARK 927      BINDING AFFINITY PREDICTED BY RF-SCORE:    0.00 PKD
ROOT
HETATM    1  C   UNL     1     -13.901   9.589  72.161  1.00  0.00    -0.376 C  
HETATM    2  C   UNL     1     -13.389   8.278  71.592  1.00  0.00    -0.330 C  
ENDROOT
BRANCH   2   3
HETATM    3  O   UNL     1     -12.144   8.538  70.936  1.00  0.00    -0.253 OA 
BRANCH   3   4
HETATM    4  C   UNL     1     -11.303   7.481  70.830  1.00  0.00    -0.280 C  
HETATM    5  O   UNL     1     -11.417   6.540  70.062  1.00  0.00    -0.380 OA 
BRANCH   4   6
HETATM    6  C   UNL     1     -10.139   7.682  71.730  1.00  0.00    -0.210 A  
HETATM    7  C   UNL     1     -10.270   7.348  73.083  1.00  0.00    -0.363 A  
HETATM    8  C   UNL     1      -9.175   7.472  73.946  1.00  0.00    -0.314 A  
HETATM    9  C   UNL     1      -7.955   7.966  73.483  1.00  0.00    -0.175 A  
HETATM   10  C   UNL     1      -7.808   8.229  72.120  1.00  0.00    -0.170 A  
HETATM   11  N   UNL     1      -6.833   7.977  74.320  1.00  0.00    -0.121 NA 
HETATM   12  H2  UNL     1      -6.684   7.030  74.669  1.00  0.00     0.000 HD 
HETATM   13  H1  UNL     1      -5.942   8.339  73.982  1.00  0.00     0.000 HD 
HETATM   14  C   UNL     1      -8.896   8.112  71.251  1.00  0.00    -0.176 A  
ENDBRANCH   4   6
ENDBRANCH   3   4
ENDBRANCH   2   3
TORSDOF 3
ENDMDL
MODEL      158
REMARK 921   NORMALIZED FREE ENERGY PREDICTED BY IDOCK:   -2.54 KCAL/MOL
REMARK 922        TOTAL FREE ENERGY PREDICTED BY IDOCK:   -3.30 KCAL/MOL
REMARK 923 INTER-LIGAND FREE ENERGY PREDICTED BY IDOCK:   -3.11 KCAL/MOL
REMARK 924 INTRA-LIGAND FREE ENERGY PREDICTED BY IDOCK:   -0.19 KCAL/MOL
REMARK 927      BINDING AFFINITY PREDICTED BY RF-SCORE:    0.00 PKD
ROOT
HETATM    1  C   UNL     1     -12.581  10.089  71.276  1.00  0.00    -0.495 C  
HETATM    2  C   UNL     1     -12.976   8.792  71.961  1.00  0.00    -0.390 C  
ENDROOT
BRANCH   2   3
HETATM    3  O   UNL     1     -11.986   8.499  72.952  1.00  0.00    -0.243 OA 
BRANCH   3   4
HETATM    4  C   UNL     1     -11.186   7.437  72.687  1.00  0.00    -0.332 C  
HETATM    5  O   UNL     1     -11.539   6.275  72.571  1.00  0.00    -0.276 OA 
BRANCH   4   6
HETATM    6  C   UNL     1      -9.798   7.911  72.450  1.00  0.00    -0.287 A  
HETATM    7  C   UNL     1      -9.472   8.436  71.194  1.00  0.00    -0.227 A  
HETATM    8  C   UNL     1      -8.189   8.944  70.957  1.00  0.00    -0.217 A  
HETATM    9  C   UNL     1      -7.209   8.896  71.949  1.00  0.00     0.052 A  
HETATM   10  C   UNL     1      -7.559   8.438  73.220  1.00  0.00    -0.121 A  
HETATM   11  N   UNL     1      -5.967   9.509  71.745  1.00  0.00    -0.243 NA 
HETATM   12  H2  UNL     1      -6.128  10.486  71.500  1.00  0.00     0.000 HD 
HETATM   13  H1  UNL     1      -5.251   9.474  72.470  1.00  0.00     0.000 HD 
HETATM   14  C   UNL     1      -8.835   7.927  73.466  1.00  0.00    -0.333 A  
ENDBRANCH   4   6
ENDBRANCH   3   4
ENDBRANCH   2   3
TORSDOF 3
ENDMDL
MODEL      159
REMARK 921   NORMALIZED FREE ENERGY PREDICTED BY IDOCK:   -2.50 KCAL/MOL
REMARK 922        TOTAL FREE ENERGY PREDICTED BY IDOCK:   -3.24 KCAL/MOL
REMARK 923 INTER-LIGAND FREE ENERGY PREDICTED BY IDOCK:   -2.97 KCAL/MOL
REMARK 924 INTRA-LIGAND FREE ENERGY PREDICTED BY IDOCK:   -0.27 KCAL/MOL
REMARK 927      BINDING AFFINITY PREDICTED BY RF-SCORE:    0.00 PKD
ROOT
HETATM    1  C   UNL     1     -10.555  14.232  66.333  1.00  0.00    -0.286 C  
HETATM    2  C   UNL     1     -11.211  13.276  65.352  1.00  0.00    -0.287 C  
ENDROOT
BRANCH   2   3
HETATM    3  O   UNL     1     -11.480  12.052  66.043  1.00  0.00    -0.350 OA 
BRANCH   3   4
HETATM    4  C   UNL     1     -10.574  11.061  65.857  1.00  0.00    -0.206 C  
HETATM    5  O   UNL     1      -9.999  10.791  64.816  1.00  0.00    -0.269 OA 
BRANCH   4   6
HETATM    6  C   UNL     1     -10.293  10.398  67.157  1.00  0.00    -0.290 A  
HETATM    7  C   UNL     1     -10.182  11.190  68.305  1.00  0.00    -0.197 A  
HETATM    8  C   UNL     1      -9.975  10.590  69.554  1.00  0.00    -0.187 A  
HETATM    9  C   UNL     1      -9.836   9.206  69.665  1.00  0.00    -0.180 A  
HETATM   10  C   UNL     1     -10.019   8.416  68.528  1.00  0.00    -0.203 A  
HETATM   11  N   UNL     1      -9.746   8.604  70.926  1.00  0.00    -0.190 NA 
HETATM   12  H2  UNL     1     -10.556   8.890  71.476  1.00  0.00     0.000 HD 
HETATM   13  H1  UNL     1      -9.643   7.593  71.007  1.00  0.00     0.000 HD 
HETATM   14  C   UNL     1     -10.222   9.005  67.278  1.00  0.00    -0.323 A  
ENDBRANCH   4   6
ENDBRANCH   3   4
ENDBRANCH   2   3
TORSDOF 3
ENDMDL
MODEL      160
REMARK 921   NORMALIZED FREE ENERGY PREDICTED BY IDOCK:   -2.43 KCAL/MOL
REMARK 922        TOTAL FREE ENERGY PREDICTED BY IDOCK:   -3.17 KCAL/MOL
REMARK 923 INTER-LIGAND FREE ENERGY PREDICTED BY IDOCK:   -2.89 KCAL/MOL
REMARK 924 INTRA-LIGAND FREE ENERGY PREDICTED BY IDOCK:   -0.28 KCAL/MOL
REMARK 927      BINDING AFFINITY PREDICTED BY RF-SCORE:    0.00 PKD
ROOT
HETATM    1  C   UNL     1      -7.156   5.092  72.472  1.00  0.00    -0.086 C  
HETATM    2  C   UNL     1      -8.301   4.094  72.493  1.00  0.00    -0.100 C  
ENDROOT
BRANCH   2   3
HETATM    3  O   UNL     1      -9.397   4.667  71.771  1.00  0.00    -0.133 OA 
BRANCH   3   4
HETATM    4  C   UNL     1     -10.379   5.211  72.530  1.00  0.00    -0.204 C  
HETATM    5  O   UNL     1     -10.861   4.731  73.544  1.00  0.00    -0.241 OA 
BRANCH   4   6
HETATM    6  C   UNL     1     -10.727   6.555  72.001  1.00  0.00    -0.253 A  
HETATM    7  C   UNL     1     -10.657   6.772  70.620  1.00  0.00    -0.257 A  
HETATM    8  C   UNL     1     -11.032   8.010  70.085  1.00  0.00    -0.226 A  
HETATM    9  C   UNL     1     -11.440   9.053  70.918  1.00  0.00    -0.291 A  
HETATM   10  C   UNL     1     -11.577   8.808  72.285  1.00  0.00    -0.391 A  
HETATM   11  N   UNL     1     -11.924  10.246  70.370  1.00  0.00    -0.304 NA 
HETATM   12  H2  UNL     1     -12.694  10.020  69.738  1.00  0.00     0.000 HD 
HETATM   13  H1  UNL     1     -12.221  11.008  70.978  1.00  0.00     0.000 HD 
HETATM   14  C   UNL     1     -11.201   7.578  72.830  1.00  0.00    -0.403 A  
ENDBRANCH   4   6
ENDBRANCH   3   4
ENDBRANCH   2   3
TORSDOF 3
ENDMDL
MODEL      161
REMARK 921   NORMALIZED FREE ENERGY PREDICTED BY IDOCK:   -2.38 KCAL/MOL
REMARK 922        TOTAL FREE ENERGY PREDICTED BY IDOCK:   -3.10 KCAL/MOL
REMARK 923 INTER-LIGAND FREE ENERGY PREDICTED BY IDOCK:   -2.82 KCAL/MOL
REMARK 924 INTRA-LIGAND FREE ENERGY PREDICTED BY IDOCK:   -0.28 KCAL/MOL
REMARK 927      BINDING AFFINITY PREDICTED BY RF-SCORE:    0.00 PKD
ROOT
HETATM    1  C   UNL     1      -6.197  16.987  68.760  1.00  0.00    -0.167 C  
HETATM    2  C   UNL     1      -6.117  15.614  69.405  1.00  0.00    -0.131 C  
ENDROOT
BRANCH   2   3
HETATM    3  O   UNL     1      -7.352  14.936  69.152  1.00  0.00    -0.135 OA 
BRANCH   3   4
HETATM    4  C   UNL     1      -7.457  14.341  67.938  1.00  0.00    -0.150 C  
HETATM    5  O   UNL     1      -6.561  13.782  67.326  1.00  0.00    -0.259 OA 
BRANCH   4   6
HETATM    6  C   UNL     1      -8.873  14.375  67.491  1.00  0.00    -0.197 A  
HETATM    7  C   UNL     1      -9.242  13.624  66.369  1.00  0.00    -0.142 A  
HETATM    8  C   UNL     1     -10.579  13.590  65.957  1.00  0.00    -0.285 A  
HETATM    9  C   UNL     1     -11.552  14.332  66.628  1.00  0.00    -0.383 A  
HETATM   10  C   UNL     1     -11.192  15.021  67.788  1.00  0.00    -0.327 A  
HETATM   11  N   UNL     1     -12.902  14.202  66.284  1.00  0.00    -0.429 NA 
HETATM   12  H2  UNL     1     -13.155  13.216  66.342  1.00  0.00     0.000 HD 
HETATM   13  H1  UNL     1     -13.613  14.745  66.774  1.00  0.00     0.000 HD 
HETATM   14  C   UNL     1      -9.860  15.064  68.206  1.00  0.00    -0.219 A  
ENDBRANCH   4   6
ENDBRANCH   3   4
ENDBRANCH   2   3
TORSDOF 3
ENDMDL
MODEL      162
REMARK 921   NORMALIZED FREE ENERGY PREDICTED BY IDOCK:   -2.37 KCAL/MOL
REMARK 922        TOTAL FREE ENERGY PREDICTED BY IDOCK:   -3.10 KCAL/MOL
REMARK 923 INTER-LIGAND FREE ENERGY PREDICTED BY IDOCK:   -2.92 KCAL/MOL
REMARK 924 INTRA-LIGAND FREE ENERGY PREDICTED BY IDOCK:   -0.17 KCAL/MOL
REMARK 927      BINDING AFFINITY PREDICTED BY RF-SCORE:    0.00 PKD
ROOT
HETATM    1  C   UNL     1      -7.120   4.918  72.901  1.00  0.00    -0.079 C  
HETATM    2  C   UNL     1      -8.185   3.899  73.267  1.00  0.00    -0.088 C  
ENDROOT
BRANCH   2   3
HETATM    3  O   UNL     1      -9.242   4.004  72.308  1.00  0.00    -0.115 OA 
BRANCH   3   4
HETATM    4  C   UNL     1      -9.928   5.173  72.315  1.00  0.00    -0.180 C  
HETATM    5  O   UNL     1     -10.178   5.861  73.292  1.00  0.00    -0.182 OA 
BRANCH   4   6
HETATM    6  C   UNL     1     -10.252   5.564  70.919  1.00  0.00    -0.293 A  
HETATM    7  C   UNL     1      -9.598   4.911  69.869  1.00  0.00    -0.252 A  
HETATM    8  C   UNL     1      -9.924   5.216  68.541  1.00  0.00    -0.221 A  
HETATM    9  C   UNL     1     -10.868   6.200  68.247  1.00  0.00    -0.306 A  
HETATM   10  C   UNL     1     -11.569   6.797  69.297  1.00  0.00    -0.084 A  
HETATM   11  N   UNL     1     -11.273   6.418  66.925  1.00  0.00    -0.737 NA 
HETATM   12  H2  UNL     1     -11.602   5.532  66.540  1.00  0.00     0.000 HD 
HETATM   13  H1  UNL     1     -11.963   7.137  66.710  1.00  0.00     0.000 HD 
HETATM   14  C   UNL     1     -11.249   6.502  70.624  1.00  0.00    -0.386 A  
ENDBRANCH   4   6
ENDBRANCH   3   4
ENDBRANCH   2   3
TORSDOF 3
ENDMDL
MODEL      163
REMARK 921   NORMALIZED FREE ENERGY PREDICTED BY IDOCK:   -2.36 KCAL/MOL
REMARK 922        TOTAL FREE ENERGY PREDICTED BY IDOCK:   -3.08 KCAL/MOL
REMARK 923 INTER-LIGAND FREE ENERGY PREDICTED BY IDOCK:   -2.89 KCAL/MOL
REMARK 924 INTRA-LIGAND FREE ENERGY PREDICTED BY IDOCK:   -0.19 KCAL/MOL
REMARK 927      BINDING AFFINITY PREDICTED BY RF-SCORE:    0.00 PKD
ROOT
HETATM    1  C   UNL     1     -10.641  19.917  65.341  1.00  0.00    -0.187 C  
HETATM    2  C   UNL     1     -10.356  19.034  66.543  1.00  0.00    -0.439 C  
ENDROOT
BRANCH   2   3
HETATM    3  O   UNL     1      -9.047  19.357  67.026  1.00  0.00    -0.291 OA 
BRANCH   3   4
HETATM    4  C   UNL     1      -8.232  18.300  67.264  1.00  0.00    -0.237 C  
HETATM    5  O   UNL     1      -8.111  17.308  66.566  1.00  0.00    -0.231 OA 
BRANCH   4   6
HETATM    6  C   UNL     1      -7.411  18.572  68.472  1.00  0.00    -0.314 A  
HETATM    7  C   UNL     1      -7.421  19.861  69.016  1.00  0.00    -0.205 A  
HETATM    8  C   UNL     1      -6.704  20.135  70.187  1.00  0.00    -0.136 A  
HETATM    9  C   UNL     1      -5.938  19.143  70.802  1.00  0.00     0.002 A  
HETATM   10  C   UNL     1      -5.989  17.843  70.297  1.00  0.00    -0.044 A  
HETATM   11  N   UNL     1      -5.319  19.391  72.032  1.00  0.00    -0.567 NA 
HETATM   12  H2  UNL     1      -6.031  19.703  72.693  1.00  0.00     0.000 HD 
HETATM   13  H1  UNL     1      -4.759  18.667  72.482  1.00  0.00     0.000 HD 
HETATM   14  C   UNL     1      -6.699  17.560  69.128  1.00  0.00    -0.243 A  
ENDBRANCH   4   6
ENDBRANCH   3   4
ENDBRANCH   2   3
TORSDOF 3
ENDMDL
MODEL      164
REMARK 921   NORMALIZED FREE ENERGY PREDICTED BY IDOCK:   -2.35 KCAL/MOL
REMARK 922        TOTAL FREE ENERGY PREDICTED BY IDOCK:   -3.07 KCAL/MOL
REMARK 923 INTER-LIGAND FREE ENERGY PREDICTED BY IDOCK:   -2.88 KCAL/MOL
REMARK 924 INTRA-LIGAND FREE ENERGY PREDICTED BY IDOCK:   -0.19 KCAL/MOL
REMARK 927      BINDING AFFINITY PREDICTED BY RF-SCORE:    0.00 PKD
ROOT
HETATM    1  C   UNL     1     -12.115   9.327  71.662  1.00  0.00    -0.451 C  
HETATM    2  C   UNL     1     -12.011   7.934  71.066  1.00  0.00    -0.252 C  
ENDROOT
BRANCH   2   3
HETATM    3  O   UNL     1     -10.693   7.784  70.528  1.00  0.00    -0.227 OA 
BRANCH   3   4
HETATM    4  C   UNL     1     -10.578   6.921  69.489  1.00  0.00    -0.236 C  
HETATM    5  O   UNL     1     -11.007   5.780  69.444  1.00  0.00    -0.342 OA 
BRANCH   4   6
HETATM    6  C   UNL     1      -9.930   7.611  68.344  1.00  0.00    -0.192 A  
HETATM    7  C   UNL     1      -8.566   7.395  68.114  1.00  0.00    -0.123 A  
HETATM    8  C   UNL     1      -7.938   7.985  67.010  1.00  0.00    -0.108 A  
HETATM    9  C   UNL     1      -8.648   8.824  66.151  1.00  0.00    -0.146 A  
HETATM   10  C   UNL     1     -10.023   8.978  66.342  1.00  0.00    -0.370 A  
HETATM   11  N   UNL     1      -8.047   9.315  64.987  1.00  0.00    -0.121 NA 
HETATM   12  H2  UNL     1      -7.699   8.523  64.446  1.00  0.00     0.000 HD 
HETATM   13  H1  UNL     1      -8.565   9.930  64.359  1.00  0.00     0.000 HD 
HETATM   14  C   UNL     1     -10.657   8.397  67.443  1.00  0.00    -0.313 A  
ENDBRANCH   4   6
ENDBRANCH   3   4
ENDBRANCH   2   3
TORSDOF 3
ENDMDL
MODEL      165
REMARK 921   NORMALIZED FREE ENERGY PREDICTED BY IDOCK:   -2.34 KCAL/MOL
REMARK 922        TOTAL FREE ENERGY PREDICTED BY IDOCK:   -3.06 KCAL/MOL
REMARK 923 INTER-LIGAND FREE ENERGY PREDICTED BY IDOCK:   -3.01 KCAL/MOL
REMARK 924 INTRA-LIGAND FREE ENERGY PREDICTED BY IDOCK:   -0.05 KCAL/MOL
REMARK 927      BINDING AFFINITY PREDICTED BY RF-SCORE:    0.00 PKD
ROOT
HETATM    1  C   UNL     1      -6.789   7.711  68.324  1.00  0.00    -0.067 C  
HETATM    2  C   UNL     1      -7.407   7.374  69.670  1.00  0.00    -0.091 C  
ENDROOT
BRANCH   2   3
HETATM    3  O   UNL     1      -7.664   8.603  70.357  1.00  0.00    -0.069 OA 
BRANCH   3   4
HETATM    4  C   UNL     1      -8.806   9.243  70.007  1.00  0.00    -0.197 C  
HETATM    5  O   UNL     1      -8.901  10.189  69.243  1.00  0.00    -0.161 OA 
BRANCH   4   6
HETATM    6  C   UNL     1      -9.969   8.551  70.621  1.00  0.00    -0.222 A  
HETATM    7  C   UNL     1     -10.726   7.680  69.830  1.00  0.00    -0.253 A  
HETATM    8  C   UNL     1     -11.792   6.968  70.393  1.00  0.00    -0.295 A  
HETATM    9  C   UNL     1     -12.140   7.148  71.733  1.00  0.00    -0.328 A  
HETATM   10  C   UNL     1     -11.338   7.962  72.534  1.00  0.00    -0.449 A  
HETATM   11  N   UNL     1     -13.130   6.350  72.318  1.00  0.00    -0.471 NA 
HETATM   12  H2  UNL     1     -12.876   5.371  72.182  1.00  0.00     0.000 HD 
HETATM   13  H1  UNL     1     -13.385   6.481  73.297  1.00  0.00     0.000 HD 
HETATM   14  C   UNL     1     -10.274   8.679  71.981  1.00  0.00    -0.407 A  
ENDBRANCH   4   6
ENDBRANCH   3   4
ENDBRANCH   2   3
TORSDOF 3
ENDMDL
MODEL      166
REMARK 921   NORMALIZED FREE ENERGY PREDICTED BY IDOCK:   -2.32 KCAL/MOL
REMARK 922        TOTAL FREE ENERGY PREDICTED BY IDOCK:   -3.03 KCAL/MOL
REMARK 923 INTER-LIGAND FREE ENERGY PREDICTED BY IDOCK:   -3.12 KCAL/MOL
REMARK 924 INTRA-LIGAND FREE ENERGY PREDICTED BY IDOCK:    0.08 KCAL/MOL
REMARK 927      BINDING AFFINITY PREDICTED BY RF-SCORE:    0.00 PKD
ROOT
HETATM    1  C   UNL     1      -9.315  10.109  63.745  1.00  0.00    -0.336 C  
HETATM    2  C   UNL     1      -9.142  10.674  65.144  1.00  0.00    -0.201 C  
ENDROOT
BRANCH   2   3
HETATM    3  O   UNL     1     -10.434  10.732  65.758  1.00  0.00    -0.242 OA 
BRANCH   3   4
HETATM    4  C   UNL     1     -10.437  10.836  67.109  1.00  0.00    -0.237 C  
HETATM    5  O   UNL     1     -10.490  11.870  67.756  1.00  0.00    -0.195 OA 
BRANCH   4   6
HETATM    6  C   UNL     1     -10.473   9.478  67.710  1.00  0.00    -0.309 A  
HETATM    7  C   UNL     1     -10.484   8.367  66.859  1.00  0.00    -0.359 A  
HETATM    8  C   UNL     1     -10.459   7.073  67.394  1.00  0.00    -0.343 A  
HETATM    9  C   UNL     1     -10.465   6.873  68.775  1.00  0.00    -0.205 A  
HETATM   10  C   UNL     1     -10.381   7.983  69.618  1.00  0.00    -0.220 A  
HETATM   11  N   UNL     1     -10.322   5.584  69.302  1.00  0.00    -0.250 NA 
HETATM   12  H2  UNL     1      -9.469   5.174  68.922  1.00  0.00     0.000 HD 
HETATM   13  H1  UNL     1     -10.327   5.437  70.311  1.00  0.00     0.000 HD 
HETATM   14  C   UNL     1     -10.409   9.277  69.094  1.00  0.00    -0.222 A  
ENDBRANCH   4   6
ENDBRANCH   3   4
ENDBRANCH   2   3
TORSDOF 3
ENDMDL
MODEL      167
REMARK 921   NORMALIZED FREE ENERGY PREDICTED BY IDOCK:   -2.30 KCAL/MOL
REMARK 922        TOTAL FREE ENERGY PREDICTED BY IDOCK:   -3.01 KCAL/MOL
REMARK 923 INTER-LIGAND FREE ENERGY PREDICTED BY IDOCK:   -2.78 KCAL/MOL
REMARK 924 INTRA-LIGAND FREE ENERGY PREDICTED BY IDOCK:   -0.23 KCAL/MOL
REMARK 927      BINDING AFFINITY PREDICTED BY RF-SCORE:    0.00 PKD
ROOT
HETATM    1  C   UNL     1      -7.835   8.318  66.951  1.00  0.00    -0.096 C  
HETATM    2  C   UNL     1      -8.580   8.337  68.274  1.00  0.00    -0.133 C  
ENDROOT
BRANCH   2   3
HETATM    3  O   UNL     1      -9.841   8.980  68.060  1.00  0.00    -0.155 OA 
BRANCH   3   4
HETATM    4  C   UNL     1      -9.988  10.194  68.645  1.00  0.00    -0.170 C  
HETATM    5  O   UNL     1      -9.869  10.445  69.833  1.00  0.00    -0.165 OA 
BRANCH   4   6
HETATM    6  C   UNL     1     -10.221  11.222  67.598  1.00  0.00    -0.206 A  
HETATM    7  C   UNL     1      -9.134  11.659  66.832  1.00  0.00    -0.188 A  
HETATM    8  C   UNL     1      -9.330  12.584  65.799  1.00  0.00     0.014 A  
HETATM    9  C   UNL     1     -10.597  13.114  65.548  1.00  0.00    -0.288 A  
HETATM   10  C   UNL     1     -11.687  12.622  66.267  1.00  0.00    -0.460 A  
HETATM   11  N   UNL     1     -10.807  13.947  64.443  1.00  0.00    -0.584 NA 
HETATM   12  H2  UNL     1     -10.493  13.456  63.606  1.00  0.00     0.000 HD 
HETATM   13  H1  UNL     1     -11.732  14.335  64.260  1.00  0.00     0.000 HD 
HETATM   14  C   UNL     1     -11.502  11.702  67.301  1.00  0.00    -0.350 A  
ENDBRANCH   4   6
ENDBRANCH   3   4
ENDBRANCH   2   3
TORSDOF 3
ENDMDL
MODEL      168
REMARK 921   NORMALIZED FREE ENERGY PREDICTED BY IDOCK:   -2.29 KCAL/MOL
REMARK 922        TOTAL FREE ENERGY PREDICTED BY IDOCK:   -3.00 KCAL/MOL
REMARK 923 INTER-LIGAND FREE ENERGY PREDICTED BY IDOCK:   -2.81 KCAL/MOL
REMARK 924 INTRA-LIGAND FREE ENERGY PREDICTED BY IDOCK:   -0.19 KCAL/MOL
REMARK 927      BINDING AFFINITY PREDICTED BY RF-SCORE:    0.00 PKD
ROOT
HETATM    1  C   UNL     1      -6.080   3.898  68.521  1.00  0.00    -0.031 C  
HETATM    2  C   UNL     1      -6.474   4.969  69.524  1.00  0.00    -0.038 C  
ENDROOT
BRANCH   2   3
HETATM    3  O   UNL     1      -7.903   4.980  69.617  1.00  0.00    -0.066 OA 
BRANCH   3   4
HETATM    4  C   UNL     1      -8.411   4.809  70.862  1.00  0.00    -0.106 C  
HETATM    5  O   UNL     1      -7.865   4.246  71.796  1.00  0.00    -0.076 OA 
BRANCH   4   6
HETATM    6  C   UNL     1      -9.718   5.509  70.963  1.00  0.00    -0.229 A  
HETATM    7  C   UNL     1     -10.324   5.972  69.790  1.00  0.00    -0.290 A  
HETATM    8  C   UNL     1     -11.582   6.584  69.845  1.00  0.00    -0.433 A  
HETATM    9  C   UNL     1     -12.227   6.779  71.067  1.00  0.00    -0.352 A  
HETATM   10  C   UNL     1     -11.652   6.251  72.224  1.00  0.00    -0.355 A  
HETATM   11  N   UNL     1     -13.532   7.285  71.104  1.00  0.00    -0.577 NA 
HETATM   12  H2  UNL     1     -14.123   6.692  70.520  1.00  0.00     0.000 HD 
HETATM   13  H1  UNL     1     -14.003   7.427  71.997  1.00  0.00     0.000 HD 
HETATM   14  C   UNL     1     -10.396   5.642  72.180  1.00  0.00    -0.256 A  
ENDBRANCH   4   6
ENDBRANCH   3   4
ENDBRANCH   2   3
TORSDOF 3
ENDMDL
MODEL      169
REMARK 921   NORMALIZED FREE ENERGY PREDICTED BY IDOCK:   -2.28 KCAL/MOL
REMARK 922        TOTAL FREE ENERGY PREDICTED BY IDOCK:   -2.99 KCAL/MOL
REMARK 923 INTER-LIGAND FREE ENERGY PREDICTED BY IDOCK:   -2.85 KCAL/MOL
REMARK 924 INTRA-LIGAND FREE ENERGY PREDICTED BY IDOCK:   -0.14 KCAL/MOL
REMARK 927      BINDING AFFINITY PREDICTED BY RF-SCORE:    0.00 PKD
ROOT
HETATM    1  C   UNL     1      -5.768   3.987  66.977  1.00  0.00    -0.022 C  
HETATM    2  C   UNL     1      -7.161   3.432  67.217  1.00  0.00    -0.059 C  
ENDROOT
BRANCH   2   3
HETATM    3  O   UNL     1      -7.889   4.391  67.991  1.00  0.00    -0.079 OA 
BRANCH   3   4
HETATM    4  C   UNL     1      -9.238   4.344  67.867  1.00  0.00    -0.136 C  
HETATM    5  O   UNL     1      -9.863   3.855  66.941  1.00  0.00    -0.205 OA 
BRANCH   4   6
HETATM    6  C   UNL     1      -9.867   4.894  69.096  1.00  0.00    -0.263 A  
HETATM    7  C   UNL     1     -10.702   6.011  68.980  1.00  0.00    -0.393 A  
HETATM    8  C   UNL     1     -11.356   6.518  70.110  1.00  0.00    -0.463 A  
HETATM    9  C   UNL     1     -11.153   5.947  71.367  1.00  0.00    -0.248 A  
HETATM   10  C   UNL     1     -10.377   4.791  71.465  1.00  0.00    -0.203 A  
HETATM   11  N   UNL     1     -11.896   6.384  72.470  1.00  0.00    -0.496 NA 
HETATM   12  H2  UNL     1     -12.888   6.307  72.239  1.00  0.00     0.000 HD 
HETATM   13  H1  UNL     1     -11.748   5.967  73.388  1.00  0.00     0.000 HD 
HETATM   14  C   UNL     1      -9.718   4.279  70.344  1.00  0.00    -0.280 A  
ENDBRANCH   4   6
ENDBRANCH   3   4
ENDBRANCH   2   3
TORSDOF 3
ENDMDL
MODEL      170
REMARK 921   NORMALIZED FREE ENERGY PREDICTED BY IDOCK:   -2.27 KCAL/MOL
REMARK 922        TOTAL FREE ENERGY PREDICTED BY IDOCK:   -2.98 KCAL/MOL
REMARK 923 INTER-LIGAND FREE ENERGY PREDICTED BY IDOCK:   -2.75 KCAL/MOL
REMARK 924 INTRA-LIGAND FREE ENERGY PREDICTED BY IDOCK:   -0.23 KCAL/MOL
REMARK 927      BINDING AFFINITY PREDICTED BY RF-SCORE:    0.00 PKD
ROOT
HETATM    1  C   UNL     1      -8.872   5.014  67.401  1.00  0.00    -0.102 C  
HETATM    2  C   UNL     1      -9.811   6.209  67.394  1.00  0.00    -0.132 C  
ENDROOT
BRANCH   2   3
HETATM    3  O   UNL     1      -9.398   7.098  68.437  1.00  0.00    -0.136 OA 
BRANCH   3   4
HETATM    4  C   UNL     1      -8.648   8.157  68.044  1.00  0.00    -0.129 C  
HETATM    5  O   UNL     1      -7.432   8.186  67.948  1.00  0.00    -0.094 OA 
BRANCH   4   6
HETATM    6  C   UNL     1      -9.541   9.273  67.638  1.00  0.00    -0.172 A  
HETATM    7  C   UNL     1     -10.526   9.704  68.534  1.00  0.00    -0.241 A  
HETATM    8  C   UNL     1     -11.346  10.791  68.205  1.00  0.00    -0.377 A  
HETATM    9  C   UNL     1     -11.222  11.429  66.970  1.00  0.00    -0.283 A  
HETATM   10  C   UNL     1     -10.191  11.042  66.112  1.00  0.00    -0.298 A  
HETATM   11  N   UNL     1     -11.962  12.585  66.695  1.00  0.00    -0.574 NA 
HETATM   12  H2  UNL     1     -11.776  13.268  67.430  1.00  0.00     0.000 HD 
HETATM   13  H1  UNL     1     -11.872  13.051  65.793  1.00  0.00     0.000 HD 
HETATM   14  C   UNL     1      -9.371   9.957  66.429  1.00  0.00    -0.213 A  
ENDBRANCH   4   6
ENDBRANCH   3   4
ENDBRANCH   2   3
TORSDOF 3
ENDMDL
MODEL      171
REMARK 921   NORMALIZED FREE ENERGY PREDICTED BY IDOCK:   -2.27 KCAL/MOL
REMARK 922        TOTAL FREE ENERGY PREDICTED BY IDOCK:   -2.98 KCAL/MOL
REMARK 923 INTER-LIGAND FREE ENERGY PREDICTED BY IDOCK:   -2.66 KCAL/MOL
REMARK 924 INTRA-LIGAND FREE ENERGY PREDICTED BY IDOCK:   -0.31 KCAL/MOL
REMARK 927      BINDING AFFINITY PREDICTED BY RF-SCORE:    0.00 PKD
ROOT
HETATM    1  C   UNL     1      -6.842   9.429  68.260  1.00  0.00    -0.063 C  
HETATM    2  C   UNL     1      -7.812   8.509  67.539  1.00  0.00    -0.099 C  
ENDROOT
BRANCH   2   3
HETATM    3  O   UNL     1      -9.120   9.081  67.642  1.00  0.00    -0.132 OA 
BRANCH   3   4
HETATM    4  C   UNL     1     -10.113   8.220  67.972  1.00  0.00    -0.198 C  
HETATM    5  O   UNL     1     -10.834   7.615  67.195  1.00  0.00    -0.317 OA 
BRANCH   4   6
HETATM    6  C   UNL     1     -10.137   8.032  69.445  1.00  0.00    -0.197 A  
HETATM    7  C   UNL     1     -10.313   9.154  70.263  1.00  0.00    -0.253 A  
HETATM    8  C   UNL     1     -10.397   9.004  71.652  1.00  0.00    -0.420 A  
HETATM    9  C   UNL     1     -10.265   7.746  72.242  1.00  0.00    -0.228 A  
HETATM   10  C   UNL     1     -10.161   6.624  71.419  1.00  0.00    -0.220 A  
HETATM   11  N   UNL     1     -10.465   7.587  73.618  1.00  0.00    -0.333 NA 
HETATM   12  H2  UNL     1     -11.387   7.956  73.853  1.00  0.00     0.000 HD 
HETATM   13  H1  UNL     1     -10.368   6.668  74.050  1.00  0.00     0.000 HD 
HETATM   14  C   UNL     1     -10.073   6.763  70.032  1.00  0.00    -0.200 A  
ENDBRANCH   4   6
ENDBRANCH   3   4
ENDBRANCH   2   3
TORSDOF 3
ENDMDL
MODEL      172
REMARK 921   NORMALIZED FREE ENERGY PREDICTED BY IDOCK:   -2.26 KCAL/MOL
REMARK 922        TOTAL FREE ENERGY PREDICTED BY IDOCK:   -2.97 KCAL/MOL
REMARK 923 INTER-LIGAND FREE ENERGY PREDICTED BY IDOCK:   -2.78 KCAL/MOL
REMARK 924 INTRA-LIGAND FREE ENERGY PREDICTED BY IDOCK:   -0.18 KCAL/MOL
REMARK 927      BINDING AFFINITY PREDICTED BY RF-SCORE:    0.00 PKD
ROOT
HETATM    1  C   UNL     1     -13.788   9.092  72.526  1.00  0.00    -0.485 C  
HETATM    2  C   UNL     1     -13.284   7.663  72.435  1.00  0.00     0.194 C  
ENDROOT
BRANCH   2   3
HETATM    3  O   UNL     1     -12.067   7.672  71.682  1.00  0.00    -0.284 OA 
BRANCH   3   4
HETATM    4  C   UNL     1     -10.967   7.231  72.338  1.00  0.00    -0.267 C  
HETATM    5  O   UNL     1     -10.489   7.708  73.354  1.00  0.00    -0.351 OA 
BRANCH   4   6
HETATM    6  C   UNL     1     -10.468   5.990  71.690  1.00  0.00    -0.276 A  
HETATM    7  C   UNL     1     -10.409   4.814  72.445  1.00  0.00    -0.261 A  
HETATM    8  C   UNL     1      -9.999   3.616  71.848  1.00  0.00    -0.223 A  
HETATM    9  C   UNL     1      -9.604   3.586  70.510  1.00  0.00    -0.176 A  
HETATM   10  C   UNL     1      -9.733   4.745  69.743  1.00  0.00    -0.272 A  
HETATM   11  N   UNL     1      -9.307   2.367  69.889  1.00  0.00    -0.122 NA 
HETATM   12  H2  UNL     1     -10.109   1.745  70.001  1.00  0.00     0.000 HD 
HETATM   13  H1  UNL     1      -9.019   2.344  68.911  1.00  0.00     0.000 HD 
HETATM   14  C   UNL     1     -10.139   5.945  70.330  1.00  0.00    -0.260 A  
ENDBRANCH   4   6
ENDBRANCH   3   4
ENDBRANCH   2   3
TORSDOF 3
ENDMDL
MODEL      173
REMARK 921   NORMALIZED FREE ENERGY PREDICTED BY IDOCK:   -2.25 KCAL/MOL
REMARK 922        TOTAL FREE ENERGY PREDICTED BY IDOCK:   -2.96 KCAL/MOL
REMARK 923 INTER-LIGAND FREE ENERGY PREDICTED BY IDOCK:   -3.38 KCAL/MOL
REMARK 924 INTRA-LIGAND FREE ENERGY PREDICTED BY IDOCK:    0.42 KCAL/MOL
REMARK 927      BINDING AFFINITY PREDICTED BY RF-SCORE:    0.00 PKD
ROOT
HETATM    1  C   UNL     1     -11.019   6.614  67.174  1.00  0.00    -0.478 C  
HETATM    2  C   UNL     1      -9.670   6.273  66.566  1.00  0.00    -0.137 C  
ENDROOT
BRANCH   2   3
HETATM    3  O   UNL     1      -8.904   7.480  66.487  1.00  0.00    -0.134 OA 
BRANCH   3   4
HETATM    4  C   UNL     1      -9.480   8.578  67.037  1.00  0.00    -0.173 C  
HETATM    5  O   UNL     1      -9.666   8.779  68.226  1.00  0.00    -0.152 OA 
BRANCH   4   6
HETATM    6  C   UNL     1      -9.769   9.571  65.971  1.00  0.00    -0.341 A  
HETATM    7  C   UNL     1     -10.673  10.605  66.242  1.00  0.00    -0.172 A  
HETATM    8  C   UNL     1     -10.923  11.589  65.279  1.00  0.00    -0.291 A  
HETATM    9  C   UNL     1     -10.310  11.532  64.026  1.00  0.00    -0.355 A  
HETATM   10  C   UNL     1      -9.357  10.542  63.786  1.00  0.00    -0.319 A  
HETATM   11  N   UNL     1     -10.474  12.580  63.112  1.00  0.00    -0.560 NA 
HETATM   12  H2  UNL     1     -10.193  13.449  63.567  1.00  0.00     0.000 HD 
HETATM   13  H1  UNL     1     -10.027  12.538  62.196  1.00  0.00     0.000 HD 
HETATM   14  C   UNL     1      -9.103   9.553  64.740  1.00  0.00    -0.271 A  
ENDBRANCH   4   6
ENDBRANCH   3   4
ENDBRANCH   2   3
TORSDOF 3
ENDMDL
MODEL      174
REMARK 921   NORMALIZED FREE ENERGY PREDICTED BY IDOCK:   -2.25 KCAL/MOL
REMARK 922        TOTAL FREE ENERGY PREDICTED BY IDOCK:   -2.96 KCAL/MOL
REMARK 923 INTER-LIGAND FREE ENERGY PREDICTED BY IDOCK:   -2.67 KCAL/MOL
REMARK 924 INTRA-LIGAND FREE ENERGY PREDICTED BY IDOCK:   -0.29 KCAL/MOL
REMARK 927      BINDING AFFINITY PREDICTED BY RF-SCORE:    0.00 PKD
ROOT
HETATM    1  C   UNL     1     -11.067   6.510  66.968  1.00  0.00    -0.411 C  
HETATM    2  C   UNL     1      -9.752   7.209  66.671  1.00  0.00    -0.170 C  
ENDROOT
BRANCH   2   3
HETATM    3  O   UNL     1      -9.555   8.218  67.667  1.00  0.00    -0.145 OA 
BRANCH   3   4
HETATM    4  C   UNL     1      -8.619   7.940  68.607  1.00  0.00    -0.128 C  
HETATM    5  O   UNL     1      -7.408   7.993  68.462  1.00  0.00    -0.092 OA 
BRANCH   4   6
HETATM    6  C   UNL     1      -9.288   7.653  69.902  1.00  0.00    -0.150 A  
HETATM    7  C   UNL     1      -8.794   6.613  70.697  1.00  0.00    -0.148 A  
HETATM    8  C   UNL     1      -9.366   6.354  71.949  1.00  0.00    -0.154 A  
HETATM    9  C   UNL     1     -10.457   7.097  72.401  1.00  0.00    -0.218 A  
HETATM   10  C   UNL     1     -10.899   8.178  71.637  1.00  0.00    -0.306 A  
HETATM   11  N   UNL     1     -10.949   6.912  73.698  1.00  0.00    -0.528 NA 
HETATM   12  H2  UNL     1     -10.179   7.041  74.355  1.00  0.00     0.000 HD 
HETATM   13  H1  UNL     1     -11.747   7.454  74.029  1.00  0.00     0.000 HD 
HETATM   14  C   UNL     1     -10.338   8.443  70.386  1.00  0.00    -0.219 A  
ENDBRANCH   4   6
ENDBRANCH   3   4
ENDBRANCH   2   3
TORSDOF 3
ENDMDL
MODEL      175
REMARK 921   NORMALIZED FREE ENERGY PREDICTED BY IDOCK:   -2.23 KCAL/MOL
REMARK 922        TOTAL FREE ENERGY PREDICTED BY IDOCK:   -2.93 KCAL/MOL
REMARK 923 INTER-LIGAND FREE ENERGY PREDICTED BY IDOCK:   -3.09 KCAL/MOL
REMARK 924 INTRA-LIGAND FREE ENERGY PREDICTED BY IDOCK:    0.16 KCAL/MOL
REMARK 927      BINDING AFFINITY PREDICTED BY RF-SCORE:    0.00 PKD
ROOT
HETATM    1  C   UNL     1      -8.992   5.882  70.704  1.00  0.00    -0.151 C  
HETATM    2  C   UNL     1      -9.830   5.840  69.438  1.00  0.00    -0.167 C  
ENDROOT
BRANCH   2   3
HETATM    3  O   UNL     1      -9.227   6.718  68.482  1.00  0.00    -0.130 OA 
BRANCH   3   4
HETATM    4  C   UNL     1     -10.086   7.378  67.667  1.00  0.00    -0.186 C  
HETATM    5  O   UNL     1     -10.614   6.936  66.660  1.00  0.00    -0.233 OA 
BRANCH   4   6
HETATM    6  C   UNL     1     -10.383   8.716  68.241  1.00  0.00    -0.252 A  
HETATM    7  C   UNL     1     -10.711   9.762  67.371  1.00  0.00    -0.314 A  
HETATM    8  C   UNL     1     -11.052  11.020  67.884  1.00  0.00    -0.347 A  
HETATM    9  C   UNL     1     -11.029  11.259  69.259  1.00  0.00    -0.243 A  
HETATM   10  C   UNL     1     -10.772  10.194  70.124  1.00  0.00    -0.355 A  
HETATM   11  N   UNL     1     -11.483  12.480  69.770  1.00  0.00    -0.492 NA 
HETATM   12  H2  UNL     1     -12.433  12.637  69.433  1.00  0.00     0.000 HD 
HETATM   13  H1  UNL     1     -11.466  12.656  70.775  1.00  0.00     0.000 HD 
HETATM   14  C   UNL     1     -10.428   8.937  69.623  1.00  0.00    -0.218 A  
ENDBRANCH   4   6
ENDBRANCH   3   4
ENDBRANCH   2   3
TORSDOF 3
ENDMDL
MODEL      176
REMARK 921   NORMALIZED FREE ENERGY PREDICTED BY IDOCK:   -2.21 KCAL/MOL
REMARK 922        TOTAL FREE ENERGY PREDICTED BY IDOCK:   -2.91 KCAL/MOL
REMARK 923 INTER-LIGAND FREE ENERGY PREDICTED BY IDOCK:   -2.77 KCAL/MOL
REMARK 924 INTRA-LIGAND FREE ENERGY PREDICTED BY IDOCK:   -0.14 KCAL/MOL
REMARK 927      BINDING AFFINITY PREDICTED BY RF-SCORE:    0.00 PKD
ROOT
HETATM    1  C   UNL     1     -10.458  11.443  63.482  1.00  0.00    -0.477 C  
HETATM    2  C   UNL     1      -9.382  10.455  63.896  1.00  0.00    -0.279 C  
ENDROOT
BRANCH   2   3
HETATM    3  O   UNL     1      -9.511  10.227  65.304  1.00  0.00    -0.199 OA 
BRANCH   3   4
HETATM    4  C   UNL     1      -9.110   9.008  65.741  1.00  0.00    -0.219 C  
HETATM    5  O   UNL     1      -8.611   8.124  65.064  1.00  0.00    -0.143 OA 
BRANCH   4   6
HETATM    6  C   UNL     1      -9.274   8.932  67.215  1.00  0.00    -0.164 A  
HETATM    7  C   UNL     1      -8.550   9.821  68.018  1.00  0.00    -0.122 A  
HETATM    8  C   UNL     1      -8.725   9.814  69.407  1.00  0.00    -0.178 A  
HETATM    9  C   UNL     1      -9.587   8.898  70.012  1.00  0.00    -0.178 A  
HETATM   10  C   UNL     1     -10.360   8.064  69.203  1.00  0.00    -0.226 A  
HETATM   11  N   UNL     1      -9.846   8.973  71.386  1.00  0.00    -0.304 NA 
HETATM   12  H2  UNL     1     -10.177   9.914  71.599  1.00  0.00     0.000 HD 
HETATM   13  H1  UNL     1     -10.475   8.303  71.828  1.00  0.00     0.000 HD 
HETATM   14  C   UNL     1     -10.190   8.060  67.816  1.00  0.00    -0.282 A  
ENDBRANCH   4   6
ENDBRANCH   3   4
ENDBRANCH   2   3
TORSDOF 3
ENDMDL
MODEL      177
REMARK 921   NORMALIZED FREE ENERGY PREDICTED BY IDOCK:   -2.21 KCAL/MOL
REMARK 922        TOTAL FREE ENERGY PREDICTED BY IDOCK:   -2.90 KCAL/MOL
REMARK 923 INTER-LIGAND FREE ENERGY PREDICTED BY IDOCK:   -2.67 KCAL/MOL
REMARK 924 INTRA-LIGAND FREE ENERGY PREDICTED BY IDOCK:   -0.23 KCAL/MOL
REMARK 927      BINDING AFFINITY PREDICTED BY RF-SCORE:    0.00 PKD
ROOT
HETATM    1  C   UNL     1     -11.419  12.115  69.243  1.00  0.00    -0.363 C  
HETATM    2  C   UNL     1     -11.689  12.387  67.774  1.00  0.00    -0.350 C  
ENDROOT
BRANCH   2   3
HETATM    3  O   UNL     1     -11.225  11.259  67.024  1.00  0.00    -0.298 OA 
BRANCH   3   4
HETATM    4  C   UNL     1      -9.887  11.045  67.052  1.00  0.00    -0.182 C  
HETATM    5  O   UNL     1      -9.018  11.861  66.795  1.00  0.00    -0.186 OA 
BRANCH   4   6
HETATM    6  C   UNL     1      -9.616   9.672  67.550  1.00  0.00    -0.180 A  
HETATM    7  C   UNL     1      -8.580   9.484  68.471  1.00  0.00    -0.119 A  
HETATM    8  C   UNL     1      -8.336   8.212  69.003  1.00  0.00    -0.128 A  
HETATM    9  C   UNL     1      -9.090   7.111  68.594  1.00  0.00    -0.133 A  
HETATM   10  C   UNL     1     -10.168   7.317  67.731  1.00  0.00    -0.247 A  
HETATM   11  N   UNL     1      -8.920   5.868  69.213  1.00  0.00    -0.117 NA 
HETATM   12  H2  UNL     1      -9.049   5.990  70.218  1.00  0.00     0.000 HD 
HETATM   13  H1  UNL     1      -9.470   5.064  68.914  1.00  0.00     0.000 HD 
HETATM   14  C   UNL     1     -10.417   8.581  67.192  1.00  0.00    -0.370 A  
ENDBRANCH   4   6
ENDBRANCH   3   4
ENDBRANCH   2   3
TORSDOF 3
ENDMDL
MODEL      178
REMARK 921   NORMALIZED FREE ENERGY PREDICTED BY IDOCK:   -2.20 KCAL/MOL
REMARK 922        TOTAL FREE ENERGY PREDICTED BY IDOCK:   -2.90 KCAL/MOL
REMARK 923 INTER-LIGAND FREE ENERGY PREDICTED BY IDOCK:   -2.72 KCAL/MOL
REMARK 924 INTRA-LIGAND FREE ENERGY PREDICTED BY IDOCK:   -0.18 KCAL/MOL
REMARK 927      BINDING AFFINITY PREDICTED BY RF-SCORE:    0.00 PKD
ROOT
HETATM    1  C   UNL     1      -9.555   6.694  72.399  1.00  0.00    -0.154 C  
HETATM    2  C   UNL     1     -10.179   6.337  71.061  1.00  0.00    -0.192 C  
ENDROOT
BRANCH   2   3
HETATM    3  O   UNL     1      -9.750   7.310  70.102  1.00  0.00    -0.172 OA 
BRANCH   3   4
HETATM    4  C   UNL     1     -10.399   7.288  68.912  1.00  0.00    -0.201 C  
HETATM    5  O   UNL     1     -11.223   6.463  68.552  1.00  0.00    -0.328 OA 
BRANCH   4   6
HETATM    6  C   UNL     1     -10.036   8.497  68.128  1.00  0.00    -0.240 A  
HETATM    7  C   UNL     1      -9.146   9.419  68.689  1.00  0.00    -0.132 A  
HETATM    8  C   UNL     1      -8.739  10.539  67.954  1.00  0.00    -0.126 A  
HETATM    9  C   UNL     1      -9.244  10.773  66.674  1.00  0.00    -0.166 A  
HETATM   10  C   UNL     1     -10.075   9.814  66.092  1.00  0.00    -0.315 A  
HETATM   11  N   UNL     1      -8.747  11.827  65.900  1.00  0.00    -0.398 NA 
HETATM   12  H2  UNL     1      -7.734  11.725  65.831  1.00  0.00     0.000 HD 
HETATM   13  H1  UNL     1      -9.116  11.999  64.965  1.00  0.00     0.000 HD 
HETATM   14  C   UNL     1     -10.489   8.695  66.819  1.00  0.00    -0.298 A  
ENDBRANCH   4   6
ENDBRANCH   3   4
ENDBRANCH   2   3
TORSDOF 3
ENDMDL
MODEL      179
REMARK 921   NORMALIZED FREE ENERGY PREDICTED BY IDOCK:   -2.20 KCAL/MOL
REMARK 922        TOTAL FREE ENERGY PREDICTED BY IDOCK:   -2.89 KCAL/MOL
REMARK 923 INTER-LIGAND FREE ENERGY PREDICTED BY IDOCK:   -2.66 KCAL/MOL
REMARK 924 INTRA-LIGAND FREE ENERGY PREDICTED BY IDOCK:   -0.23 KCAL/MOL
REMARK 927      BINDING AFFINITY PREDICTED BY RF-SCORE:    0.00 PKD
ROOT
HETATM    1  C   UNL     1      -6.951   7.492  66.407  1.00  0.00    -0.070 C  
HETATM    2  C   UNL     1      -8.311   6.939  66.017  1.00  0.00    -0.134 C  
ENDROOT
BRANCH   2   3
HETATM    3  O   UNL     1      -9.265   7.397  66.980  1.00  0.00    -0.131 OA 
BRANCH   3   4
HETATM    4  C   UNL     1      -9.876   6.429  67.707  1.00  0.00    -0.123 C  
HETATM    5  O   UNL     1      -9.949   5.246  67.421  1.00  0.00    -0.149 OA 
BRANCH   4   6
HETATM    6  C   UNL     1     -10.369   7.007  68.984  1.00  0.00    -0.208 A  
HETATM    7  C   UNL     1     -11.534   6.482  69.553  1.00  0.00    -0.384 A  
HETATM    8  C   UNL     1     -11.993   6.965  70.785  1.00  0.00    -0.424 A  
HETATM    9  C   UNL     1     -11.323   8.000  71.439  1.00  0.00    -0.256 A  
HETATM   10  C   UNL     1     -10.122   8.469  70.903  1.00  0.00    -0.246 A  
HETATM   11  N   UNL     1     -11.718   8.398  72.721  1.00  0.00    -0.364 NA 
HETATM   12  H2  UNL     1     -11.712   7.577  73.328  1.00  0.00     0.000 HD 
HETATM   13  H1  UNL     1     -11.228   9.154  73.199  1.00  0.00     0.000 HD 
HETATM   14  C   UNL     1      -9.658   7.996  69.674  1.00  0.00    -0.168 A  
ENDBRANCH   4   6
ENDBRANCH   3   4
ENDBRANCH   2   3
TORSDOF 3
ENDMDL
MODEL      180
REMARK 921   NORMALIZED FREE ENERGY PREDICTED BY IDOCK:   -2.20 KCAL/MOL
REMARK 922        TOTAL FREE ENERGY PREDICTED BY IDOCK:   -2.89 KCAL/MOL
REMARK 923 INTER-LIGAND FREE ENERGY PREDICTED BY IDOCK:   -2.73 KCAL/MOL
REMARK 924 INTRA-LIGAND FREE ENERGY PREDICTED BY IDOCK:   -0.16 KCAL/MOL
REMARK 927      BINDING AFFINITY PREDICTED BY RF-SCORE:    0.00 PKD
ROOT
HETATM    1  C   UNL     1     -11.545  12.354  66.717  1.00  0.00    -0.444 C  
HETATM    2  C   UNL     1     -10.504  11.832  67.692  1.00  0.00    -0.197 C  
ENDROOT
BRANCH   2   3
HETATM    3  O   UNL     1     -11.099  10.768  68.443  1.00  0.00    -0.225 OA 
BRANCH   3   4
HETATM    4  C   UNL     1     -10.549   9.543  68.262  1.00  0.00    -0.216 C  
HETATM    5  O   UNL     1     -10.727   8.802  67.309  1.00  0.00    -0.276 OA 
BRANCH   4   6
HETATM    6  C   UNL     1      -9.595   9.261  69.366  1.00  0.00    -0.170 A  
HETATM    7  C   UNL     1      -8.226   9.436  69.131  1.00  0.00    -0.112 A  
HETATM    8  C   UNL     1      -7.306   9.234  70.167  1.00  0.00    -0.096 A  
HETATM    9  C   UNL     1      -7.732   8.817  71.429  1.00  0.00    -0.114 A  
HETATM   10  C   UNL     1      -9.102   8.714  71.677  1.00  0.00    -0.318 A  
HETATM   11  N   UNL     1      -6.823   8.730  72.489  1.00  0.00    -0.293 NA 
HETATM   12  H2  UNL     1      -6.359   9.634  72.589  1.00  0.00     0.000 HD 
HETATM   13  H1  UNL     1      -7.134   8.425  73.411  1.00  0.00     0.000 HD 
HETATM   14  C   UNL     1     -10.028   8.910  70.650  1.00  0.00    -0.265 A  
ENDBRANCH   4   6
ENDBRANCH   3   4
ENDBRANCH   2   3
TORSDOF 3
ENDMDL
MODEL      181
REMARK 921   NORMALIZED FREE ENERGY PREDICTED BY IDOCK:   -2.14 KCAL/MOL
REMARK 922        TOTAL FREE ENERGY PREDICTED BY IDOCK:   -2.82 KCAL/MOL
REMARK 923 INTER-LIGAND FREE ENERGY PREDICTED BY IDOCK:   -2.82 KCAL/MOL
REMARK 924 INTRA-LIGAND FREE ENERGY PREDICTED BY IDOCK:   -0.00 KCAL/MOL
REMARK 927      BINDING AFFINITY PREDICTED BY RF-SCORE:    0.00 PKD
ROOT
HETATM    1  C   UNL     1     -10.963  13.004  65.032  1.00  0.00    -0.320 C  
HETATM    2  C   UNL     1     -10.139  11.919  65.703  1.00  0.00    -0.243 C  
ENDROOT
BRANCH   2   3
HETATM    3  O   UNL     1     -10.279  12.073  67.119  1.00  0.00    -0.201 OA 
BRANCH   3   4
HETATM    4  C   UNL     1     -10.842  11.027  67.771  1.00  0.00    -0.249 C  
HETATM    5  O   UNL     1     -11.930  11.019  68.323  1.00  0.00    -0.593 OA 
BRANCH   4   6
HETATM    6  C   UNL     1      -9.974   9.830  67.630  1.00  0.00    -0.217 A  
HETATM    7  C   UNL     1     -10.559   8.617  67.248  1.00  0.00    -0.308 A  
HETATM    8  C   UNL     1      -9.760   7.484  67.050  1.00  0.00    -0.257 A  
HETATM    9  C   UNL     1      -8.383   7.536  67.270  1.00  0.00    -0.118 A  
HETATM   10  C   UNL     1      -7.796   8.764  67.580  1.00  0.00    -0.102 A  
HETATM   11  N   UNL     1      -7.577   6.435  66.959  1.00  0.00    -0.094 NA 
HETATM   12  H2  UNL     1      -7.737   6.186  65.982  1.00  0.00     0.000 HD 
HETATM   13  H1  UNL     1      -6.570   6.473  67.119  1.00  0.00     0.000 HD 
HETATM   14  C   UNL     1      -8.584   9.899  67.783  1.00  0.00    -0.121 A  
ENDBRANCH   4   6
ENDBRANCH   3   4
ENDBRANCH   2   3
TORSDOF 3
ENDMDL
MODEL      182
REMARK 921   NORMALIZED FREE ENERGY PREDICTED BY IDOCK:   -2.13 KCAL/MOL
REMARK 922        TOTAL FREE ENERGY PREDICTED BY IDOCK:   -2.81 KCAL/MOL
REMARK 923 INTER-LIGAND FREE ENERGY PREDICTED BY IDOCK:   -2.58 KCAL/MOL
REMARK 924 INTRA-LIGAND FREE ENERGY PREDICTED BY IDOCK:   -0.23 KCAL/MOL
REMARK 927      BINDING AFFINITY PREDICTED BY RF-SCORE:    0.00 PKD
ROOT
HETATM    1  C   UNL     1     -11.024   6.656  66.979  1.00  0.00    -0.463 C  
HETATM    2  C   UNL     1     -10.240   5.415  67.368  1.00  0.00    -0.201 C  
ENDROOT
BRANCH   2   3
HETATM    3  O   UNL     1      -9.075   5.837  68.085  1.00  0.00    -0.111 OA 
BRANCH   3   4
HETATM    4  C   UNL     1      -8.579   4.945  68.976  1.00  0.00    -0.084 C  
HETATM    5  O   UNL     1      -7.593   4.242  68.825  1.00  0.00    -0.059 OA 
BRANCH   4   6
HETATM    6  C   UNL     1      -9.363   5.015  70.236  1.00  0.00    -0.212 A  
HETATM    7  C   UNL     1      -9.646   3.827  70.919  1.00  0.00    -0.256 A  
HETATM    8  C   UNL     1     -10.334   3.865  72.138  1.00  0.00    -0.139 A  
HETATM    9  C   UNL     1     -10.781   5.077  72.667  1.00  0.00    -0.222 A  
HETATM   10  C   UNL     1     -10.434   6.263  72.019  1.00  0.00    -0.239 A  
HETATM   11  N   UNL     1     -11.363   5.120  73.939  1.00  0.00    -0.389 NA 
HETATM   12  H2  UNL     1     -10.713   4.701  74.604  1.00  0.00     0.000 HD 
HETATM   13  H1  UNL     1     -11.691   6.005  74.325  1.00  0.00     0.000 HD 
HETATM   14  C   UNL     1      -9.752   6.236  70.800  1.00  0.00    -0.202 A  
ENDBRANCH   4   6
ENDBRANCH   3   4
ENDBRANCH   2   3
TORSDOF 3
ENDMDL
MODEL      183
REMARK 921   NORMALIZED FREE ENERGY PREDICTED BY IDOCK:   -2.08 KCAL/MOL
REMARK 922        TOTAL FREE ENERGY PREDICTED BY IDOCK:   -2.75 KCAL/MOL
REMARK 923 INTER-LIGAND FREE ENERGY PREDICTED BY IDOCK:   -2.46 KCAL/MOL
REMARK 924 INTRA-LIGAND FREE ENERGY PREDICTED BY IDOCK:   -0.29 KCAL/MOL
REMARK 927      BINDING AFFINITY PREDICTED BY RF-SCORE:    0.00 PKD
ROOT
HETATM    1  C   UNL     1     -10.622   5.342  66.452  1.00  0.00    -0.338 C  
HETATM    2  C   UNL     1      -9.231   5.192  67.043  1.00  0.00    -0.117 C  
ENDROOT
BRANCH   2   3
HETATM    3  O   UNL     1      -8.557   6.448  66.906  1.00  0.00    -0.109 OA 
BRANCH   3   4
HETATM    4  C   UNL     1      -8.886   7.394  67.819  1.00  0.00    -0.128 C  
HETATM    5  O   UNL     1      -8.959   7.240  69.027  1.00  0.00    -0.135 OA 
BRANCH   4   6
HETATM    6  C   UNL     1      -9.051   8.704  67.137  1.00  0.00    -0.156 A  
HETATM    7  C   UNL     1      -8.247   8.989  66.027  1.00  0.00    -0.113 A  
HETATM    8  C   UNL     1      -8.418  10.190  65.328  1.00  0.00    -0.165 A  
HETATM    9  C   UNL     1      -9.356  11.133  65.749  1.00  0.00    -0.214 A  
HETATM   10  C   UNL     1     -10.204  10.813  66.811  1.00  0.00    -0.279 A  
HETATM   11  N   UNL     1      -9.602  12.276  64.980  1.00  0.00    -0.457 NA 
HETATM   12  H2  UNL     1      -9.846  11.981  64.034  1.00  0.00     0.000 HD 
HETATM   13  H1  UNL     1     -10.288  12.966  65.288  1.00  0.00     0.000 HD 
HETATM   14  C   UNL     1     -10.040   9.619  67.517  1.00  0.00    -0.247 A  
ENDBRANCH   4   6
ENDBRANCH   3   4
ENDBRANCH   2   3
TORSDOF 3
ENDMDL
MODEL      184
REMARK 921   NORMALIZED FREE ENERGY PREDICTED BY IDOCK:   -2.07 KCAL/MOL
REMARK 922        TOTAL FREE ENERGY PREDICTED BY IDOCK:   -2.74 KCAL/MOL
REMARK 923 INTER-LIGAND FREE ENERGY PREDICTED BY IDOCK:   -2.43 KCAL/MOL
REMARK 924 INTRA-LIGAND FREE ENERGY PREDICTED BY IDOCK:   -0.31 KCAL/MOL
REMARK 927      BINDING AFFINITY PREDICTED BY RF-SCORE:    0.00 PKD
ROOT
HETATM    1  C   UNL     1     -10.741   6.173  66.834  1.00  0.00    -0.413 C  
HETATM    2  C   UNL     1      -9.387   6.781  66.512  1.00  0.00    -0.161 C  
ENDROOT
BRANCH   2   3
HETATM    3  O   UNL     1      -9.281   8.020  67.221  1.00  0.00    -0.134 OA 
BRANCH   3   4
HETATM    4  C   UNL     1      -8.577   7.975  68.379  1.00  0.00    -0.127 C  
HETATM    5  O   UNL     1      -7.380   7.766  68.491  1.00  0.00    -0.086 OA 
BRANCH   4   6
HETATM    6  C   UNL     1      -9.469   8.326  69.514  1.00  0.00    -0.162 A  
HETATM    7  C   UNL     1     -10.548   9.186  69.279  1.00  0.00    -0.229 A  
HETATM    8  C   UNL     1     -11.440   9.490  70.315  1.00  0.00    -0.256 A  
HETATM    9  C   UNL     1     -11.244   8.979  71.598  1.00  0.00    -0.361 A  
HETATM   10  C   UNL     1     -10.209   8.066  71.809  1.00  0.00    -0.260 A  
HETATM   11  N   UNL     1     -12.200   9.192  72.597  1.00  0.00    -0.078 NA 
HETATM   12  H2  UNL     1     -13.103   8.860  72.254  1.00  0.00     0.000 HD 
HETATM   13  H1  UNL     1     -12.057   8.819  73.535  1.00  0.00     0.000 HD 
HETATM   14  C   UNL     1      -9.311   7.758  70.784  1.00  0.00    -0.162 A  
ENDBRANCH   4   6
ENDBRANCH   3   4
ENDBRANCH   2   3
TORSDOF 3
ENDMDL
MODEL      185
REMARK 921   NORMALIZED FREE ENERGY PREDICTED BY IDOCK:   -2.04 KCAL/MOL
REMARK 922        TOTAL FREE ENERGY PREDICTED BY IDOCK:   -2.70 KCAL/MOL
REMARK 923 INTER-LIGAND FREE ENERGY PREDICTED BY IDOCK:   -2.55 KCAL/MOL
REMARK 924 INTRA-LIGAND FREE ENERGY PREDICTED BY IDOCK:   -0.15 KCAL/MOL
REMARK 927      BINDING AFFINITY PREDICTED BY RF-SCORE:    0.00 PKD
ROOT
HETATM    1  C   UNL     1      -9.327   3.386  64.700  1.00  0.00    -0.146 C  
HETATM    2  C   UNL     1     -10.136   4.354  65.545  1.00  0.00    -0.236 C  
ENDROOT
BRANCH   2   3
HETATM    3  O   UNL     1      -9.381   4.647  66.725  1.00  0.00    -0.129 OA 
BRANCH   3   4
HETATM    4  C   UNL     1      -9.148   5.961  66.962  1.00  0.00    -0.116 C  
HETATM    5  O   UNL     1      -8.677   6.766  66.176  1.00  0.00    -0.140 OA 
BRANCH   4   6
HETATM    6  C   UNL     1      -9.652   6.317  68.313  1.00  0.00    -0.119 A  
HETATM    7  C   UNL     1     -11.014   6.150  68.588  1.00  0.00    -0.415 A  
HETATM    8  C   UNL     1     -11.510   6.421  69.868  1.00  0.00    -0.483 A  
HETATM    9  C   UNL     1     -10.668   6.900  70.873  1.00  0.00    -0.230 A  
HETATM   10  C   UNL     1      -9.299   6.996  70.615  1.00  0.00    -0.162 A  
HETATM   11  N   UNL     1     -11.145   7.058  72.179  1.00  0.00    -0.237 NA 
HETATM   12  H2  UNL     1     -11.538   6.168  72.487  1.00  0.00     0.000 HD 
HETATM   13  H1  UNL     1     -10.529   7.408  72.913  1.00  0.00     0.000 HD 
HETATM   14  C   UNL     1      -8.795   6.731  69.340  1.00  0.00    -0.135 A  
ENDBRANCH   4   6
ENDBRANCH   3   4
ENDBRANCH   2   3
TORSDOF 3
ENDMDL
MODEL      186
REMARK 921   NORMALIZED FREE ENERGY PREDICTED BY IDOCK:   -2.02 KCAL/MOL
REMARK 922        TOTAL FREE ENERGY PREDICTED BY IDOCK:   -2.68 KCAL/MOL
REMARK 923 INTER-LIGAND FREE ENERGY PREDICTED BY IDOCK:   -2.51 KCAL/MOL
REMARK 924 INTRA-LIGAND FREE ENERGY PREDICTED BY IDOCK:   -0.18 KCAL/MOL
REMARK 927      BINDING AFFINITY PREDICTED BY RF-SCORE:    0.00 PKD
ROOT
HETATM    1  C   UNL     1      -7.093   9.489  67.961  1.00  0.00    -0.080 C  
HETATM    2  C   UNL     1      -7.752   9.296  66.607  1.00  0.00    -0.093 C  
ENDROOT
BRANCH   2   3
HETATM    3  O   UNL     1      -8.447  10.505  66.279  1.00  0.00    -0.139 OA 
BRANCH   3   4
HETATM    4  C   UNL     1      -9.707  10.347  65.806  1.00  0.00    -0.228 C  
HETATM    5  O   UNL     1     -10.321   9.297  65.715  1.00  0.00    -0.078 OA 
BRANCH   4   6
HETATM    6  C   UNL     1     -10.290  11.679  65.500  1.00  0.00    -0.309 A  
HETATM    7  C   UNL     1      -9.426  12.735  65.187  1.00  0.00     0.267 A  
HETATM    8  C   UNL     1      -9.946  13.987  64.838  1.00  0.00    -0.161 A  
HETATM    9  C   UNL     1     -11.324  14.212  64.837  1.00  0.00    -0.365 A  
HETATM   10  C   UNL     1     -12.182  13.138  65.079  1.00  0.00    -0.488 A  
HETATM   11  N   UNL     1     -11.840  15.428  64.376  1.00  0.00    -0.604 NA 
HETATM   12  H2  UNL     1     -11.489  15.589  63.432  1.00  0.00     0.000 HD 
HETATM   13  H1  UNL     1     -12.847  15.593  64.376  1.00  0.00     0.000 HD 
HETATM   14  C   UNL     1     -11.673  11.886  65.432  1.00  0.00    -0.228 A  
ENDBRANCH   4   6
ENDBRANCH   3   4
ENDBRANCH   2   3
TORSDOF 3
ENDMDL
MODEL      187
REMARK 921   NORMALIZED FREE ENERGY PREDICTED BY IDOCK:   -1.98 KCAL/MOL
REMARK 922        TOTAL FREE ENERGY PREDICTED BY IDOCK:   -2.63 KCAL/MOL
REMARK 923 INTER-LIGAND FREE ENERGY PREDICTED BY IDOCK:   -2.34 KCAL/MOL
REMARK 924 INTRA-LIGAND FREE ENERGY PREDICTED BY IDOCK:   -0.29 KCAL/MOL
REMARK 927      BINDING AFFINITY PREDICTED BY RF-SCORE:    0.00 PKD
ROOT
HETATM    1  C   UNL     1     -11.276   6.902  70.026  1.00  0.00    -0.347 C  
HETATM    2  C   UNL     1     -11.219   7.723  71.302  1.00  0.00    -0.255 C  
ENDROOT
BRANCH   2   3
HETATM    3  O   UNL     1     -10.182   8.698  71.153  1.00  0.00    -0.200 OA 
BRANCH   3   4
HETATM    4  C   UNL     1     -10.482   9.757  70.363  1.00  0.00    -0.297 C  
HETATM    5  O   UNL     1     -11.429  10.515  70.495  1.00  0.00    -0.313 OA 
BRANCH   4   6
HETATM    6  C   UNL     1      -9.413   9.933  69.346  1.00  0.00    -0.226 A  
HETATM    7  C   UNL     1      -8.083   9.722  69.726  1.00  0.00    -0.174 A  
HETATM    8  C   UNL     1      -7.058   9.823  68.777  1.00  0.00    -0.067 A  
HETATM    9  C   UNL     1      -7.340  10.177  67.457  1.00  0.00    -0.089 A  
HETATM   10  C   UNL     1      -8.673  10.316  67.068  1.00  0.00    -0.133 A  
HETATM   11  N   UNL     1      -6.328  10.163  66.491  1.00  0.00    -0.070 NA 
HETATM   12  H2  UNL     1      -5.897   9.238  66.490  1.00  0.00     0.000 HD 
HETATM   13  H1  UNL     1      -6.534  10.421  65.526  1.00  0.00     0.000 HD 
HETATM   14  C   UNL     1      -9.703  10.220  68.007  1.00  0.00    -0.167 A  
ENDBRANCH   4   6
ENDBRANCH   3   4
ENDBRANCH   2   3
TORSDOF 3
ENDMDL
MODEL      188
REMARK 921   NORMALIZED FREE ENERGY PREDICTED BY IDOCK:   -1.94 KCAL/MOL
REMARK 922        TOTAL FREE ENERGY PREDICTED BY IDOCK:   -2.59 KCAL/MOL
REMARK 923 INTER-LIGAND FREE ENERGY PREDICTED BY IDOCK:   -2.41 KCAL/MOL
REMARK 924 INTRA-LIGAND FREE ENERGY PREDICTED BY IDOCK:   -0.19 KCAL/MOL
REMARK 927      BINDING AFFINITY PREDICTED BY RF-SCORE:    0.00 PKD
ROOT
HETATM    1  C   UNL     1      -8.618   7.904  66.388  1.00  0.00    -0.156 C  
HETATM    2  C   UNL     1      -9.116   7.634  67.797  1.00  0.00    -0.130 C  
ENDROOT
BRANCH   2   3
HETATM    3  O   UNL     1      -9.948   8.731  68.188  1.00  0.00    -0.160 OA 
BRANCH   3   4
HETATM    4  C   UNL     1      -9.534   9.423  69.277  1.00  0.00    -0.164 C  
HETATM    5  O   UNL     1      -8.557   9.174  69.964  1.00  0.00    -0.133 OA 
BRANCH   4   6
HETATM    6  C   UNL     1     -10.400  10.616  69.464  1.00  0.00    -0.214 A  
HETATM    7  C   UNL     1     -10.432  11.587  68.456  1.00  0.00    -0.228 A  
HETATM    8  C   UNL     1     -11.280  12.694  68.576  1.00  0.00    -0.315 A  
HETATM    9  C   UNL     1     -12.070  12.867  69.713  1.00  0.00    -0.245 A  
HETATM   10  C   UNL     1     -12.088  11.861  70.680  1.00  0.00    -0.389 A  
HETATM   11  N   UNL     1     -13.000  13.912  69.775  1.00  0.00    -0.085 NA 
HETATM   12  H2  UNL     1     -13.615  13.842  68.964  1.00  0.00     0.000 HD 
HETATM   13  H1  UNL     1     -13.577  14.039  70.606  1.00  0.00     0.000 HD 
HETATM   14  C   UNL     1     -11.243  10.754  70.572  1.00  0.00    -0.188 A  
ENDBRANCH   4   6
ENDBRANCH   3   4
ENDBRANCH   2   3
TORSDOF 3
ENDMDL
MODEL      189
REMARK 921   NORMALIZED FREE ENERGY PREDICTED BY IDOCK:   -1.93 KCAL/MOL
REMARK 922        TOTAL FREE ENERGY PREDICTED BY IDOCK:   -2.58 KCAL/MOL
REMARK 923 INTER-LIGAND FREE ENERGY PREDICTED BY IDOCK:   -2.92 KCAL/MOL
REMARK 924 INTRA-LIGAND FREE ENERGY PREDICTED BY IDOCK:    0.34 KCAL/MOL
REMARK 927      BINDING AFFINITY PREDICTED BY RF-SCORE:    0.00 PKD
ROOT
HETATM    1  C   UNL     1      -7.070   4.738  72.410  1.00  0.00    -0.079 C  
HETATM    2  C   UNL     1      -7.790   4.596  71.080  1.00  0.00    -0.082 C  
ENDROOT
BRANCH   2   3
HETATM    3  O   UNL     1      -8.063   5.910  70.584  1.00  0.00    -0.113 OA 
BRANCH   3   4
HETATM    4  C   UNL     1      -8.416   6.828  71.517  1.00  0.00    -0.119 C  
HETATM    5  O   UNL     1      -7.656   7.506  72.190  1.00  0.00    -0.077 OA 
BRANCH   4   6
HETATM    6  C   UNL     1      -9.894   6.973  71.536  1.00  0.00    -0.176 A  
HETATM    7  C   UNL     1     -10.478   7.780  72.518  1.00  0.00    -0.343 A  
HETATM    8  C   UNL     1     -11.864   7.983  72.527  1.00  0.00    -0.419 A  
HETATM    9  C   UNL     1     -12.683   7.352  71.589  1.00  0.00    -0.365 A  
HETATM   10  C   UNL     1     -12.089   6.607  70.570  1.00  0.00    -0.302 A  
HETATM   11  N   UNL     1     -14.049   7.650  71.532  1.00  0.00    -0.528 NA 
HETATM   12  H2  UNL     1     -14.154   8.659  71.422  1.00  0.00     0.000 HD 
HETATM   13  H1  UNL     1     -14.647   7.189  70.847  1.00  0.00     0.000 HD 
HETATM   14  C   UNL     1     -10.708   6.396  70.553  1.00  0.00    -0.311 A  
ENDBRANCH   4   6
ENDBRANCH   3   4
ENDBRANCH   2   3
TORSDOF 3
ENDMDL
MODEL      190
REMARK 921   NORMALIZED FREE ENERGY PREDICTED BY IDOCK:   -1.91 KCAL/MOL
REMARK 922        TOTAL FREE ENERGY PREDICTED BY IDOCK:   -2.55 KCAL/MOL
REMARK 923 INTER-LIGAND FREE ENERGY PREDICTED BY IDOCK:   -2.30 KCAL/MOL
REMARK 924 INTRA-LIGAND FREE ENERGY PREDICTED BY IDOCK:   -0.26 KCAL/MOL
REMARK 927      BINDING AFFINITY PREDICTED BY RF-SCORE:    0.00 PKD
ROOT
HETATM    1  C   UNL     1     -12.957   9.117  70.675  1.00  0.00     0.277 C  
HETATM    2  C   UNL     1     -11.511   8.898  71.087  1.00  0.00    -0.301 C  
ENDROOT
BRANCH   2   3
HETATM    3  O   UNL     1     -10.723   9.938  70.496  1.00  0.00    -0.288 OA 
BRANCH   3   4
HETATM    4  C   UNL     1      -9.478   9.578  70.101  1.00  0.00    -0.246 C  
HETATM    5  O   UNL     1      -8.546   9.276  70.829  1.00  0.00    -0.204 OA 
BRANCH   4   6
HETATM    6  C   UNL     1      -9.431   9.503  68.618  1.00  0.00    -0.143 A  
HETATM    7  C   UNL     1     -10.223  10.387  67.876  1.00  0.00    -0.211 A  
HETATM    8  C   UNL     1     -10.158  10.380  66.477  1.00  0.00    -0.285 A  
HETATM    9  C   UNL     1      -9.341   9.470  65.805  1.00  0.00    -0.233 A  
HETATM   10  C   UNL     1      -8.501   8.642  66.551  1.00  0.00    -0.118 A  
HETATM   11  N   UNL     1      -9.193   9.546  64.416  1.00  0.00    -0.409 NA 
HETATM   12  H2  UNL     1      -8.887  10.490  64.176  1.00  0.00     0.000 HD 
HETATM   13  H1  UNL     1      -8.596   8.881  63.924  1.00  0.00     0.000 HD 
HETATM   14  C   UNL     1      -8.560   8.638  67.946  1.00  0.00    -0.137 A  
ENDBRANCH   4   6
ENDBRANCH   3   4
ENDBRANCH   2   3
TORSDOF 3
ENDMDL
MODEL      191
REMARK 921   NORMALIZED FREE ENERGY PREDICTED BY IDOCK:   -1.90 KCAL/MOL
REMARK 922        TOTAL FREE ENERGY PREDICTED BY IDOCK:   -2.54 KCAL/MOL
REMARK 923 INTER-LIGAND FREE ENERGY PREDICTED BY IDOCK:   -3.25 KCAL/MOL
REMARK 924 INTRA-LIGAND FREE ENERGY PREDICTED BY IDOCK:    0.70 KCAL/MOL
REMARK 927      BINDING AFFINITY PREDICTED BY RF-SCORE:    0.00 PKD
ROOT
HETATM    1  C   UNL     1      -7.679  11.508  68.025  1.00  0.00    -0.119 C  
HETATM    2  C   UNL     1      -8.420  12.829  68.135  1.00  0.00    -0.177 C  
ENDROOT
BRANCH   2   3
HETATM    3  O   UNL     1      -7.732  13.789  67.326  1.00  0.00    -0.157 OA 
BRANCH   3   4
HETATM    4  C   UNL     1      -8.357  14.981  67.169  1.00  0.00    -0.217 C  
HETATM    5  O   UNL     1      -8.057  15.857  66.374  1.00  0.00    -0.265 OA 
BRANCH   4   6
HETATM    6  C   UNL     1      -9.551  15.034  68.051  1.00  0.00    -0.208 A  
HETATM    7  C   UNL     1     -10.771  14.554  67.559  1.00  0.00    -0.276 A  
HETATM    8  C   UNL     1     -11.902  14.536  68.385  1.00  0.00    -0.351 A  
HETATM    9  C   UNL     1     -11.841  15.033  69.688  1.00  0.00    -0.324 A  
HETATM   10  C   UNL     1     -10.607  15.442  70.196  1.00  0.00    -0.314 A  
HETATM   11  N   UNL     1     -12.941  14.905  70.544  1.00  0.00    -0.562 NA 
HETATM   12  H2  UNL     1     -13.201  13.920  70.588  1.00  0.00     0.000 HD 
HETATM   13  H1  UNL     1     -12.897  15.268  71.496  1.00  0.00     0.000 HD 
HETATM   14  C   UNL     1      -9.474  15.467  69.380  1.00  0.00    -0.278 A  
ENDBRANCH   4   6
ENDBRANCH   3   4
ENDBRANCH   2   3
TORSDOF 3
ENDMDL
MODEL      192
REMARK 921   NORMALIZED FREE ENERGY PREDICTED BY IDOCK:   -1.88 KCAL/MOL
REMARK 922        TOTAL FREE ENERGY PREDICTED BY IDOCK:   -2.52 KCAL/MOL
REMARK 923 INTER-LIGAND FREE ENERGY PREDICTED BY IDOCK:   -2.33 KCAL/MOL
REMARK 924 INTRA-LIGAND FREE ENERGY PREDICTED BY IDOCK:   -0.19 KCAL/MOL
REMARK 927      BINDING AFFINITY PREDICTED BY RF-SCORE:    0.00 PKD
ROOT
HETATM    1  C   UNL     1      -8.512   5.540  63.022  1.00  0.00    -0.049 C  
HETATM    2  C   UNL     1      -7.622   6.688  63.464  1.00  0.00    -0.100 C  
ENDROOT
BRANCH   2   3
HETATM    3  O   UNL     1      -8.458   7.822  63.717  1.00  0.00     0.053 OA 
BRANCH   3   4
HETATM    4  C   UNL     1      -7.876   8.843  64.392  1.00  0.00    -0.128 C  
HETATM    5  O   UNL     1      -6.802   9.362  64.135  1.00  0.00    -0.090 OA 
BRANCH   4   6
HETATM    6  C   UNL     1      -8.797   9.323  65.454  1.00  0.00    -0.230 A  
HETATM    7  C   UNL     1      -8.841  10.692  65.738  1.00  0.00    -0.198 A  
HETATM    8  C   UNL     1      -9.739  11.183  66.693  1.00  0.00    -0.224 A  
HETATM    9  C   UNL     1     -10.570  10.315  67.402  1.00  0.00    -0.270 A  
HETATM   10  C   UNL     1     -10.574   8.960  67.065  1.00  0.00    -0.279 A  
HETATM   11  N   UNL     1     -11.546  10.821  68.269  1.00  0.00    -0.593 NA 
HETATM   12  H2  UNL     1     -12.133  11.472  67.746  1.00  0.00     0.000 HD 
HETATM   13  H1  UNL     1     -12.153  10.187  68.788  1.00  0.00     0.000 HD 
HETATM   14  C   UNL     1      -9.679   8.460  66.116  1.00  0.00    -0.223 A  
ENDBRANCH   4   6
ENDBRANCH   3   4
ENDBRANCH   2   3
TORSDOF 3
ENDMDL
MODEL      193
REMARK 921   NORMALIZED FREE ENERGY PREDICTED BY IDOCK:   -1.87 KCAL/MOL
REMARK 922        TOTAL FREE ENERGY PREDICTED BY IDOCK:   -2.51 KCAL/MOL
REMARK 923 INTER-LIGAND FREE ENERGY PREDICTED BY IDOCK:   -3.23 KCAL/MOL
REMARK 924 INTRA-LIGAND FREE ENERGY PREDICTED BY IDOCK:    0.72 KCAL/MOL
REMARK 927      BINDING AFFINITY PREDICTED BY RF-SCORE:    0.00 PKD
ROOT
HETATM    1  C   UNL     1      -9.402   7.350  66.915  1.00  0.00    -0.195 C  
HETATM    2  C   UNL     1     -10.625   6.488  67.173  1.00  0.00    -0.328 C  
ENDROOT
BRANCH   2   3
HETATM    3  O   UNL     1     -11.076   6.750  68.506  1.00  0.00    -0.213 OA 
BRANCH   3   4
HETATM    4  C   UNL     1     -10.253   7.517  69.264  1.00  0.00    -0.201 C  
HETATM    5  O   UNL     1      -9.062   7.333  69.453  1.00  0.00    -0.143 OA 
BRANCH   4   6
HETATM    6  C   UNL     1     -11.000   8.701  69.761  1.00  0.00    -0.132 A  
HETATM    7  C   UNL     1     -11.404   8.727  71.101  1.00  0.00    -0.345 A  
HETATM    8  C   UNL     1     -12.059   9.852  71.615  1.00  0.00    -0.457 A  
HETATM    9  C   UNL     1     -12.355  10.941  70.794  1.00  0.00    -0.390 A  
HETATM   10  C   UNL     1     -11.888  10.941  69.479  1.00  0.00    -0.404 A  
HETATM   11  N   UNL     1     -12.904  12.108  71.340  1.00  0.00    -0.342 NA 
HETATM   12  H2  UNL     1     -12.293  12.429  72.091  1.00  0.00     0.000 HD 
HETATM   13  H1  UNL     1     -13.121  12.903  70.740  1.00  0.00     0.000 HD 
HETATM   14  C   UNL     1     -11.236   9.821  68.956  1.00  0.00    -0.080 A  
ENDBRANCH   4   6
ENDBRANCH   3   4
ENDBRANCH   2   3
TORSDOF 3
ENDMDL
MODEL      194
REMARK 921   NORMALIZED FREE ENERGY PREDICTED BY IDOCK:   -1.85 KCAL/MOL
REMARK 922        TOTAL FREE ENERGY PREDICTED BY IDOCK:   -2.49 KCAL/MOL
REMARK 923 INTER-LIGAND FREE ENERGY PREDICTED BY IDOCK:   -2.38 KCAL/MOL
REMARK 924 INTRA-LIGAND FREE ENERGY PREDICTED BY IDOCK:   -0.11 KCAL/MOL
REMARK 927      BINDING AFFINITY PREDICTED BY RF-SCORE:    0.00 PKD
ROOT
HETATM    1  C   UNL     1      -5.947   4.611  69.605  1.00  0.00    -0.018 C  
HETATM    2  C   UNL     1      -6.456   6.040  69.526  1.00  0.00    -0.042 C  
ENDROOT
BRANCH   2   3
HETATM    3  O   UNL     1      -7.887   5.999  69.532  1.00  0.00    -0.095 OA 
BRANCH   3   4
HETATM    4  C   UNL     1      -8.477   6.252  70.726  1.00  0.00    -0.135 C  
HETATM    5  O   UNL     1      -8.311   5.629  71.762  1.00  0.00    -0.118 OA 
BRANCH   4   6
HETATM    6  C   UNL     1      -9.296   7.487  70.621  1.00  0.00    -0.163 A  
HETATM    7  C   UNL     1     -10.066   7.877  71.722  1.00  0.00    -0.236 A  
HETATM    8  C   UNL     1     -10.805   9.066  71.675  1.00  0.00    -0.437 A  
HETATM    9  C   UNL     1     -10.817   9.853  70.523  1.00  0.00    -0.326 A  
HETATM   10  C   UNL     1      -9.991   9.497  69.455  1.00  0.00    -0.205 A  
HETATM   11  N   UNL     1     -11.461  11.095  70.523  1.00  0.00    -0.448 NA 
HETATM   12  H2  UNL     1     -11.082  11.654  71.288  1.00  0.00     0.000 HD 
HETATM   13  H1  UNL     1     -11.471  11.670  69.680  1.00  0.00     0.000 HD 
HETATM   14  C   UNL     1      -9.254   8.311  69.490  1.00  0.00    -0.158 A  
ENDBRANCH   4   6
ENDBRANCH   3   4
ENDBRANCH   2   3
TORSDOF 3
ENDMDL
MODEL      195
REMARK 921   NORMALIZED FREE ENERGY PREDICTED BY IDOCK:   -1.84 KCAL/MOL
REMARK 922        TOTAL FREE ENERGY PREDICTED BY IDOCK:   -2.47 KCAL/MOL
REMARK 923 INTER-LIGAND FREE ENERGY PREDICTED BY IDOCK:   -2.27 KCAL/MOL
REMARK 924 INTRA-LIGAND FREE ENERGY PREDICTED BY IDOCK:   -0.20 KCAL/MOL
REMARK 927      BINDING AFFINITY PREDICTED BY RF-SCORE:    0.00 PKD
ROOT
HETATM    1  C   UNL     1     -12.802   9.009  72.330  1.00  0.00    -0.454 C  
HETATM    2  C   UNL     1     -12.116   7.705  71.963  1.00  0.00    -0.299 C  
ENDROOT
BRANCH   2   3
HETATM    3  O   UNL     1     -11.178   7.980  70.918  1.00  0.00    -0.258 OA 
BRANCH   3   4
HETATM    4  C   UNL     1      -9.882   8.080  71.303  1.00  0.00    -0.163 C  
HETATM    5  O   UNL     1      -9.413   7.715  72.369  1.00  0.00    -0.149 OA 
BRANCH   4   6
HETATM    6  C   UNL     1      -9.072   8.617  70.180  1.00  0.00    -0.163 A  
HETATM    7  C   UNL     1      -8.254   7.738  69.461  1.00  0.00    -0.128 A  
HETATM    8  C   UNL     1      -7.522   8.201  68.361  1.00  0.00    -0.100 A  
HETATM    9  C   UNL     1      -7.564   9.546  67.992  1.00  0.00    -0.086 A  
HETATM   10  C   UNL     1      -8.436  10.403  68.667  1.00  0.00    -0.129 A  
HETATM   11  N   UNL     1      -6.924   9.979  66.825  1.00  0.00    -0.088 NA 
HETATM   12  H2  UNL     1      -7.270   9.421  66.044  1.00  0.00     0.000 HD 
HETATM   13  H1  UNL     1      -6.955  10.962  66.556  1.00  0.00     0.000 HD 
HETATM   14  C   UNL     1      -9.168   9.951  69.768  1.00  0.00    -0.252 A  
ENDBRANCH   4   6
ENDBRANCH   3   4
ENDBRANCH   2   3
TORSDOF 3
ENDMDL
MODEL      196
REMARK 921   NORMALIZED FREE ENERGY PREDICTED BY IDOCK:   -1.83 KCAL/MOL
REMARK 922        TOTAL FREE ENERGY PREDICTED BY IDOCK:   -2.46 KCAL/MOL
REMARK 923 INTER-LIGAND FREE ENERGY PREDICTED BY IDOCK:   -2.29 KCAL/MOL
REMARK 924 INTRA-LIGAND FREE ENERGY PREDICTED BY IDOCK:   -0.17 KCAL/MOL
REMARK 927      BINDING AFFINITY PREDICTED BY RF-SCORE:    0.00 PKD
ROOT
HETATM    1  C   UNL     1      -7.483   3.765  67.474  1.00  0.00    -0.067 C  
HETATM    2  C   UNL     1      -7.017   5.185  67.206  1.00  0.00    -0.065 C  
ENDROOT
BRANCH   2   3
HETATM    3  O   UNL     1      -8.091   6.071  67.540  1.00  0.00    -0.102 OA 
BRANCH   3   4
HETATM    4  C   UNL     1      -7.763   7.119  68.335  1.00  0.00    -0.120 C  
HETATM    5  O   UNL     1      -6.773   7.208  69.043  1.00  0.00    -0.052 OA 
BRANCH   4   6
HETATM    6  C   UNL     1      -8.750   8.213  68.144  1.00  0.00    -0.136 A  
HETATM    7  C   UNL     1      -9.181   8.510  66.847  1.00  0.00    -0.197 A  
HETATM    8  C   UNL     1     -10.153   9.496  66.639  1.00  0.00    -0.321 A  
HETATM    9  C   UNL     1     -10.671  10.223  67.711  1.00  0.00    -0.275 A  
HETATM   10  C   UNL     1     -10.291   9.874  69.008  1.00  0.00    -0.224 A  
HETATM   11  N   UNL     1     -11.724  11.124  67.511  1.00  0.00    -0.578 NA 
HETATM   12  H2  UNL     1     -12.492  10.626  67.060  1.00  0.00     0.000 HD 
HETATM   13  H1  UNL     1     -12.102  11.656  68.294  1.00  0.00     0.000 HD 
HETATM   14  C   UNL     1      -9.320   8.894  69.226  1.00  0.00    -0.149 A  
ENDBRANCH   4   6
ENDBRANCH   3   4
ENDBRANCH   2   3
TORSDOF 3
ENDMDL
MODEL      197
REMARK 921   NORMALIZED FREE ENERGY PREDICTED BY IDOCK:   -1.81 KCAL/MOL
REMARK 922        TOTAL FREE ENERGY PREDICTED BY IDOCK:   -2.44 KCAL/MOL
REMARK 923 INTER-LIGAND FREE ENERGY PREDICTED BY IDOCK:   -2.24 KCAL/MOL
REMARK 924 INTRA-LIGAND FREE ENERGY PREDICTED BY IDOCK:   -0.20 KCAL/MOL
REMARK 927      BINDING AFFINITY PREDICTED BY RF-SCORE:    0.00 PKD
ROOT
HETATM    1  C   UNL     1      -6.530   9.959  66.585  1.00  0.00    -0.071 C  
HETATM    2  C   UNL     1      -7.936  10.464  66.313  1.00  0.00    -0.138 C  
ENDROOT
BRANCH   2   3
HETATM    3  O   UNL     1      -8.016  11.816  66.777  1.00  0.00    -0.161 OA 
BRANCH   3   4
HETATM    4  C   UNL     1      -9.015  12.078  67.655  1.00  0.00    -0.172 C  
HETATM    5  O   UNL     1      -9.732  11.257  68.203  1.00  0.00    -0.172 OA 
BRANCH   4   6
HETATM    6  C   UNL     1      -9.051  13.535  67.942  1.00  0.00    -0.204 A  
HETATM    7  C   UNL     1      -8.073  14.357  67.371  1.00  0.00    -0.217 A  
HETATM    8  C   UNL     1      -8.114  15.742  67.575  1.00  0.00    -0.179 A  
HETATM    9  C   UNL     1      -9.098  16.315  68.381  1.00  0.00    -0.203 A  
HETATM   10  C   UNL     1     -10.112  15.500  68.888  1.00  0.00    -0.214 A  
HETATM   11  N   UNL     1      -9.202  17.706  68.487  1.00  0.00    -0.279 NA 
HETATM   12  H2  UNL     1      -9.291  18.094  67.547  1.00  0.00     0.000 HD 
HETATM   13  H1  UNL     1      -9.922  18.125  69.076  1.00  0.00     0.000 HD 
HETATM   14  C   UNL     1     -10.079  14.118  68.693  1.00  0.00    -0.229 A  
ENDBRANCH   4   6
ENDBRANCH   3   4
ENDBRANCH   2   3
TORSDOF 3
ENDMDL
MODEL      198
REMARK 921   NORMALIZED FREE ENERGY PREDICTED BY IDOCK:   -1.80 KCAL/MOL
REMARK 922        TOTAL FREE ENERGY PREDICTED BY IDOCK:   -2.42 KCAL/MOL
REMARK 923 INTER-LIGAND FREE ENERGY PREDICTED BY IDOCK:   -2.25 KCAL/MOL
REMARK 924 INTRA-LIGAND FREE ENERGY PREDICTED BY IDOCK:   -0.17 KCAL/MOL
REMARK 927      BINDING AFFINITY PREDICTED BY RF-SCORE:    0.00 PKD
ROOT
HETATM    1  C   UNL     1     -10.414   6.809  73.748  1.00  0.00    -0.383 C  
HETATM    2  C   UNL     1     -10.355   5.611  72.818  1.00  0.00    -0.193 C  
ENDROOT
BRANCH   2   3
HETATM    3  O   UNL     1      -9.731   6.029  71.599  1.00  0.00    -0.159 OA 
BRANCH   3   4
HETATM    4  C   UNL     1     -10.524   6.021  70.500  1.00  0.00    -0.242 C  
HETATM    5  O   UNL     1     -11.716   6.274  70.465  1.00  0.00    -0.354 OA 
BRANCH   4   6
HETATM    6  C   UNL     1      -9.696   5.753  69.295  1.00  0.00    -0.188 A  
HETATM    7  C   UNL     1      -8.624   6.607  69.014  1.00  0.00    -0.130 A  
HETATM    8  C   UNL     1      -7.790   6.348  67.919  1.00  0.00    -0.104 A  
HETATM    9  C   UNL     1      -8.039   5.267  67.073  1.00  0.00    -0.104 A  
HETATM   10  C   UNL     1      -9.065   4.378  67.399  1.00  0.00    -0.148 A  
HETATM   11  N   UNL     1      -7.138   4.946  66.052  1.00  0.00    -0.070 NA 
HETATM   12  H2  UNL     1      -6.213   4.823  66.466  1.00  0.00     0.000 HD 
HETATM   13  H1  UNL     1      -7.320   4.156  65.433  1.00  0.00     0.000 HD 
HETATM   14  C   UNL     1      -9.905   4.629  68.487  1.00  0.00    -0.181 A  
ENDBRANCH   4   6
ENDBRANCH   3   4
ENDBRANCH   2   3
TORSDOF 3
ENDMDL
MODEL      199
REMARK 921   NORMALIZED FREE ENERGY PREDICTED BY IDOCK:   -1.75 KCAL/MOL
REMARK 922        TOTAL FREE ENERGY PREDICTED BY IDOCK:   -2.37 KCAL/MOL
REMARK 923 INTER-LIGAND FREE ENERGY PREDICTED BY IDOCK:   -2.26 KCAL/MOL
REMARK 924 INTRA-LIGAND FREE ENERGY PREDICTED BY IDOCK:   -0.10 KCAL/MOL
REMARK 927      BINDING AFFINITY PREDICTED BY RF-SCORE:    0.00 PKD
ROOT
HETATM    1  C   UNL     1      -9.353   6.651  70.318  1.00  0.00    -0.160 C  
HETATM    2  C   UNL     1      -8.633   6.876  69.000  1.00  0.00    -0.128 C  
ENDROOT
BRANCH   2   3
HETATM    3  O   UNL     1      -8.892   8.220  68.580  1.00  0.00    -0.136 OA 
BRANCH   3   4
HETATM    4  C   UNL     1      -9.809   8.360  67.592  1.00  0.00    -0.173 C  
HETATM    5  O   UNL     1     -10.985   8.043  67.646  1.00  0.00    -0.094 OA 
BRANCH   4   6
HETATM    6  C   UNL     1      -9.190   9.065  66.440  1.00  0.00    -0.239 A  
HETATM    7  C   UNL     1      -7.907   8.687  66.031  1.00  0.00    -0.102 A  
HETATM    8  C   UNL     1      -7.320   9.292  64.913  1.00  0.00    -0.103 A  
HETATM    9  C   UNL     1      -7.984  10.305  64.220  1.00  0.00    -0.132 A  
HETATM   10  C   UNL     1      -9.291  10.628  64.587  1.00  0.00    -0.280 A  
HETATM   11  N   UNL     1      -7.443  10.823  63.037  1.00  0.00    -0.354 NA 
HETATM   12  H2  UNL     1      -7.277  10.049  62.393  1.00  0.00     0.000 HD 
HETATM   13  H1  UNL     1      -7.928  11.564  62.531  1.00  0.00     0.000 HD 
HETATM   14  C   UNL     1      -9.884  10.032  65.703  1.00  0.00    -0.363 A  
ENDBRANCH   4   6
ENDBRANCH   3   4
ENDBRANCH   2   3
TORSDOF 3
ENDMDL
MODEL      200
REMARK 921   NORMALIZED FREE ENERGY PREDICTED BY IDOCK:   -1.75 KCAL/MOL
REMARK 922        TOTAL FREE ENERGY PREDICTED BY IDOCK:   -2.37 KCAL/MOL
REMARK 923 INTER-LIGAND FREE ENERGY PREDICTED BY IDOCK:   -2.81 KCAL/MOL
REMARK 924 INTRA-LIGAND FREE ENERGY PREDICTED BY IDOCK:    0.44 KCAL/MOL
REMARK 927      BINDING AFFINITY PREDICTED BY RF-SCORE:    0.00 PKD
ROOT
HETATM    1  C   UNL     1     -13.259   8.726  72.090  1.00  0.00    -0.456 C  
HETATM    2  C   UNL     1     -13.578   7.384  71.455  1.00  0.00    -0.370 C  
ENDROOT
BRANCH   2   3
HETATM    3  O   UNL     1     -12.566   7.104  70.483  1.00  0.00    -0.148 OA 
BRANCH   3   4
HETATM    4  C   UNL     1     -11.411   7.801  70.620  1.00  0.00    -0.245 C  
HETATM    5  O   UNL     1     -11.164   8.895  70.141  1.00  0.00    -0.238 OA 
BRANCH   4   6
HETATM    6  C   UNL     1     -10.502   7.075  71.544  1.00  0.00    -0.222 A  
HETATM    7  C   UNL     1      -9.849   7.796  72.550  1.00  0.00    -0.271 A  
HETATM    8  C   UNL     1      -9.031   7.131  73.471  1.00  0.00    -0.195 A  
HETATM    9  C   UNL     1      -8.821   5.755  73.376  1.00  0.00    -0.123 A  
HETATM   10  C   UNL     1      -9.530   5.030  72.416  1.00  0.00    -0.166 A  
HETATM   11  N   UNL     1      -8.098   5.080  74.366  1.00  0.00    -0.095 NA 
HETATM   12  H2  UNL     1      -8.530   5.277  75.269  1.00  0.00     0.000 HD 
HETATM   13  H1  UNL     1      -7.944   4.075  74.296  1.00  0.00     0.000 HD 
HETATM   14  C   UNL     1     -10.347   5.684  71.490  1.00  0.00    -0.279 A  
ENDBRANCH   4   6
ENDBRANCH   3   4
ENDBRANCH   2   3
TORSDOF 3
ENDMDL
MODEL      201
REMARK 921   NORMALIZED FREE ENERGY PREDICTED BY IDOCK:   -1.75 KCAL/MOL
REMARK 922        TOTAL FREE ENERGY PREDICTED BY IDOCK:   -2.36 KCAL/MOL
REMARK 923 INTER-LIGAND FREE ENERGY PREDICTED BY IDOCK:   -2.19 KCAL/MOL
REMARK 924 INTRA-LIGAND FREE ENERGY PREDICTED BY IDOCK:   -0.17 KCAL/MOL
REMARK 927      BINDING AFFINITY PREDICTED BY RF-SCORE:    0.00 PKD
ROOT
HETATM    1  C   UNL     1      -8.623   3.302  64.433  1.00  0.00    -0.093 C  
HETATM    2  C   UNL     1      -7.740   4.483  64.799  1.00  0.00    -0.081 C  
ENDROOT
BRANCH   2   3
HETATM    3  O   UNL     1      -8.547   5.664  64.760  1.00  0.00    -0.137 OA 
BRANCH   3   4
HETATM    4  C   UNL     1      -7.932   6.808  65.148  1.00  0.00    -0.128 C  
HETATM    5  O   UNL     1      -6.908   7.276  64.677  1.00  0.00    -0.048 OA 
BRANCH   4   6
HETATM    6  C   UNL     1      -8.753   7.484  66.185  1.00  0.00    -0.174 A  
HETATM    7  C   UNL     1      -9.347   8.713  65.876  1.00  0.00    -0.262 A  
HETATM    8  C   UNL     1     -10.174   9.348  66.812  1.00  0.00    -0.320 A  
HETATM    9  C   UNL     1     -10.382   8.789  68.074  1.00  0.00    -0.220 A  
HETATM   10  C   UNL     1      -9.846   7.530  68.350  1.00  0.00    -0.173 A  
HETATM   11  N   UNL     1     -11.299   9.367  68.959  1.00  0.00    -0.441 NA 
HETATM   12  H2  UNL     1     -12.201   9.438  68.486  1.00  0.00     0.000 HD 
HETATM   13  H1  UNL     1     -11.451   8.960  69.881  1.00  0.00     0.000 HD 
HETATM   14  C   UNL     1      -9.017   6.891  67.425  1.00  0.00    -0.116 A  
ENDBRANCH   4   6
ENDBRANCH   3   4
ENDBRANCH   2   3
TORSDOF 3
ENDMDL
MODEL      202
REMARK 921   NORMALIZED FREE ENERGY PREDICTED BY IDOCK:   -1.73 KCAL/MOL
REMARK 922        TOTAL FREE ENERGY PREDICTED BY IDOCK:   -2.34 KCAL/MOL
REMARK 923 INTER-LIGAND FREE ENERGY PREDICTED BY IDOCK:   -2.17 KCAL/MOL
REMARK 924 INTRA-LIGAND FREE ENERGY PREDICTED BY IDOCK:   -0.17 KCAL/MOL
REMARK 927      BINDING AFFINITY PREDICTED BY RF-SCORE:    0.00 PKD
ROOT
HETATM    1  C   UNL     1     -11.538  12.365  66.756  1.00  0.00    -0.444 C  
HETATM    2  C   UNL     1     -10.705  11.658  67.811  1.00  0.00    -0.204 C  
ENDROOT
BRANCH   2   3
HETATM    3  O   UNL     1     -11.452  10.531  68.279  1.00  0.00    -0.296 OA 
BRANCH   3   4
HETATM    4  C   UNL     1     -10.894   9.318  68.044  1.00  0.00    -0.106 C  
HETATM    5  O   UNL     1     -10.530   8.885  66.963  1.00  0.00    -0.274 OA 
BRANCH   4   6
HETATM    6  C   UNL     1     -10.689   8.610  69.334  1.00  0.00    -0.169 A  
HETATM    7  C   UNL     1     -11.771   7.936  69.911  1.00  0.00     0.357 A  
HETATM    8  C   UNL     1     -11.596   7.211  71.096  1.00  0.00    -0.336 A  
HETATM    9  C   UNL     1     -10.358   7.185  71.739  1.00  0.00    -0.196 A  
HETATM   10  C   UNL     1      -9.265   7.798  71.123  1.00  0.00    -0.158 A  
HETATM   11  N   UNL     1     -10.160   6.367  72.857  1.00  0.00    -0.178 NA 
HETATM   12  H2  UNL     1     -10.410   5.410  72.603  1.00  0.00     0.000 HD 
HETATM   13  H1  UNL     1      -9.255   6.348  73.327  1.00  0.00     0.000 HD 
HETATM   14  C   UNL     1      -9.430   8.526  69.942  1.00  0.00    -0.163 A  
ENDBRANCH   4   6
ENDBRANCH   3   4
ENDBRANCH   2   3
TORSDOF 3
ENDMDL
MODEL      203
REMARK 921   NORMALIZED FREE ENERGY PREDICTED BY IDOCK:   -1.68 KCAL/MOL
REMARK 922        TOTAL FREE ENERGY PREDICTED BY IDOCK:   -2.29 KCAL/MOL
REMARK 923 INTER-LIGAND FREE ENERGY PREDICTED BY IDOCK:   -2.16 KCAL/MOL
REMARK 924 INTRA-LIGAND FREE ENERGY PREDICTED BY IDOCK:   -0.13 KCAL/MOL
REMARK 927      BINDING AFFINITY PREDICTED BY RF-SCORE:    0.00 PKD
ROOT
HETATM    1  C   UNL     1     -10.118   7.350  73.495  1.00  0.00    -0.390 C  
HETATM    2  C   UNL     1      -9.893   6.013  72.810  1.00  0.00    -0.163 C  
ENDROOT
BRANCH   2   3
HETATM    3  O   UNL     1      -9.540   6.271  71.447  1.00  0.00    -0.157 OA 
BRANCH   3   4
HETATM    4  C   UNL     1      -8.688   5.381  70.882  1.00  0.00    -0.134 C  
HETATM    5  O   UNL     1      -7.953   4.607  71.472  1.00  0.00    -0.095 OA 
BRANCH   4   6
HETATM    6  C   UNL     1      -8.853   5.408  69.406  1.00  0.00    -0.117 A  
HETATM    7  C   UNL     1      -9.735   4.498  68.811  1.00  0.00    -0.213 A  
HETATM    8  C   UNL     1      -9.955   4.535  67.429  1.00  0.00    -0.171 A  
HETATM    9  C   UNL     1      -9.272   5.447  66.623  1.00  0.00    -0.132 A  
HETATM   10  C   UNL     1      -8.449   6.398  67.229  1.00  0.00    -0.111 A  
HETATM   11  N   UNL     1      -9.582   5.557  65.262  1.00  0.00    -0.353 NA 
HETATM   12  H2  UNL     1     -10.582   5.739  65.175  1.00  0.00     0.000 HD 
HETATM   13  H1  UNL     1      -9.082   6.223  64.673  1.00  0.00     0.000 HD 
HETATM   14  C   UNL     1      -8.220   6.367  68.606  1.00  0.00    -0.121 A  
ENDBRANCH   4   6
ENDBRANCH   3   4
ENDBRANCH   2   3
TORSDOF 3
ENDMDL
MODEL      204
REMARK 921   NORMALIZED FREE ENERGY PREDICTED BY IDOCK:   -1.65 KCAL/MOL
REMARK 922        TOTAL FREE ENERGY PREDICTED BY IDOCK:   -2.25 KCAL/MOL
REMARK 923 INTER-LIGAND FREE ENERGY PREDICTED BY IDOCK:   -2.41 KCAL/MOL
REMARK 924 INTRA-LIGAND FREE ENERGY PREDICTED BY IDOCK:    0.16 KCAL/MOL
REMARK 927      BINDING AFFINITY PREDICTED BY RF-SCORE:    0.00 PKD
ROOT
HETATM    1  C   UNL     1      -8.308   3.988  67.411  1.00  0.00    -0.098 C  
HETATM    2  C   UNL     1      -9.573   3.683  68.195  1.00  0.00    -0.103 C  
ENDROOT
BRANCH   2   3
HETATM    3  O   UNL     1      -9.314   3.961  69.575  1.00  0.00    -0.144 OA 
BRANCH   3   4
HETATM    4  C   UNL     1      -8.783   5.180  69.839  1.00  0.00    -0.103 C  
HETATM    5  O   UNL     1      -7.601   5.479  69.801  1.00  0.00    -0.071 OA 
BRANCH   4   6
HETATM    6  C   UNL     1      -9.878   6.153  70.088  1.00  0.00    -0.209 A  
HETATM    7  C   UNL     1     -10.987   5.740  70.836  1.00  0.00    -0.305 A  
HETATM    8  C   UNL     1     -12.008   6.650  71.137  1.00  0.00    -0.412 A  
HETATM    9  C   UNL     1     -11.958   7.961  70.662  1.00  0.00    -0.048 A  
HETATM   10  C   UNL     1     -10.817   8.387  69.978  1.00  0.00    -0.225 A  
HETATM   11  N   UNL     1     -12.921   8.894  71.062  1.00  0.00    -0.514 NA 
HETATM   12  H2  UNL     1     -12.936   8.923  72.082  1.00  0.00     0.000 HD 
HETATM   13  H1  UNL     1     -12.884   9.853  70.715  1.00  0.00     0.000 HD 
HETATM   14  C   UNL     1      -9.794   7.487  69.670  1.00  0.00    -0.180 A  
ENDBRANCH   4   6
ENDBRANCH   3   4
ENDBRANCH   2   3
TORSDOF 3
ENDMDL
MODEL      205
REMARK 921   NORMALIZED FREE ENERGY PREDICTED BY IDOCK:   -1.60 KCAL/MOL
REMARK 922        TOTAL FREE ENERGY PREDICTED BY IDOCK:   -2.19 KCAL/MOL
REMARK 923 INTER-LIGAND FREE ENERGY PREDICTED BY IDOCK:   -2.96 KCAL/MOL
REMARK 924 INTRA-LIGAND FREE ENERGY PREDICTED BY IDOCK:    0.76 KCAL/MOL
REMARK 927      BINDING AFFINITY PREDICTED BY RF-SCORE:    0.00 PKD
ROOT
HETATM    1  C   UNL     1     -11.605  12.303  66.787  1.00  0.00    -0.434 C  
HETATM    2  C   UNL     1     -10.302  11.525  66.829  1.00  0.00    -0.226 C  
ENDROOT
BRANCH   2   3
HETATM    3  O   UNL     1     -10.549  10.289  67.507  1.00  0.00    -0.229 OA 
BRANCH   3   4
HETATM    4  C   UNL     1     -10.205   9.167  66.828  1.00  0.00    -0.261 C  
HETATM    5  O   UNL     1     -10.621   8.039  67.035  1.00  0.00    -0.335 OA 
BRANCH   4   6
HETATM    6  C   UNL     1      -9.304   9.527  65.703  1.00  0.00    -0.302 A  
HETATM    7  C   UNL     1      -9.868  10.025  64.524  1.00  0.00    -0.244 A  
HETATM    8  C   UNL     1      -9.043  10.427  63.466  1.00  0.00    -0.270 A  
HETATM    9  C   UNL     1      -7.657  10.298  63.555  1.00  0.00    -0.104 A  
HETATM   10  C   UNL     1      -7.096   9.869  64.759  1.00  0.00    -0.133 A  
HETATM   11  N   UNL     1      -6.834  10.808  62.545  1.00  0.00    -0.320 NA 
HETATM   12  H2  UNL     1      -7.056  11.796  62.417  1.00  0.00     0.000 HD 
HETATM   13  H1  UNL     1      -5.820  10.714  62.610  1.00  0.00     0.000 HD 
HETATM   14  C   UNL     1      -7.910   9.462  65.819  1.00  0.00    -0.099 A  
ENDBRANCH   4   6
ENDBRANCH   3   4
ENDBRANCH   2   3
TORSDOF 3
ENDMDL
MODEL      206
REMARK 921   NORMALIZED FREE ENERGY PREDICTED BY IDOCK:   -1.48 KCAL/MOL
REMARK 922        TOTAL FREE ENERGY PREDICTED BY IDOCK:   -2.05 KCAL/MOL
REMARK 923 INTER-LIGAND FREE ENERGY PREDICTED BY IDOCK:   -1.95 KCAL/MOL
REMARK 924 INTRA-LIGAND FREE ENERGY PREDICTED BY IDOCK:   -0.09 KCAL/MOL
REMARK 927      BINDING AFFINITY PREDICTED BY RF-SCORE:    0.00 PKD
ROOT
HETATM    1  C   UNL     1      -9.181   5.992  68.101  1.00  0.00    -0.116 C  
HETATM    2  C   UNL     1     -10.319   6.949  68.409  1.00  0.00    -0.190 C  
ENDROOT
BRANCH   2   3
HETATM    3  O   UNL     1      -9.787   8.278  68.418  1.00  0.00    -0.162 OA 
BRANCH   3   4
HETATM    4  C   UNL     1      -9.718   8.891  67.212  1.00  0.00    -0.181 C  
HETATM    5  O   UNL     1     -10.086   8.432  66.143  1.00  0.00    -0.182 OA 
BRANCH   4   6
HETATM    6  C   UNL     1      -9.213  10.277  67.390  1.00  0.00    -0.155 A  
HETATM    7  C   UNL     1      -9.600  11.257  66.469  1.00  0.00    -0.215 A  
HETATM    8  C   UNL     1      -9.188  12.584  66.641  1.00  0.00    -0.223 A  
HETATM    9  C   UNL     1      -8.355  12.940  67.703  1.00  0.00    -0.176 A  
HETATM   10  C   UNL     1      -8.031  11.974  68.658  1.00  0.00    -0.082 A  
HETATM   11  N   UNL     1      -8.043  14.284  67.936  1.00  0.00    -0.137 NA 
HETATM   12  H2  UNL     1      -8.915  14.806  68.024  1.00  0.00     0.000 HD 
HETATM   13  H1  UNL     1      -7.434  14.544  68.712  1.00  0.00     0.000 HD 
HETATM   14  C   UNL     1      -8.435  10.647  68.493  1.00  0.00    -0.136 A  
ENDBRANCH   4   6
ENDBRANCH   3   4
ENDBRANCH   2   3
TORSDOF 3
ENDMDL
MODEL      207
REMARK 921   NORMALIZED FREE ENERGY PREDICTED BY IDOCK:   -1.47 KCAL/MOL
REMARK 922        TOTAL FREE ENERGY PREDICTED BY IDOCK:   -2.04 KCAL/MOL
REMARK 923 INTER-LIGAND FREE ENERGY PREDICTED BY IDOCK:   -1.78 KCAL/MOL
REMARK 924 INTRA-LIGAND FREE ENERGY PREDICTED BY IDOCK:   -0.26 KCAL/MOL
REMARK 927      BINDING AFFINITY PREDICTED BY RF-SCORE:    0.00 PKD
ROOT
HETATM    1  C   UNL     1      -9.249   6.044  68.237  1.00  0.00    -0.117 C  
HETATM    2  C   UNL     1     -10.426   6.975  68.474  1.00  0.00    -0.200 C  
ENDROOT
BRANCH   2   3
HETATM    3  O   UNL     1      -9.912   8.222  68.952  1.00  0.00    -0.176 OA 
BRANCH   3   4
HETATM    4  C   UNL     1     -10.292   9.320  68.254  1.00  0.00    -0.217 C  
HETATM    5  O   UNL     1     -11.419   9.784  68.190  1.00  0.00    -0.002 OA 
BRANCH   4   6
HETATM    6  C   UNL     1      -9.096   9.956  67.643  1.00  0.00    -0.140 A  
HETATM    7  C   UNL     1      -7.827   9.503  68.022  1.00  0.00    -0.087 A  
HETATM    8  C   UNL     1      -6.682  10.042  67.423  1.00  0.00    -0.073 A  
HETATM    9  C   UNL     1      -6.786  11.062  66.476  1.00  0.00    -0.135 A  
HETATM   10  C   UNL     1      -8.054  11.460  66.051  1.00  0.00     0.053 A  
HETATM   11  N   UNL     1      -5.648  11.514  65.798  1.00  0.00    -0.500 NA 
HETATM   12  H2  UNL     1      -5.197  10.712  65.357  1.00  0.00     0.000 HD 
HETATM   13  H1  UNL     1      -5.724  12.260  65.107  1.00  0.00     0.000 HD 
HETATM   14  C   UNL     1      -9.203  10.931  66.644  1.00  0.00    -0.184 A  
ENDBRANCH   4   6
ENDBRANCH   3   4
ENDBRANCH   2   3
TORSDOF 3
ENDMDL
MODEL      208
REMARK 921   NORMALIZED FREE ENERGY PREDICTED BY IDOCK:   -1.47 KCAL/MOL
REMARK 922        TOTAL FREE ENERGY PREDICTED BY IDOCK:   -2.03 KCAL/MOL
REMARK 923 INTER-LIGAND FREE ENERGY PREDICTED BY IDOCK:   -1.83 KCAL/MOL
REMARK 924 INTRA-LIGAND FREE ENERGY PREDICTED BY IDOCK:   -0.21 KCAL/MOL
REMARK 927      BINDING AFFINITY PREDICTED BY RF-SCORE:    0.00 PKD
ROOT
HETATM    1  C   UNL     1     -10.857   6.150  67.053  1.00  0.00    -0.435 C  
HETATM    2  C   UNL     1      -9.379   5.970  66.754  1.00  0.00    -0.138 C  
ENDROOT
BRANCH   2   3
HETATM    3  O   UNL     1      -8.638   6.656  67.770  1.00  0.00    -0.121 OA 
BRANCH   3   4
HETATM    4  C   UNL     1      -8.041   5.866  68.696  1.00  0.00    -0.103 C  
HETATM    5  O   UNL     1      -7.550   4.767  68.501  1.00  0.00    -0.072 OA 
BRANCH   4   6
HETATM    6  C   UNL     1      -7.976   6.588  69.993  1.00  0.00    -0.116 A  
HETATM    7  C   UNL     1      -8.519   5.977  71.129  1.00  0.00    -0.125 A  
HETATM    8  C   UNL     1      -8.422   6.605  72.377  1.00  0.00    -0.117 A  
HETATM    9  C   UNL     1      -7.824   7.861  72.499  1.00  0.00    -0.117 A  
HETATM   10  C   UNL     1      -7.222   8.431  71.376  1.00  0.00    -0.086 A  
HETATM   11  N   UNL     1      -7.627   8.429  73.762  1.00  0.00    -0.325 NA 
HETATM   12  H2  UNL     1      -7.102   7.767  74.334  1.00  0.00     0.000 HD 
HETATM   13  H1  UNL     1      -7.191   9.347  73.851  1.00  0.00     0.000 HD 
HETATM   14  C   UNL     1      -7.316   7.815  70.127  1.00  0.00    -0.071 A  
ENDBRANCH   4   6
ENDBRANCH   3   4
ENDBRANCH   2   3
TORSDOF 3
ENDMDL
MODEL      209
REMARK 921   NORMALIZED FREE ENERGY PREDICTED BY IDOCK:   -1.38 KCAL/MOL
REMARK 922        TOTAL FREE ENERGY PREDICTED BY IDOCK:   -1.93 KCAL/MOL
REMARK 923 INTER-LIGAND FREE ENERGY PREDICTED BY IDOCK:   -1.72 KCAL/MOL
REMARK 924 INTRA-LIGAND FREE ENERGY PREDICTED BY IDOCK:   -0.20 KCAL/MOL
REMARK 927      BINDING AFFINITY PREDICTED BY RF-SCORE:    0.00 PKD
ROOT
HETATM    1  C   UNL     1      -5.636   6.353  72.172  1.00  0.00    -0.036 C  
HETATM    2  C   UNL     1      -6.468   5.278  71.495  1.00  0.00    -0.035 C  
ENDROOT
BRANCH   2   3
HETATM    3  O   UNL     1      -6.957   5.812  70.260  1.00  0.00    -0.054 OA 
BRANCH   3   4
HETATM    4  C   UNL     1      -8.209   5.430  69.910  1.00  0.00    -0.096 C  
HETATM    5  O   UNL     1      -8.834   4.489  70.369  1.00  0.00    -0.083 OA 
BRANCH   4   6
HETATM    6  C   UNL     1      -8.769   6.403  68.937  1.00  0.00    -0.126 A  
HETATM    7  C   UNL     1      -8.199   7.679  68.859  1.00  0.00    -0.128 A  
HETATM    8  C   UNL     1      -8.666   8.600  67.913  1.00  0.00    -0.137 A  
HETATM    9  C   UNL     1      -9.728   8.276  67.067  1.00  0.00    -0.211 A  
HETATM   10  C   UNL     1     -10.244   6.979  67.099  1.00  0.00    -0.318 A  
HETATM   11  N   UNL     1     -10.112   9.155  66.048  1.00  0.00    -0.361 NA 
HETATM   12  H2  UNL     1      -9.293   9.357  65.473  1.00  0.00     0.000 HD 
HETATM   13  H1  UNL     1     -10.888   8.919  65.430  1.00  0.00     0.000 HD 
HETATM   14  C   UNL     1      -9.787   6.055  68.042  1.00  0.00    -0.137 A  
ENDBRANCH   4   6
ENDBRANCH   3   4
ENDBRANCH   2   3
TORSDOF 3
ENDMDL
MODEL      210
REMARK 921   NORMALIZED FREE ENERGY PREDICTED BY IDOCK:   -1.34 KCAL/MOL
REMARK 922        TOTAL FREE ENERGY PREDICTED BY IDOCK:   -1.89 KCAL/MOL
REMARK 923 INTER-LIGAND FREE ENERGY PREDICTED BY IDOCK:   -1.72 KCAL/MOL
REMARK 924 INTRA-LIGAND FREE ENERGY PREDICTED BY IDOCK:   -0.17 KCAL/MOL
REMARK 927      BINDING AFFINITY PREDICTED BY RF-SCORE:    0.00 PKD
ROOT
HETATM    1  C   UNL     1      -6.682   6.126  71.523  1.00  0.00    -0.056 C  
HETATM    2  C   UNL     1      -8.055   5.783  70.971  1.00  0.00    -0.120 C  
ENDROOT
BRANCH   2   3
HETATM    3  O   UNL     1      -8.695   7.006  70.593  1.00  0.00    -0.146 OA 
BRANCH   3   4
HETATM    4  C   UNL     1      -8.156   7.645  69.526  1.00  0.00    -0.127 C  
HETATM    5  O   UNL     1      -7.448   8.638  69.558  1.00  0.00    -0.069 OA 
BRANCH   4   6
HETATM    6  C   UNL     1      -8.473   6.891  68.286  1.00  0.00    -0.125 A  
HETATM    7  C   UNL     1      -9.815   6.689  67.946  1.00  0.00    -0.138 A  
HETATM    8  C   UNL     1     -10.146   6.032  66.755  1.00  0.00    -0.235 A  
HETATM    9  C   UNL     1      -9.150   5.534  65.914  1.00  0.00    -0.155 A  
HETATM   10  C   UNL     1      -7.814   5.802  66.221  1.00  0.00    -0.101 A  
HETATM   11  N   UNL     1      -9.484   4.984  64.672  1.00  0.00    -0.358 NA 
HETATM   12  H2  UNL     1     -10.028   5.672  64.151  1.00  0.00     0.000 HD 
HETATM   13  H1  UNL     1      -8.756   4.620  64.058  1.00  0.00     0.000 HD 
HETATM   14  C   UNL     1      -7.473   6.453  67.409  1.00  0.00    -0.088 A  
ENDBRANCH   4   6
ENDBRANCH   3   4
ENDBRANCH   2   3
TORSDOF 3
ENDMDL
MODEL      211
REMARK 921   NORMALIZED FREE ENERGY PREDICTED BY IDOCK:   -1.30 KCAL/MOL
REMARK 922        TOTAL FREE ENERGY PREDICTED BY IDOCK:   -1.84 KCAL/MOL
REMARK 923 INTER-LIGAND FREE ENERGY PREDICTED BY IDOCK:   -1.79 KCAL/MOL
REMARK 924 INTRA-LIGAND FREE ENERGY PREDICTED BY IDOCK:   -0.05 KCAL/MOL
REMARK 927      BINDING AFFINITY PREDICTED BY RF-SCORE:    0.00 PKD
ROOT
HETATM    1  C   UNL     1      -6.718   6.070  71.386  1.00  0.00    -0.055 C  
HETATM    2  C   UNL     1      -7.022   4.924  70.437  1.00  0.00    -0.045 C  
ENDROOT
BRANCH   2   3
HETATM    3  O   UNL     1      -7.321   5.482  69.154  1.00  0.00    -0.073 OA 
BRANCH   3   4
HETATM    4  C   UNL     1      -8.630   5.739  68.915  1.00  0.00    -0.106 C  
HETATM    5  O   UNL     1      -9.359   6.461  69.575  1.00  0.00    -0.143 OA 
BRANCH   4   6
HETATM    6  C   UNL     1      -9.039   5.082  67.646  1.00  0.00    -0.121 A  
HETATM    7  C   UNL     1      -8.184   4.135  67.074  1.00  0.00    -0.100 A  
HETATM    8  C   UNL     1      -8.566   3.457  65.910  1.00  0.00    -0.118 A  
HETATM    9  C   UNL     1      -9.780   3.744  65.283  1.00  0.00    -0.167 A  
HETATM   10  C   UNL     1     -10.660   4.637  65.898  1.00  0.00    -0.265 A  
HETATM   11  N   UNL     1     -10.207   2.983  64.190  1.00  0.00    -0.311 NA 
HETATM   12  H2  UNL     1     -10.213   2.000  64.465  1.00  0.00     0.000 HD 
HETATM   13  H1  UNL     1     -11.094   3.193  63.732  1.00  0.00     0.000 HD 
HETATM   14  C   UNL     1     -10.287   5.321  67.057  1.00  0.00    -0.286 A  
ENDBRANCH   4   6
ENDBRANCH   3   4
ENDBRANCH   2   3
TORSDOF 3
ENDMDL
MODEL      212
REMARK 921   NORMALIZED FREE ENERGY PREDICTED BY IDOCK:   -1.27 KCAL/MOL
REMARK 922        TOTAL FREE ENERGY PREDICTED BY IDOCK:   -1.81 KCAL/MOL
REMARK 923 INTER-LIGAND FREE ENERGY PREDICTED BY IDOCK:   -1.49 KCAL/MOL
REMARK 924 INTRA-LIGAND FREE ENERGY PREDICTED BY IDOCK:   -0.31 KCAL/MOL
REMARK 927      BINDING AFFINITY PREDICTED BY RF-SCORE:    0.00 PKD
ROOT
HETATM    1  C   UNL     1     -11.015   5.881  71.203  1.00  0.00    -0.327 C  
HETATM    2  C   UNL     1      -9.742   5.232  71.719  1.00  0.00    -0.158 C  
ENDROOT
BRANCH   2   3
HETATM    3  O   UNL     1      -8.917   4.924  70.591  1.00  0.00    -0.119 OA 
BRANCH   3   4
HETATM    4  C   UNL     1      -7.765   5.632  70.495  1.00  0.00    -0.094 C  
HETATM    5  O   UNL     1      -6.764   5.482  71.175  1.00  0.00    -0.048 OA 
BRANCH   4   6
HETATM    6  C   UNL     1      -7.857   6.571  69.347  1.00  0.00    -0.106 A  
HETATM    7  C   UNL     1      -8.485   6.140  68.174  1.00  0.00    -0.116 A  
HETATM    8  C   UNL     1      -8.639   7.020  67.096  1.00  0.00    -0.121 A  
HETATM    9  C   UNL     1      -8.133   8.319  67.159  1.00  0.00    -0.108 A  
HETATM   10  C   UNL     1      -7.571   8.767  68.356  1.00  0.00    -0.095 A  
HETATM   11  N   UNL     1      -8.391   9.228  66.126  1.00  0.00    -0.117 NA 
HETATM   12  H2  UNL     1      -9.401   9.284  65.992  1.00  0.00     0.000 HD 
HETATM   13  H1  UNL     1      -8.021  10.177  66.172  1.00  0.00     0.000 HD 
HETATM   14  C   UNL     1      -7.411   7.896  69.436  1.00  0.00    -0.081 A  
ENDBRANCH   4   6
ENDBRANCH   3   4
ENDBRANCH   2   3
TORSDOF 3
ENDMDL
MODEL      213
REMARK 921   NORMALIZED FREE ENERGY PREDICTED BY IDOCK:   -1.23 KCAL/MOL
REMARK 922        TOTAL FREE ENERGY PREDICTED BY IDOCK:   -1.76 KCAL/MOL
REMARK 923 INTER-LIGAND FREE ENERGY PREDICTED BY IDOCK:   -1.61 KCAL/MOL
REMARK 924 INTRA-LIGAND FREE ENERGY PREDICTED BY IDOCK:   -0.15 KCAL/MOL
REMARK 927      BINDING AFFINITY PREDICTED BY RF-SCORE:    0.00 PKD
ROOT
HETATM    1  C   UNL     1      -9.565   7.428  67.215  1.00  0.00    -0.191 C  
HETATM    2  C   UNL     1      -9.002   8.485  68.149  1.00  0.00    -0.142 C  
ENDROOT
BRANCH   2   3
HETATM    3  O   UNL     1      -9.651   9.726  67.853  1.00  0.00    -0.137 OA 
BRANCH   3   4
HETATM    4  C   UNL     1      -8.836  10.803  67.738  1.00  0.00    -0.130 C  
HETATM    5  O   UNL     1      -8.774  11.749  68.506  1.00  0.00    -0.163 OA 
BRANCH   4   6
HETATM    6  C   UNL     1      -7.932  10.617  66.573  1.00  0.00    -0.138 A  
HETATM    7  C   UNL     1      -6.550  10.611  66.790  1.00  0.00    -0.091 A  
HETATM    8  C   UNL     1      -5.673  10.382  65.722  1.00  0.00    -0.099 A  
HETATM    9  C   UNL     1      -6.160  10.199  64.427  1.00  0.00    -0.137 A  
HETATM   10  C   UNL     1      -7.540  10.134  64.229  1.00  0.00    -0.124 A  
HETATM   11  N   UNL     1      -5.289   9.855  63.387  1.00  0.00    -0.084 NA 
HETATM   12  H2  UNL     1      -4.779   9.014  63.660  1.00  0.00     0.000 HD 
HETATM   13  H1  UNL     1      -5.644   9.722  62.441  1.00  0.00     0.000 HD 
HETATM   14  C   UNL     1      -8.423  10.365  65.287  1.00  0.00    -0.173 A  
ENDBRANCH   4   6
ENDBRANCH   3   4
ENDBRANCH   2   3
TORSDOF 3
ENDMDL
MODEL      214
REMARK 921   NORMALIZED FREE ENERGY PREDICTED BY IDOCK:   -1.19 KCAL/MOL
REMARK 922        TOTAL FREE ENERGY PREDICTED BY IDOCK:   -1.71 KCAL/MOL
REMARK 923 INTER-LIGAND FREE ENERGY PREDICTED BY IDOCK:   -1.56 KCAL/MOL
REMARK 924 INTRA-LIGAND FREE ENERGY PREDICTED BY IDOCK:   -0.15 KCAL/MOL
REMARK 927      BINDING AFFINITY PREDICTED BY RF-SCORE:    0.00 PKD
ROOT
HETATM    1  C   UNL     1      -8.583   3.243  64.395  1.00  0.00    -0.093 C  
HETATM    2  C   UNL     1      -7.676   4.422  64.700  1.00  0.00    -0.077 C  
ENDROOT
BRANCH   2   3
HETATM    3  O   UNL     1      -8.472   5.611  64.663  1.00  0.00    -0.138 OA 
BRANCH   3   4
HETATM    4  C   UNL     1      -8.109   6.532  63.737  1.00  0.00    -0.016 C  
HETATM    5  O   UNL     1      -8.042   6.358  62.531  1.00  0.00    -0.102 OA 
BRANCH   4   6
HETATM    6  C   UNL     1      -7.899   7.844  64.400  1.00  0.00    -0.139 A  
HETATM    7  C   UNL     1      -7.168   7.885  65.593  1.00  0.00    -0.070 A  
HETATM    8  C   UNL     1      -6.903   9.112  66.212  1.00  0.00    -0.082 A  
HETATM    9  C   UNL     1      -7.396  10.302  65.676  1.00  0.00    -0.149 A  
HETATM   10  C   UNL     1      -8.061  10.264  64.449  1.00  0.00    -0.149 A  
HETATM   11  N   UNL     1      -7.030  11.533  66.233  1.00  0.00    -0.366 NA 
HETATM   12  H2  UNL     1      -6.011  11.587  66.252  1.00  0.00     0.000 HD 
HETATM   13  H1  UNL     1      -7.390  12.403  65.841  1.00  0.00     0.000 HD 
HETATM   14  C   UNL     1      -8.334   9.044  63.825  1.00  0.00    -0.178 A  
ENDBRANCH   4   6
ENDBRANCH   3   4
ENDBRANCH   2   3
TORSDOF 3
ENDMDL
MODEL      215
REMARK 921   NORMALIZED FREE ENERGY PREDICTED BY IDOCK:   -1.17 KCAL/MOL
REMARK 922        TOTAL FREE ENERGY PREDICTED BY IDOCK:   -1.69 KCAL/MOL
REMARK 923 INTER-LIGAND FREE ENERGY PREDICTED BY IDOCK:   -1.42 KCAL/MOL
REMARK 924 INTRA-LIGAND FREE ENERGY PREDICTED BY IDOCK:   -0.27 KCAL/MOL
REMARK 927      BINDING AFFINITY PREDICTED BY RF-SCORE:    0.00 PKD
ROOT
HETATM    1  C   UNL     1      -5.466   5.975  71.665  1.00  0.00    -0.022 C  
HETATM    2  C   UNL     1      -5.585   4.850  70.652  1.00  0.00    -0.015 C  
ENDROOT
BRANCH   2   3
HETATM    3  O   UNL     1      -6.173   5.388  69.463  1.00  0.00    -0.026 OA 
BRANCH   3   4
HETATM    4  C   UNL     1      -7.470   5.058  69.247  1.00  0.00    -0.057 C  
HETATM    5  O   UNL     1      -7.885   3.988  68.835  1.00  0.00    -0.057 OA 
BRANCH   4   6
HETATM    6  C   UNL     1      -8.345   6.173  69.692  1.00  0.00    -0.124 A  
HETATM    7  C   UNL     1      -8.029   7.476  69.290  1.00  0.00    -0.121 A  
HETATM    8  C   UNL     1      -8.865   8.542  69.644  1.00  0.00    -0.137 A  
HETATM    9  C   UNL     1      -9.997   8.329  70.433  1.00  0.00    -0.188 A  
HETATM   10  C   UNL     1     -10.346   7.020  70.770  1.00  0.00    -0.222 A  
HETATM   11  N   UNL     1     -10.889   9.376  70.684  1.00  0.00    -0.258 NA 
HETATM   12  H2  UNL     1     -11.191   9.764  69.790  1.00  0.00     0.000 HD 
HETATM   13  H1  UNL     1     -11.716   9.221  71.261  1.00  0.00     0.000 HD 
HETATM   14  C   UNL     1      -9.517   5.950  70.424  1.00  0.00    -0.192 A  
ENDBRANCH   4   6
ENDBRANCH   3   4
ENDBRANCH   2   3
TORSDOF 3
ENDMDL
MODEL      216
REMARK 921   NORMALIZED FREE ENERGY PREDICTED BY IDOCK:   -1.15 KCAL/MOL
REMARK 922        TOTAL FREE ENERGY PREDICTED BY IDOCK:   -1.67 KCAL/MOL
REMARK 923 INTER-LIGAND FREE ENERGY PREDICTED BY IDOCK:   -1.50 KCAL/MOL
REMARK 924 INTRA-LIGAND FREE ENERGY PREDICTED BY IDOCK:   -0.17 KCAL/MOL
REMARK 927      BINDING AFFINITY PREDICTED BY RF-SCORE:    0.00 PKD
ROOT
HETATM    1  C   UNL     1      -5.886   6.091  71.553  1.00  0.00    -0.027 C  
HETATM    2  C   UNL     1      -6.555   5.898  70.203  1.00  0.00    -0.047 C  
ENDROOT
BRANCH   2   3
HETATM    3  O   UNL     1      -6.776   7.192  69.633  1.00  0.00    -0.046 OA 
BRANCH   3   4
HETATM    4  C   UNL     1      -8.039   7.436  69.204  1.00  0.00    -0.120 C  
HETATM    5  O   UNL     1      -9.008   6.711  69.355  1.00  0.00    -0.133 OA 
BRANCH   4   6
HETATM    6  C   UNL     1      -8.101   8.791  68.597  1.00  0.00    -0.116 A  
HETATM    7  C   UNL     1      -7.084   9.181  67.718  1.00  0.00    -0.079 A  
HETATM    8  C   UNL     1      -7.144  10.429  67.086  1.00  0.00    -0.090 A  
HETATM    9  C   UNL     1      -8.190  11.314  67.352  1.00  0.00    -0.135 A  
HETATM   10  C   UNL     1      -9.238  10.891  68.172  1.00  0.00    -0.158 A  
HETATM   11  N   UNL     1      -8.306  12.507  66.631  1.00  0.00    -0.408 NA 
HETATM   12  H2  UNL     1      -8.323  12.281  65.636  1.00  0.00     0.000 HD 
HETATM   13  H1  UNL     1      -9.070  13.154  66.825  1.00  0.00     0.000 HD 
HETATM   14  C   UNL     1      -9.186   9.650  68.811  1.00  0.00    -0.141 A  
ENDBRANCH   4   6
ENDBRANCH   3   4
ENDBRANCH   2   3
TORSDOF 3
ENDMDL
MODEL      217
REMARK 921   NORMALIZED FREE ENERGY PREDICTED BY IDOCK:   -0.50 KCAL/MOL
REMARK 922        TOTAL FREE ENERGY PREDICTED BY IDOCK:   -0.90 KCAL/MOL
REMARK 923 INTER-LIGAND FREE ENERGY PREDICTED BY IDOCK:   -1.07 KCAL/MOL
REMARK 924 INTRA-LIGAND FREE ENERGY PREDICTED BY IDOCK:    0.18 KCAL/MOL
REMARK 927      BINDING AFFINITY PREDICTED BY RF-SCORE:    0.00 PKD
ROOT
HETATM    1  C   UNL     1      -6.443   5.528  64.677  1.00  0.00    -0.038 C  
HETATM    2  C   UNL     1      -6.801   4.332  65.541  1.00  0.00    -0.057 C  
ENDROOT
BRANCH   2   3
HETATM    3  O   UNL     1      -7.873   4.719  66.407  1.00  0.00    -0.097 OA 
BRANCH   3   4
HETATM    4  C   UNL     1      -7.525   5.495  67.463  1.00  0.00    -0.084 C  
HETATM    5  O   UNL     1      -6.928   6.557  67.415  1.00  0.00    -0.073 OA 
BRANCH   4   6
HETATM    6  C   UNL     1      -8.073   4.906  68.712  1.00  0.00    -0.084 A  
HETATM    7  C   UNL     1      -9.441   4.616  68.773  1.00  0.00    -0.214 A  
HETATM    8  C   UNL     1      -9.978   4.007  69.914  1.00  0.00    -0.046 A  
HETATM    9  C   UNL     1      -9.172   3.721  71.017  1.00  0.00    -0.130 A  
HETATM   10  C   UNL     1      -7.797   3.946  70.922  1.00  0.00    -0.051 A  
HETATM   11  N   UNL     1      -9.690   3.010  72.105  1.00  0.00    -0.150 NA 
HETATM   12  H2  UNL     1     -10.082   2.133  71.758  1.00  0.00     0.000 HD 
HETATM   13  H1  UNL     1      -9.100   2.801  72.911  1.00  0.00     0.000 HD 
HETATM   14  C   UNL     1      -7.252   4.556  69.790  1.00  0.00    -0.050 A  
ENDBRANCH   4   6
ENDBRANCH   3   4
ENDBRANCH   2   3
TORSDOF 3
ENDMDL
