MODEL        1
REMARK 921   NORMALIZED FREE ENERGY PREDICTED BY IDOCK:   -5.47 KCAL/MOL
REMARK 922        TOTAL FREE ENERGY PREDICTED BY IDOCK:   -9.07 KCAL/MOL
REMARK 923 INTER-LIGAND FREE ENERGY PREDICTED BY IDOCK:   -7.06 KCAL/MOL
REMARK 924 INTRA-LIGAND FREE ENERGY PREDICTED BY IDOCK:   -2.00 KCAL/MOL
REMARK 927      BINDING AFFINITY PREDICTED BY RF-SCORE:    0.00 PKD
ROOT
HETATM    1  O   UNL     1     -11.401  16.945  64.261  1.00  0.00    -1.202 OA 
HETATM    2  C   UNL     1     -11.074  15.900  64.806  1.00  0.00    -0.384 C  
ENDROOT
BRANCH   2   3
HETATM    3  O   UNL     1     -11.358  14.645  64.364  1.00  0.00    -0.323 OA 
BRANCH   3   4
HETATM    4  O   UNL     1     -12.673  14.290  64.916  1.00  0.00    -0.637 OA 
BRANCH   4   5
HETATM    5  C   UNL     1     -12.660  12.947  65.130  1.00  0.00    -0.471 C  
HETATM    6  O   UNL     1     -13.256  12.100  64.484  1.00  0.00    -0.724 OA 
BRANCH   5   7
HETATM    7  C   UNL     1     -11.853  12.626  66.339  1.00  0.00    -0.466 A  
HETATM    8  C   UNL     1     -11.291  12.902  68.682  1.00  0.00    -0.327 A  
HETATM    9  C   UNL     1     -12.102  13.216  67.585  1.00  0.00    -0.281 A  
HETATM   10  C   UNL     1     -10.239  11.997  68.542  1.00  0.00    -0.218 A  
HETATM   11  C   UNL     1      -9.988  11.402  67.305  1.00  0.00    -0.217 A  
HETATM   12  C   UNL     1     -10.789  11.719  66.206  1.00  0.00    -0.325 A  
ENDBRANCH   5   7
ENDBRANCH   4   5
ENDBRANCH   3   4
ENDBRANCH   2   3
BRANCH   2  13
HETATM   13  C   UNL     1     -10.264  15.859  66.058  1.00  0.00    -0.353 A  
HETATM   14  C   UNL     1      -8.389  15.087  67.394  1.00  0.00    -0.210 A  
HETATM   15  C   UNL     1     -10.708  16.613  67.156  1.00  0.00    -0.202 A  
HETATM   16  C   UNL     1      -9.096  15.094  66.186  1.00  0.00    -0.276 A  
HETATM   17  C   UNL     1      -9.998  16.606  68.359  1.00  0.00    -0.255 A  
HETATM   18  C   UNL     1      -8.839  15.842  68.477  1.00  0.00    -0.193 A  
ENDBRANCH   2  13
TORSDOF 5
ENDMDL
MODEL        2
REMARK 921   NORMALIZED FREE ENERGY PREDICTED BY IDOCK:   -5.46 KCAL/MOL
REMARK 922        TOTAL FREE ENERGY PREDICTED BY IDOCK:   -9.06 KCAL/MOL
REMARK 923 INTER-LIGAND FREE ENERGY PREDICTED BY IDOCK:   -7.02 KCAL/MOL
REMARK 924 INTRA-LIGAND FREE ENERGY PREDICTED BY IDOCK:   -2.04 KCAL/MOL
REMARK 927      BINDING AFFINITY PREDICTED BY RF-SCORE:    0.00 PKD
ROOT
HETATM    1  O   UNL     1     -13.284  12.116  64.278  1.00  0.00    -0.768 OA 
HETATM    2  C   UNL     1     -12.659  12.894  64.987  1.00  0.00    -0.472 C  
ENDROOT
BRANCH   2   3
HETATM    3  O   UNL     1     -12.676  14.250  64.893  1.00  0.00    -0.637 OA 
BRANCH   3   4
HETATM    4  O   UNL     1     -11.404  14.647  64.274  1.00  0.00    -0.248 OA 
BRANCH   4   5
HETATM    5  C   UNL     1     -11.080  15.865  64.787  1.00  0.00    -0.384 C  
HETATM    6  O   UNL     1     -11.325  16.953  64.289  1.00  0.00    -1.202 OA 
BRANCH   5   7
HETATM    7  C   UNL     1     -10.301  15.704  66.045  1.00  0.00    -0.351 A  
HETATM    8  C   UNL     1      -8.414  14.852  67.307  1.00  0.00    -0.229 A  
HETATM    9  C   UNL     1      -9.090  15.001  66.091  1.00  0.00    -0.237 A  
HETATM   10  C   UNL     1      -8.937  15.409  68.475  1.00  0.00    -0.192 A  
HETATM   11  C   UNL     1     -10.140  16.115  68.435  1.00  0.00    -0.236 A  
HETATM   12  C   UNL     1     -10.822  16.258  67.224  1.00  0.00    -0.216 A  
ENDBRANCH   5   7
ENDBRANCH   4   5
ENDBRANCH   3   4
ENDBRANCH   2   3
BRANCH   2  13
HETATM   13  C   UNL     1     -11.786  12.442  66.109  1.00  0.00    -0.460 A  
HETATM   14  C   UNL     1     -11.125  12.390  68.445  1.00  0.00    -0.288 A  
HETATM   15  C   UNL     1     -10.708  11.595  65.807  1.00  0.00    -0.331 A  
HETATM   16  C   UNL     1     -11.989  12.837  67.439  1.00  0.00    -0.335 A  
HETATM   17  C   UNL     1      -9.848  11.149  66.814  1.00  0.00    -0.230 A  
HETATM   18  C   UNL     1     -10.058  11.547  68.133  1.00  0.00    -0.201 A  
ENDBRANCH   2  13
TORSDOF 5
ENDMDL
MODEL        3
REMARK 921   NORMALIZED FREE ENERGY PREDICTED BY IDOCK:   -5.38 KCAL/MOL
REMARK 922        TOTAL FREE ENERGY PREDICTED BY IDOCK:   -8.95 KCAL/MOL
REMARK 923 INTER-LIGAND FREE ENERGY PREDICTED BY IDOCK:   -7.46 KCAL/MOL
REMARK 924 INTRA-LIGAND FREE ENERGY PREDICTED BY IDOCK:   -1.50 KCAL/MOL
REMARK 927      BINDING AFFINITY PREDICTED BY RF-SCORE:    0.00 PKD
ROOT
HETATM    1  O   UNL     1     -13.529  11.884  63.957  1.00  0.00    -0.600 OA 
HETATM    2  C   UNL     1     -12.422  12.340  63.703  1.00  0.00    -0.541 C  
ENDROOT
BRANCH   2   3
HETATM    3  O   UNL     1     -12.167  13.553  63.144  1.00  0.00    -0.608 OA 
BRANCH   3   4
HETATM    4  O   UNL     1     -12.885  14.549  63.950  1.00  0.00    -0.685 OA 
BRANCH   4   5
HETATM    5  C   UNL     1     -11.951  15.413  64.431  1.00  0.00    -0.228 C  
HETATM    6  O   UNL     1     -11.655  16.501  63.961  1.00  0.00    -1.154 OA 
BRANCH   5   7
HETATM    7  C   UNL     1     -11.258  14.820  65.607  1.00  0.00    -0.343 A  
HETATM    8  C   UNL     1      -9.268  14.069  66.773  1.00  0.00    -0.280 A  
HETATM    9  C   UNL     1      -9.867  14.663  65.655  1.00  0.00    -0.354 A  
HETATM   10  C   UNL     1     -10.053  13.640  67.845  1.00  0.00    -0.244 A  
HETATM   11  C   UNL     1     -11.438  13.799  67.805  1.00  0.00    -0.354 A  
HETATM   12  C   UNL     1     -12.039  14.383  66.687  1.00  0.00    -0.392 A  
ENDBRANCH   5   7
ENDBRANCH   4   5
ENDBRANCH   3   4
ENDBRANCH   2   3
BRANCH   2  13
HETATM   13  C   UNL     1     -11.157  11.612  64.013  1.00  0.00    -0.458 A  
HETATM   14  C   UNL     1      -9.673  10.396  65.501  1.00  0.00    -0.307 A  
HETATM   15  C   UNL     1     -10.195  11.500  62.997  1.00  0.00    -0.312 A  
HETATM   16  C   UNL     1     -10.887  11.054  65.270  1.00  0.00    -0.172 A  
HETATM   17  C   UNL     1      -8.985  10.841  63.230  1.00  0.00    -0.223 A  
HETATM   18  C   UNL     1      -8.725  10.290  64.483  1.00  0.00    -0.205 A  
ENDBRANCH   2  13
TORSDOF 5
ENDMDL
MODEL        4
REMARK 921   NORMALIZED FREE ENERGY PREDICTED BY IDOCK:   -5.35 KCAL/MOL
REMARK 922        TOTAL FREE ENERGY PREDICTED BY IDOCK:   -8.92 KCAL/MOL
REMARK 923 INTER-LIGAND FREE ENERGY PREDICTED BY IDOCK:   -7.36 KCAL/MOL
REMARK 924 INTRA-LIGAND FREE ENERGY PREDICTED BY IDOCK:   -1.57 KCAL/MOL
REMARK 927      BINDING AFFINITY PREDICTED BY RF-SCORE:    0.00 PKD
ROOT
HETATM    1  O   UNL     1     -11.452  16.422  63.911  1.00  0.00    -1.063 OA 
HETATM    2  C   UNL     1     -11.818  15.386  64.448  1.00  0.00    -0.256 C  
ENDROOT
BRANCH   2   3
HETATM    3  O   UNL     1     -12.854  14.600  64.047  1.00  0.00    -0.690 OA 
BRANCH   3   4
HETATM    4  O   UNL     1     -12.296  13.609  63.117  1.00  0.00    -0.729 OA 
BRANCH   4   5
HETATM    5  C   UNL     1     -12.508  12.385  63.672  1.00  0.00    -0.508 C  
HETATM    6  O   UNL     1     -13.587  11.900  63.976  1.00  0.00    -0.492 OA 
BRANCH   5   7
HETATM    7  C   UNL     1     -11.209  11.708  63.939  1.00  0.00    -0.479 A  
HETATM    8  C   UNL     1      -9.020  10.919  63.258  1.00  0.00    -0.204 A  
HETATM    9  C   UNL     1     -10.211  11.594  62.963  1.00  0.00    -0.294 A  
HETATM   10  C   UNL     1      -8.821  10.365  64.523  1.00  0.00    -0.225 A  
HETATM   11  C   UNL     1      -9.809  10.480  65.501  1.00  0.00    -0.324 A  
HETATM   12  C   UNL     1     -11.002  11.146  65.208  1.00  0.00    -0.153 A  
ENDBRANCH   5   7
ENDBRANCH   4   5
ENDBRANCH   3   4
ENDBRANCH   2   3
BRANCH   2  13
HETATM   13  C   UNL     1     -11.133  14.807  65.641  1.00  0.00    -0.342 A  
HETATM   14  C   UNL     1      -9.163  14.086  66.862  1.00  0.00    -0.271 A  
HETATM   15  C   UNL     1     -11.928  14.392  66.721  1.00  0.00    -0.423 A  
HETATM   16  C   UNL     1      -9.743  14.650  65.720  1.00  0.00    -0.331 A  
HETATM   17  C   UNL     1     -11.346  13.832  67.861  1.00  0.00    -0.328 A  
HETATM   18  C   UNL     1      -9.963  13.678  67.930  1.00  0.00    -0.244 A  
ENDBRANCH   2  13
TORSDOF 5
ENDMDL
MODEL        5
REMARK 921   NORMALIZED FREE ENERGY PREDICTED BY IDOCK:   -5.16 KCAL/MOL
REMARK 922        TOTAL FREE ENERGY PREDICTED BY IDOCK:   -8.67 KCAL/MOL
REMARK 923 INTER-LIGAND FREE ENERGY PREDICTED BY IDOCK:   -8.18 KCAL/MOL
REMARK 924 INTRA-LIGAND FREE ENERGY PREDICTED BY IDOCK:   -0.49 KCAL/MOL
REMARK 927      BINDING AFFINITY PREDICTED BY RF-SCORE:    0.00 PKD
ROOT
HETATM    1  O   UNL     1     -12.094  11.414  67.992  1.00  0.00    -0.629 OA 
HETATM    2  C   UNL     1     -11.816  11.685  69.152  1.00  0.00    -0.326 C  
ENDROOT
BRANCH   2   3
HETATM    3  O   UNL     1     -11.545  12.926  69.639  1.00  0.00    -0.283 OA 
BRANCH   3   4
HETATM    4  O   UNL     1     -12.282  13.880  68.799  1.00  0.00    -0.348 OA 
BRANCH   4   5
HETATM    5  C   UNL     1     -11.948  15.125  69.233  1.00  0.00    -0.292 C  
HETATM    6  O   UNL     1     -11.273  15.948  68.633  1.00  0.00    -0.318 OA 
BRANCH   5   7
HETATM    7  C   UNL     1     -12.467  15.348  70.609  1.00  0.00    -0.478 A  
HETATM    8  C   UNL     1     -14.231  15.299  72.273  1.00  0.00    -0.642 A  
HETATM    9  C   UNL     1     -13.784  15.039  70.972  1.00  0.00    -0.417 A  
HETATM   10  C   UNL     1     -13.365  15.859  73.214  1.00  0.00    -0.660 A  
HETATM   11  C   UNL     1     -12.051  16.164  72.861  1.00  0.00    -0.643 A  
HETATM   12  C   UNL     1     -11.604  15.914  71.561  1.00  0.00    -0.537 A  
ENDBRANCH   5   7
ENDBRANCH   4   5
ENDBRANCH   3   4
ENDBRANCH   2   3
BRANCH   2  13
HETATM   13  C   UNL     1     -11.764  10.659  70.233  1.00  0.00    -0.433 A  
HETATM   14  C   UNL     1     -10.655   8.911  71.502  1.00  0.00    -0.399 A  
HETATM   15  C   UNL     1     -12.909  10.477  71.025  1.00  0.00    -0.502 A  
HETATM   16  C   UNL     1     -10.634   9.867  70.481  1.00  0.00    -0.359 A  
HETATM   17  C   UNL     1     -12.926   9.522  72.046  1.00  0.00    -0.514 A  
HETATM   18  C   UNL     1     -11.798   8.740  72.283  1.00  0.00    -0.403 A  
ENDBRANCH   2  13
TORSDOF 5
ENDMDL
MODEL        6
REMARK 921   NORMALIZED FREE ENERGY PREDICTED BY IDOCK:   -5.15 KCAL/MOL
REMARK 922        TOTAL FREE ENERGY PREDICTED BY IDOCK:   -8.66 KCAL/MOL
REMARK 923 INTER-LIGAND FREE ENERGY PREDICTED BY IDOCK:   -8.16 KCAL/MOL
REMARK 924 INTRA-LIGAND FREE ENERGY PREDICTED BY IDOCK:   -0.50 KCAL/MOL
REMARK 927      BINDING AFFINITY PREDICTED BY RF-SCORE:    0.00 PKD
ROOT
HETATM    1  O   UNL     1     -11.144  15.758  68.746  1.00  0.00    -0.280 OA 
HETATM    2  C   UNL     1     -11.878  14.981  69.341  1.00  0.00    -0.329 C  
ENDROOT
BRANCH   2   3
HETATM    3  O   UNL     1     -12.269  13.755  68.900  1.00  0.00    -0.344 OA 
BRANCH   3   4
HETATM    4  O   UNL     1     -11.552  12.765  69.714  1.00  0.00    -0.278 OA 
BRANCH   4   5
HETATM    5  C   UNL     1     -11.885  11.539  69.227  1.00  0.00    -0.348 C  
HETATM    6  O   UNL     1     -12.261  11.284  68.093  1.00  0.00    -0.622 OA 
BRANCH   5   7
HETATM    7  C   UNL     1     -11.798  10.515  70.304  1.00  0.00    -0.418 A  
HETATM    8  C   UNL     1     -10.628   8.779  71.527  1.00  0.00    -0.379 A  
HETATM    9  C   UNL     1     -10.645   9.751  70.520  1.00  0.00    -0.376 A  
HETATM   10  C   UNL     1     -11.756   8.573  72.323  1.00  0.00    -0.443 A  
HETATM   11  C   UNL     1     -12.906   9.334  72.117  1.00  0.00    -0.485 A  
HETATM   12  C   UNL     1     -12.929  10.300  71.107  1.00  0.00    -0.503 A  
ENDBRANCH   5   7
ENDBRANCH   4   5
ENDBRANCH   3   4
ENDBRANCH   2   3
BRANCH   2  13
HETATM   13  C   UNL     1     -12.440  15.271  70.692  1.00  0.00    -0.458 A  
HETATM   14  C   UNL     1     -14.249  15.344  72.310  1.00  0.00    -0.639 A  
HETATM   15  C   UNL     1     -11.581  15.815  71.660  1.00  0.00    -0.537 A  
HETATM   16  C   UNL     1     -13.780  15.036  71.028  1.00  0.00    -0.417 A  
HETATM   17  C   UNL     1     -12.051  16.118  72.941  1.00  0.00    -0.643 A  
HETATM   18  C   UNL     1     -13.386  15.883  73.264  1.00  0.00    -0.660 A  
ENDBRANCH   2  13
TORSDOF 5
ENDMDL
MODEL        7
REMARK 921   NORMALIZED FREE ENERGY PREDICTED BY IDOCK:   -5.13 KCAL/MOL
REMARK 922        TOTAL FREE ENERGY PREDICTED BY IDOCK:   -8.63 KCAL/MOL
REMARK 923 INTER-LIGAND FREE ENERGY PREDICTED BY IDOCK:   -8.02 KCAL/MOL
REMARK 924 INTRA-LIGAND FREE ENERGY PREDICTED BY IDOCK:   -0.60 KCAL/MOL
REMARK 927      BINDING AFFINITY PREDICTED BY RF-SCORE:    0.00 PKD
ROOT
HETATM    1  O   UNL     1     -13.351  14.073  65.283  1.00  0.00    -0.741 OA 
HETATM    2  C   UNL     1     -12.182  13.804  65.525  1.00  0.00    -0.442 C  
ENDROOT
BRANCH   2   3
HETATM    3  O   UNL     1     -11.099  14.257  64.838  1.00  0.00    -0.352 OA 
BRANCH   3   4
HETATM    4  O   UNL     1     -10.393  15.188  65.729  1.00  0.00    -0.293 OA 
BRANCH   4   5
HETATM    5  C   UNL     1     -10.760  16.444  65.356  1.00  0.00    -0.296 C  
HETATM    6  O   UNL     1     -11.171  16.786  64.258  1.00  0.00    -1.163 OA 
BRANCH   5   7
HETATM    7  C   UNL     1     -10.525  17.402  66.470  1.00  0.00    -0.264 A  
HETATM    8  C   UNL     1     -10.147  17.927  68.807  1.00  0.00    -0.384 A  
HETATM    9  C   UNL     1     -10.332  16.981  67.792  1.00  0.00    -0.335 A  
HETATM   10  C   UNL     1     -10.146  19.290  68.506  1.00  0.00    -0.513 A  
HETATM   11  C   UNL     1     -10.332  19.716  67.191  1.00  0.00    -0.581 A  
HETATM   12  C   UNL     1     -10.526  18.775  66.177  1.00  0.00    -0.499 A  
ENDBRANCH   5   7
ENDBRANCH   4   5
ENDBRANCH   3   4
ENDBRANCH   2   3
BRANCH   2  13
HETATM   13  C   UNL     1     -11.771  12.937  66.668  1.00  0.00    -0.452 A  
HETATM   14  C   UNL     1     -11.461  12.484  69.033  1.00  0.00    -0.355 A  
HETATM   15  C   UNL     1     -11.242  11.670  66.377  1.00  0.00    -0.349 A  
HETATM   16  C   UNL     1     -11.879  13.339  68.007  1.00  0.00    -0.392 A  
HETATM   17  C   UNL     1     -10.828  10.818  67.404  1.00  0.00    -0.345 A  
HETATM   18  C   UNL     1     -10.938  11.226  68.732  1.00  0.00    -0.270 A  
ENDBRANCH   2  13
TORSDOF 5
ENDMDL
MODEL        8
REMARK 921   NORMALIZED FREE ENERGY PREDICTED BY IDOCK:   -5.04 KCAL/MOL
REMARK 922        TOTAL FREE ENERGY PREDICTED BY IDOCK:   -8.51 KCAL/MOL
REMARK 923 INTER-LIGAND FREE ENERGY PREDICTED BY IDOCK:   -8.20 KCAL/MOL
REMARK 924 INTRA-LIGAND FREE ENERGY PREDICTED BY IDOCK:   -0.32 KCAL/MOL
REMARK 927      BINDING AFFINITY PREDICTED BY RF-SCORE:    0.00 PKD
ROOT
HETATM    1  O   UNL     1     -12.082  11.197  68.091  1.00  0.00    -0.633 OA 
HETATM    2  C   UNL     1     -11.627  12.152  67.477  1.00  0.00    -0.343 C  
ENDROOT
BRANCH   2   3
HETATM    3  O   UNL     1     -11.184  13.316  68.023  1.00  0.00    -0.252 OA 
BRANCH   3   4
HETATM    4  O   UNL     1     -12.043  13.591  69.183  1.00  0.00    -0.329 OA 
BRANCH   4   5
HETATM    5  C   UNL     1     -12.098  14.944  69.320  1.00  0.00    -0.251 C  
HETATM    6  O   UNL     1     -11.826  15.774  68.466  1.00  0.00    -0.363 OA 
BRANCH   5   7
HETATM    7  C   UNL     1     -12.480  15.306  70.712  1.00  0.00    -0.457 A  
HETATM    8  C   UNL     1     -11.950  16.035  72.963  1.00  0.00    -0.597 A  
HETATM    9  C   UNL     1     -11.541  15.738  71.658  1.00  0.00    -0.537 A  
HETATM   10  C   UNL     1     -13.292  15.910  73.325  1.00  0.00    -0.660 A  
HETATM   11  C   UNL     1     -14.232  15.486  72.387  1.00  0.00    -0.571 A  
HETATM   12  C   UNL     1     -13.827  15.180  71.085  1.00  0.00    -0.495 A  
ENDBRANCH   5   7
ENDBRANCH   4   5
ENDBRANCH   3   4
ENDBRANCH   2   3
BRANCH   2  13
HETATM   13  C   UNL     1     -11.461  12.156  65.994  1.00  0.00    -0.427 A  
HETATM   14  C   UNL     1     -12.148  12.760  63.745  1.00  0.00    -0.596 A  
HETATM   15  C   UNL     1     -10.368  11.462  65.451  1.00  0.00    -0.331 A  
HETATM   16  C   UNL     1     -12.351  12.807  65.129  1.00  0.00    -0.555 A  
HETATM   17  C   UNL     1     -10.166  11.419  64.069  1.00  0.00    -0.398 A  
HETATM   18  C   UNL     1     -11.057  12.068  63.217  1.00  0.00    -0.400 A  
ENDBRANCH   2  13
TORSDOF 5
ENDMDL
MODEL        9
REMARK 921   NORMALIZED FREE ENERGY PREDICTED BY IDOCK:   -5.00 KCAL/MOL
REMARK 922        TOTAL FREE ENERGY PREDICTED BY IDOCK:   -8.47 KCAL/MOL
REMARK 923 INTER-LIGAND FREE ENERGY PREDICTED BY IDOCK:   -7.99 KCAL/MOL
REMARK 924 INTRA-LIGAND FREE ENERGY PREDICTED BY IDOCK:   -0.48 KCAL/MOL
REMARK 927      BINDING AFFINITY PREDICTED BY RF-SCORE:    0.00 PKD
ROOT
HETATM    1  O   UNL     1     -13.236  13.849  65.207  1.00  0.00    -0.774 OA 
HETATM    2  C   UNL     1     -12.045  13.588  65.104  1.00  0.00    -0.404 C  
ENDROOT
BRANCH   2   3
HETATM    3  O   UNL     1     -11.108  14.361  64.492  1.00  0.00    -0.362 OA 
BRANCH   3   4
HETATM    4  O   UNL     1     -10.540  15.235  65.528  1.00  0.00    -0.319 OA 
BRANCH   4   5
HETATM    5  C   UNL     1     -10.843  16.513  65.173  1.00  0.00    -0.233 C  
HETATM    6  O   UNL     1     -11.270  16.887  64.091  1.00  0.00    -1.176 OA 
BRANCH   5   7
HETATM    7  C   UNL     1     -10.512  17.448  66.282  1.00  0.00    -0.276 A  
HETATM    8  C   UNL     1     -10.026  17.934  68.608  1.00  0.00    -0.387 A  
HETATM    9  C   UNL     1     -10.303  17.008  67.595  1.00  0.00    -0.332 A  
HETATM   10  C   UNL     1      -9.951  19.296  68.313  1.00  0.00    -0.497 A  
HETATM   11  C   UNL     1     -10.153  19.741  67.006  1.00  0.00    -0.551 A  
HETATM   12  C   UNL     1     -10.438  18.820  65.995  1.00  0.00    -0.483 A  
ENDBRANCH   5   7
ENDBRANCH   4   5
ENDBRANCH   3   4
ENDBRANCH   2   3
BRANCH   2  13
HETATM   13  C   UNL     1     -11.433  12.357  65.683  1.00  0.00    -0.412 A  
HETATM   14  C   UNL     1     -10.124  10.318  65.531  1.00  0.00    -0.351 A  
HETATM   15  C   UNL     1     -11.660  12.084  67.042  1.00  0.00    -0.387 A  
HETATM   16  C   UNL     1     -10.658  11.464  64.931  1.00  0.00    -0.368 A  
HETATM   17  C   UNL     1     -11.123  10.941  67.638  1.00  0.00    -0.376 A  
HETATM   18  C   UNL     1     -10.355  10.058  66.881  1.00  0.00    -0.297 A  
ENDBRANCH   2  13
TORSDOF 5
ENDMDL
MODEL       10
REMARK 921   NORMALIZED FREE ENERGY PREDICTED BY IDOCK:   -5.00 KCAL/MOL
REMARK 922        TOTAL FREE ENERGY PREDICTED BY IDOCK:   -8.46 KCAL/MOL
REMARK 923 INTER-LIGAND FREE ENERGY PREDICTED BY IDOCK:   -7.87 KCAL/MOL
REMARK 924 INTRA-LIGAND FREE ENERGY PREDICTED BY IDOCK:   -0.60 KCAL/MOL
REMARK 927      BINDING AFFINITY PREDICTED BY RF-SCORE:    0.00 PKD
ROOT
HETATM    1  O   UNL     1     -12.619  10.549  71.127  1.00  0.00    -0.344 OA 
HETATM    2  C   UNL     1     -12.199  11.564  70.589  1.00  0.00    -0.378 C  
ENDROOT
BRANCH   2   3
HETATM    3  O   UNL     1     -11.319  11.614  69.553  1.00  0.00    -0.258 OA 
BRANCH   3   4
HETATM    4  O   UNL     1     -12.043  11.152  68.361  1.00  0.00    -0.605 OA 
BRANCH   4   5
HETATM    5  C   UNL     1     -11.120  11.005  67.372  1.00  0.00    -0.305 C  
HETATM    6  O   UNL     1     -10.152  10.261  67.384  1.00  0.00    -0.184 OA 
BRANCH   5   7
HETATM    7  C   UNL     1     -11.405  11.950  66.258  1.00  0.00    -0.394 A  
HETATM    8  C   UNL     1     -11.197  12.678  63.954  1.00  0.00    -0.497 A  
HETATM    9  C   UNL     1     -10.926  11.741  64.958  1.00  0.00    -0.357 A  
HETATM   10  C   UNL     1     -11.950  13.818  64.241  1.00  0.00    -0.481 A  
HETATM   11  C   UNL     1     -12.434  14.029  65.532  1.00  0.00    -0.533 A  
HETATM   12  C   UNL     1     -12.159  13.100  66.539  1.00  0.00    -0.423 A  
ENDBRANCH   5   7
ENDBRANCH   4   5
ENDBRANCH   3   4
ENDBRANCH   2   3
BRANCH   2  13
HETATM   13  C   UNL     1     -12.636  12.933  70.990  1.00  0.00    -0.376 A  
HETATM   14  C   UNL     1     -12.696  15.346  70.726  1.00  0.00    -0.516 A  
HETATM   15  C   UNL     1     -13.445  13.060  72.131  1.00  0.00    -0.638 A  
HETATM   16  C   UNL     1     -12.264  14.089  70.289  1.00  0.00    -0.430 A  
HETATM   17  C   UNL     1     -13.876  14.316  72.564  1.00  0.00    -0.575 A  
HETATM   18  C   UNL     1     -13.500  15.459  71.861  1.00  0.00    -0.571 A  
ENDBRANCH   2  13
TORSDOF 5
ENDMDL
MODEL       11
REMARK 921   NORMALIZED FREE ENERGY PREDICTED BY IDOCK:   -5.00 KCAL/MOL
REMARK 922        TOTAL FREE ENERGY PREDICTED BY IDOCK:   -8.46 KCAL/MOL
REMARK 923 INTER-LIGAND FREE ENERGY PREDICTED BY IDOCK:   -7.95 KCAL/MOL
REMARK 924 INTRA-LIGAND FREE ENERGY PREDICTED BY IDOCK:   -0.51 KCAL/MOL
REMARK 927      BINDING AFFINITY PREDICTED BY RF-SCORE:    0.00 PKD
ROOT
HETATM    1  O   UNL     1     -11.315  16.647  64.111  1.00  0.00    -1.141 OA 
HETATM    2  C   UNL     1     -10.806  16.456  65.207  1.00  0.00    -0.258 C  
ENDROOT
BRANCH   2   3
HETATM    3  O   UNL     1     -10.324  15.271  65.669  1.00  0.00    -0.311 OA 
BRANCH   3   4
HETATM    4  O   UNL     1     -10.993  14.214  64.899  1.00  0.00    -0.355 OA 
BRANCH   4   5
HETATM    5  C   UNL     1     -12.143  13.913  65.562  1.00  0.00    -0.407 C  
HETATM    6  O   UNL     1     -13.275  14.241  65.243  1.00  0.00    -0.704 OA 
BRANCH   5   7
HETATM    7  C   UNL     1     -11.836  13.164  66.811  1.00  0.00    -0.444 A  
HETATM    8  C   UNL     1     -11.701  12.977  69.225  1.00  0.00    -0.375 A  
HETATM    9  C   UNL     1     -12.036  13.715  68.083  1.00  0.00    -0.390 A  
HETATM   10  C   UNL     1     -11.175  11.690  69.101  1.00  0.00    -0.325 A  
HETATM   11  C   UNL     1     -10.978  11.134  67.837  1.00  0.00    -0.307 A  
HETATM   12  C   UNL     1     -11.304  11.870  66.695  1.00  0.00    -0.400 A  
ENDBRANCH   5   7
ENDBRANCH   4   5
ENDBRANCH   3   4
ENDBRANCH   2   3
BRANCH   2  13
HETATM   13  C   UNL     1     -10.612  17.544  66.210  1.00  0.00    -0.198 A  
HETATM   14  C   UNL     1     -10.343  19.871  66.848  1.00  0.00    -0.596 A  
HETATM   15  C   UNL     1     -10.480  17.181  67.560  1.00  0.00    -0.348 A  
HETATM   16  C   UNL     1     -10.543  18.900  65.860  1.00  0.00    -0.438 A  
HETATM   17  C   UNL     1     -10.284  18.153  68.543  1.00  0.00    -0.399 A  
HETATM   18  C   UNL     1     -10.215  19.499  68.186  1.00  0.00    -0.556 A  
ENDBRANCH   2  13
TORSDOF 5
ENDMDL
MODEL       12
REMARK 921   NORMALIZED FREE ENERGY PREDICTED BY IDOCK:   -4.96 KCAL/MOL
REMARK 922        TOTAL FREE ENERGY PREDICTED BY IDOCK:   -8.42 KCAL/MOL
REMARK 923 INTER-LIGAND FREE ENERGY PREDICTED BY IDOCK:   -8.05 KCAL/MOL
REMARK 924 INTRA-LIGAND FREE ENERGY PREDICTED BY IDOCK:   -0.36 KCAL/MOL
REMARK 927      BINDING AFFINITY PREDICTED BY RF-SCORE:    0.00 PKD
ROOT
HETATM    1  O   UNL     1     -11.669  16.208  68.824  1.00  0.00    -0.364 OA 
HETATM    2  C   UNL     1     -11.680  15.154  69.445  1.00  0.00    -0.332 C  
ENDROOT
BRANCH   2   3
HETATM    3  O   UNL     1     -11.242  13.951  68.986  1.00  0.00    -0.253 OA 
BRANCH   3   4
HETATM    4  O   UNL     1     -11.886  13.737  67.683  1.00  0.00    -0.344 OA 
BRANCH   4   5
HETATM    5  C   UNL     1     -11.893  12.394  67.463  1.00  0.00    -0.284 C  
HETATM    6  O   UNL     1     -12.108  11.523  68.291  1.00  0.00    -0.580 OA 
BRANCH   5   7
HETATM    7  C   UNL     1     -11.527  12.101  66.051  1.00  0.00    -0.427 A  
HETATM    8  C   UNL     1     -10.018  11.241  64.358  1.00  0.00    -0.338 A  
HETATM    9  C   UNL     1     -10.328  11.464  65.705  1.00  0.00    -0.304 A  
HETATM   10  C   UNL     1     -10.903  11.644  63.357  1.00  0.00    -0.453 A  
HETATM   11  C   UNL     1     -12.101  12.274  63.695  1.00  0.00    -0.648 A  
HETATM   12  C   UNL     1     -12.410  12.506  65.038  1.00  0.00    -0.522 A  
ENDBRANCH   5   7
ENDBRANCH   4   5
ENDBRANCH   3   4
ENDBRANCH   2   3
BRANCH   2  13
HETATM   13  C   UNL     1     -12.164  15.049  70.852  1.00  0.00    -0.386 A  
HETATM   14  C   UNL     1     -13.508  14.041  72.605  1.00  0.00    -0.650 A  
HETATM   15  C   UNL     1     -11.683  15.980  71.787  1.00  0.00    -0.593 A  
HETATM   16  C   UNL     1     -13.082  14.076  71.273  1.00  0.00    -0.399 A  
HETATM   17  C   UNL     1     -12.108  15.941  73.117  1.00  0.00    -0.611 A  
HETATM   18  C   UNL     1     -13.022  14.971  73.525  1.00  0.00    -0.564 A  
ENDBRANCH   2  13
TORSDOF 5
ENDMDL
MODEL       13
REMARK 921   NORMALIZED FREE ENERGY PREDICTED BY IDOCK:   -4.93 KCAL/MOL
REMARK 922        TOTAL FREE ENERGY PREDICTED BY IDOCK:   -8.38 KCAL/MOL
REMARK 923 INTER-LIGAND FREE ENERGY PREDICTED BY IDOCK:   -7.88 KCAL/MOL
REMARK 924 INTRA-LIGAND FREE ENERGY PREDICTED BY IDOCK:   -0.50 KCAL/MOL
REMARK 927      BINDING AFFINITY PREDICTED BY RF-SCORE:    0.00 PKD
ROOT
HETATM    1  O   UNL     1     -11.783  13.050  68.881  1.00  0.00    -0.289 OA 
HETATM    2  C   UNL     1     -11.946  14.209  69.234  1.00  0.00    -0.340 C  
ENDROOT
BRANCH   2   3
HETATM    3  O   UNL     1     -11.922  15.302  68.425  1.00  0.00    -0.303 OA 
BRANCH   3   4
HETATM    4  O   UNL     1     -10.515  15.535  68.071  1.00  0.00    -0.249 OA 
BRANCH   4   5
HETATM    5  C   UNL     1     -10.513  16.223  66.897  1.00  0.00    -0.302 C  
HETATM    6  O   UNL     1     -10.604  15.749  65.775  1.00  0.00    -0.324 OA 
BRANCH   5   7
HETATM    7  C   UNL     1     -10.310  17.675  67.152  1.00  0.00    -0.343 A  
HETATM    8  C   UNL     1      -9.796  19.550  68.602  1.00  0.00    -0.530 A  
HETATM    9  C   UNL     1      -9.943  18.171  68.409  1.00  0.00    -0.392 A  
HETATM   10  C   UNL     1     -10.006  20.434  67.542  1.00  0.00    -0.537 A  
HETATM   11  C   UNL     1     -10.366  19.946  66.286  1.00  0.00    -0.608 A  
HETATM   12  C   UNL     1     -10.522  18.571  66.092  1.00  0.00    -0.447 A  
ENDBRANCH   5   7
ENDBRANCH   4   5
ENDBRANCH   3   4
ENDBRANCH   2   3
BRANCH   2  13
HETATM   13  C   UNL     1     -12.233  14.593  70.647  1.00  0.00    -0.394 A  
HETATM   14  C   UNL     1     -11.923  15.980  72.615  1.00  0.00    -0.646 A  
HETATM   15  C   UNL     1     -13.151  13.812  71.368  1.00  0.00    -0.413 A  
HETATM   16  C   UNL     1     -11.620  15.682  71.282  1.00  0.00    -0.485 A  
HETATM   17  C   UNL     1     -13.452  14.114  72.699  1.00  0.00    -0.634 A  
HETATM   18  C   UNL     1     -12.837  15.198  73.321  1.00  0.00    -0.640 A  
ENDBRANCH   2  13
TORSDOF 5
ENDMDL
MODEL       14
REMARK 921   NORMALIZED FREE ENERGY PREDICTED BY IDOCK:   -4.92 KCAL/MOL
REMARK 922        TOTAL FREE ENERGY PREDICTED BY IDOCK:   -8.36 KCAL/MOL
REMARK 923 INTER-LIGAND FREE ENERGY PREDICTED BY IDOCK:   -6.33 KCAL/MOL
REMARK 924 INTRA-LIGAND FREE ENERGY PREDICTED BY IDOCK:   -2.02 KCAL/MOL
REMARK 927      BINDING AFFINITY PREDICTED BY RF-SCORE:    0.00 PKD
ROOT
HETATM    1  O   UNL     1     -11.720  16.682  63.877  1.00  0.00    -1.153 OA 
HETATM    2  C   UNL     1     -11.038  15.950  64.581  1.00  0.00    -0.354 C  
ENDROOT
BRANCH   2   3
HETATM    3  O   UNL     1     -10.029  16.346  65.402  1.00  0.00    -0.534 OA 
BRANCH   3   4
HETATM    4  O   UNL     1     -10.659  16.943  66.588  1.00  0.00    -0.282 OA 
BRANCH   4   5
HETATM    5  C   UNL     1      -9.962  16.500  67.669  1.00  0.00    -0.254 C  
HETATM    6  O   UNL     1      -9.080  17.100  68.262  1.00  0.00    -0.242 OA 
BRANCH   5   7
HETATM    7  C   UNL     1     -10.374  15.112  68.014  1.00  0.00    -0.240 A  
HETATM    8  C   UNL     1     -12.027  13.463  68.668  1.00  0.00    -0.362 A  
HETATM    9  C   UNL     1     -11.700  14.778  68.319  1.00  0.00    -0.340 A  
HETATM   10  C   UNL     1     -11.038  12.479  68.706  1.00  0.00    -0.314 A  
HETATM   11  C   UNL     1      -9.717  12.804  68.398  1.00  0.00    -0.186 A  
HETATM   12  C   UNL     1      -9.385  14.118  68.058  1.00  0.00    -0.203 A  
ENDBRANCH   5   7
ENDBRANCH   4   5
ENDBRANCH   3   4
ENDBRANCH   2   3
BRANCH   2  13
HETATM   13  C   UNL     1     -11.249  14.475  64.660  1.00  0.00    -0.359 A  
HETATM   14  C   UNL     1     -12.642  12.503  64.911  1.00  0.00    -0.469 A  
HETATM   15  C   UNL     1     -10.123  13.642  64.570  1.00  0.00    -0.120 A  
HETATM   16  C   UNL     1     -12.513  13.894  64.830  1.00  0.00    -0.386 A  
HETATM   17  C   UNL     1     -10.255  12.254  64.649  1.00  0.00    -0.311 A  
HETATM   18  C   UNL     1     -11.516  11.685  64.820  1.00  0.00    -0.225 A  
ENDBRANCH   2  13
TORSDOF 5
ENDMDL
MODEL       15
REMARK 921   NORMALIZED FREE ENERGY PREDICTED BY IDOCK:   -4.91 KCAL/MOL
REMARK 922        TOTAL FREE ENERGY PREDICTED BY IDOCK:   -8.34 KCAL/MOL
REMARK 923 INTER-LIGAND FREE ENERGY PREDICTED BY IDOCK:   -7.72 KCAL/MOL
REMARK 924 INTRA-LIGAND FREE ENERGY PREDICTED BY IDOCK:   -0.62 KCAL/MOL
REMARK 927      BINDING AFFINITY PREDICTED BY RF-SCORE:    0.00 PKD
ROOT
HETATM    1  O   UNL     1      -9.993  10.519  67.215  1.00  0.00    -0.174 OA 
HETATM    2  C   UNL     1     -11.051  11.132  67.246  1.00  0.00    -0.302 C  
ENDROOT
BRANCH   2   3
HETATM    3  O   UNL     1     -11.966  11.097  68.252  1.00  0.00    -0.592 OA 
BRANCH   3   4
HETATM    4  O   UNL     1     -11.307  11.655  69.441  1.00  0.00    -0.251 OA 
BRANCH   4   5
HETATM    5  C   UNL     1     -12.202  11.569  70.462  1.00  0.00    -0.377 C  
HETATM    6  O   UNL     1     -12.661  10.545  70.944  1.00  0.00    -0.338 OA 
BRANCH   5   7
HETATM    7  C   UNL     1     -12.622  12.930  70.894  1.00  0.00    -0.355 A  
HETATM    8  C   UNL     1     -13.813  14.442  72.369  1.00  0.00    -0.595 A  
HETATM    9  C   UNL     1     -13.419  13.143  72.026  1.00  0.00    -0.598 A  
HETATM   10  C   UNL     1     -13.407  15.528  71.591  1.00  0.00    -0.585 A  
HETATM   11  C   UNL     1     -12.609  15.323  70.466  1.00  0.00    -0.450 A  
HETATM   12  C   UNL     1     -12.222  14.027  70.116  1.00  0.00    -0.425 A  
ENDBRANCH   5   7
ENDBRANCH   4   5
ENDBRANCH   3   4
ENDBRANCH   2   3
BRANCH   2  13
HETATM   13  C   UNL     1     -11.481  12.059  66.159  1.00  0.00    -0.401 A  
HETATM   14  C   UNL     1     -12.608  14.045  65.334  1.00  0.00    -0.529 A  
HETATM   15  C   UNL     1     -11.133  11.734  64.838  1.00  0.00    -0.345 A  
HETATM   16  C   UNL     1     -12.222  13.224  66.400  1.00  0.00    -0.419 A  
HETATM   17  C   UNL     1     -11.517  12.556  63.777  1.00  0.00    -0.542 A  
HETATM   18  C   UNL     1     -12.256  13.712  64.026  1.00  0.00    -0.443 A  
ENDBRANCH   2  13
TORSDOF 5
ENDMDL
MODEL       16
REMARK 921   NORMALIZED FREE ENERGY PREDICTED BY IDOCK:   -4.90 KCAL/MOL
REMARK 922        TOTAL FREE ENERGY PREDICTED BY IDOCK:   -8.33 KCAL/MOL
REMARK 923 INTER-LIGAND FREE ENERGY PREDICTED BY IDOCK:   -7.90 KCAL/MOL
REMARK 924 INTRA-LIGAND FREE ENERGY PREDICTED BY IDOCK:   -0.43 KCAL/MOL
REMARK 927      BINDING AFFINITY PREDICTED BY RF-SCORE:    0.00 PKD
ROOT
HETATM    1  O   UNL     1     -11.137  16.971  64.337  1.00  0.00    -1.144 OA 
HETATM    2  C   UNL     1     -10.804  16.749  65.493  1.00  0.00    -0.129 C  
ENDROOT
BRANCH   2   3
HETATM    3  O   UNL     1     -10.674  15.522  66.065  1.00  0.00    -0.316 OA 
BRANCH   3   4
HETATM    4  O   UNL     1     -10.799  14.536  64.983  1.00  0.00    -0.362 OA 
BRANCH   4   5
HETATM    5  C   UNL     1     -11.871  13.754  65.285  1.00  0.00    -0.352 C  
HETATM    6  O   UNL     1     -13.038  13.980  65.005  1.00  0.00    -0.742 OA 
BRANCH   5   7
HETATM    7  C   UNL     1     -11.441  12.578  66.090  1.00  0.00    -0.426 A  
HETATM    8  C   UNL     1     -11.264  11.352  68.174  1.00  0.00    -0.343 A  
HETATM    9  C   UNL     1     -11.719  12.465  67.458  1.00  0.00    -0.425 A  
HETATM   10  C   UNL     1     -10.539  10.349  67.528  1.00  0.00    -0.312 A  
HETATM   11  C   UNL     1     -10.263  10.454  66.165  1.00  0.00    -0.288 A  
HETATM   12  C   UNL     1     -10.709  11.567  65.448  1.00  0.00    -0.335 A  
ENDBRANCH   5   7
ENDBRANCH   4   5
ENDBRANCH   3   4
ENDBRANCH   2   3
BRANCH   2  13
HETATM   13  C   UNL     1     -10.455  17.832  66.458  1.00  0.00    -0.297 A  
HETATM   14  C   UNL     1      -9.897  18.656  68.672  1.00  0.00    -0.427 A  
HETATM   15  C   UNL     1     -10.388  19.149  65.974  1.00  0.00    -0.538 A  
HETATM   16  C   UNL     1     -10.206  17.593  67.816  1.00  0.00    -0.354 A  
HETATM   17  C   UNL     1     -10.077  20.207  66.831  1.00  0.00    -0.592 A  
HETATM   18  C   UNL     1      -9.833  19.960  68.181  1.00  0.00    -0.524 A  
ENDBRANCH   2  13
TORSDOF 5
ENDMDL
MODEL       17
REMARK 921   NORMALIZED FREE ENERGY PREDICTED BY IDOCK:   -4.88 KCAL/MOL
REMARK 922        TOTAL FREE ENERGY PREDICTED BY IDOCK:   -8.31 KCAL/MOL
REMARK 923 INTER-LIGAND FREE ENERGY PREDICTED BY IDOCK:   -7.95 KCAL/MOL
REMARK 924 INTRA-LIGAND FREE ENERGY PREDICTED BY IDOCK:   -0.35 KCAL/MOL
REMARK 927      BINDING AFFINITY PREDICTED BY RF-SCORE:    0.00 PKD
ROOT
HETATM    1  O   UNL     1     -13.354  14.297  65.118  1.00  0.00    -0.626 OA 
HETATM    2  C   UNL     1     -12.228  14.051  65.530  1.00  0.00    -0.439 C  
ENDROOT
BRANCH   2   3
HETATM    3  O   UNL     1     -11.518  14.804  66.412  1.00  0.00    -0.350 OA 
BRANCH   3   4
HETATM    4  O   UNL     1     -10.392  15.381  65.664  1.00  0.00    -0.316 OA 
BRANCH   4   5
HETATM    5  C   UNL     1     -10.769  16.633  65.289  1.00  0.00    -0.204 C  
HETATM    6  O   UNL     1     -11.372  16.938  64.272  1.00  0.00    -1.202 OA 
BRANCH   5   7
HETATM    7  C   UNL     1     -10.278  17.635  66.274  1.00  0.00    -0.362 A  
HETATM    8  C   UNL     1      -9.078  18.258  68.287  1.00  0.00    -0.318 A  
HETATM    9  C   UNL     1      -9.486  17.279  67.373  1.00  0.00    -0.245 A  
HETATM   10  C   UNL     1      -9.452  19.590  68.104  1.00  0.00    -0.439 A  
HETATM   11  C   UNL     1     -10.236  19.952  67.009  1.00  0.00    -0.588 A  
HETATM   12  C   UNL     1     -10.652  18.977  66.099  1.00  0.00    -0.495 A  
ENDBRANCH   5   7
ENDBRANCH   4   5
ENDBRANCH   3   4
ENDBRANCH   2   3
BRANCH   2  13
HETATM   13  C   UNL     1     -11.468  12.831  65.130  1.00  0.00    -0.356 A  
HETATM   14  C   UNL     1     -10.264  10.780  65.616  1.00  0.00    -0.320 A  
HETATM   15  C   UNL     1     -11.223  12.626  63.763  1.00  0.00    -0.519 A  
HETATM   16  C   UNL     1     -10.983  11.897  66.056  1.00  0.00    -0.355 A  
HETATM   17  C   UNL     1     -10.506  11.508  63.327  1.00  0.00    -0.421 A  
HETATM   18  C   UNL     1     -10.027  10.586  64.255  1.00  0.00    -0.398 A  
ENDBRANCH   2  13
TORSDOF 5
ENDMDL
MODEL       18
REMARK 921   NORMALIZED FREE ENERGY PREDICTED BY IDOCK:   -4.87 KCAL/MOL
REMARK 922        TOTAL FREE ENERGY PREDICTED BY IDOCK:   -8.29 KCAL/MOL
REMARK 923 INTER-LIGAND FREE ENERGY PREDICTED BY IDOCK:   -7.93 KCAL/MOL
REMARK 924 INTRA-LIGAND FREE ENERGY PREDICTED BY IDOCK:   -0.36 KCAL/MOL
REMARK 927      BINDING AFFINITY PREDICTED BY RF-SCORE:    0.00 PKD
ROOT
HETATM    1  O   UNL     1     -11.461  16.806  64.011  1.00  0.00    -1.198 OA 
HETATM    2  C   UNL     1     -10.952  16.420  65.054  1.00  0.00    -0.252 C  
ENDROOT
BRANCH   2   3
HETATM    3  O   UNL     1     -10.558  15.148  65.329  1.00  0.00    -0.348 OA 
BRANCH   3   4
HETATM    4  O   UNL     1     -11.782  14.341  65.432  1.00  0.00    -0.335 OA 
BRANCH   4   5
HETATM    5  C   UNL     1     -11.814  13.534  64.336  1.00  0.00    -0.414 C  
HETATM    6  O   UNL     1     -12.426  13.738  63.300  1.00  0.00    -0.819 OA 
BRANCH   5   7
HETATM    7  C   UNL     1     -11.037  12.290  64.590  1.00  0.00    -0.358 A  
HETATM    8  C   UNL     1     -10.156  10.569  66.053  1.00  0.00    -0.317 A  
HETATM    9  C   UNL     1     -10.926  11.723  65.865  1.00  0.00    -0.354 A  
HETATM   10  C   UNL     1      -9.503   9.976  64.971  1.00  0.00    -0.339 A  
HETATM   11  C   UNL     1      -9.613  10.533  63.698  1.00  0.00    -0.370 A  
HETATM   12  C   UNL     1     -10.374  11.690  63.508  1.00  0.00    -0.488 A  
ENDBRANCH   5   7
ENDBRANCH   4   5
ENDBRANCH   3   4
ENDBRANCH   2   3
BRANCH   2  13
HETATM   13  C   UNL     1     -10.654  17.334  66.196  1.00  0.00    -0.204 A  
HETATM   14  C   UNL     1     -10.180  19.516  67.149  1.00  0.00    -0.542 A  
HETATM   15  C   UNL     1     -10.541  16.773  67.478  1.00  0.00    -0.309 A  
HETATM   16  C   UNL     1     -10.472  18.715  66.039  1.00  0.00    -0.456 A  
HETATM   17  C   UNL     1     -10.252  17.576  68.584  1.00  0.00    -0.373 A  
HETATM   18  C   UNL     1     -10.071  18.947  68.418  1.00  0.00    -0.449 A  
ENDBRANCH   2  13
TORSDOF 5
ENDMDL
MODEL       19
REMARK 921   NORMALIZED FREE ENERGY PREDICTED BY IDOCK:   -4.86 KCAL/MOL
REMARK 922        TOTAL FREE ENERGY PREDICTED BY IDOCK:   -8.28 KCAL/MOL
REMARK 923 INTER-LIGAND FREE ENERGY PREDICTED BY IDOCK:   -7.69 KCAL/MOL
REMARK 924 INTRA-LIGAND FREE ENERGY PREDICTED BY IDOCK:   -0.59 KCAL/MOL
REMARK 927      BINDING AFFINITY PREDICTED BY RF-SCORE:    0.00 PKD
ROOT
HETATM    1  O   UNL     1     -12.722  10.578  70.921  1.00  0.00    -0.350 OA 
HETATM    2  C   UNL     1     -12.283  11.626  70.469  1.00  0.00    -0.361 C  
ENDROOT
BRANCH   2   3
HETATM    3  O   UNL     1     -11.401  11.746  69.441  1.00  0.00    -0.257 OA 
BRANCH   3   4
HETATM    4  O   UNL     1     -12.104  11.304  68.229  1.00  0.00    -0.619 OA 
BRANCH   4   5
HETATM    5  C   UNL     1     -11.176  11.242  67.236  1.00  0.00    -0.296 C  
HETATM    6  O   UNL     1     -10.160  10.564  67.231  1.00  0.00    -0.185 OA 
BRANCH   5   7
HETATM    7  C   UNL     1     -11.526  12.188  66.142  1.00  0.00    -0.429 A  
HETATM    8  C   UNL     1     -11.518  12.882  63.818  1.00  0.00    -0.519 A  
HETATM    9  C   UNL     1     -11.192  11.943  64.804  1.00  0.00    -0.356 A  
HETATM   10  C   UNL     1     -12.183  14.060  64.163  1.00  0.00    -0.433 A  
HETATM   11  C   UNL     1     -12.523  14.308  65.492  1.00  0.00    -0.434 A  
HETATM   12  C   UNL     1     -12.192  13.376  66.480  1.00  0.00    -0.414 A  
ENDBRANCH   5   7
ENDBRANCH   4   5
ENDBRANCH   3   4
ENDBRANCH   2   3
BRANCH   2  13
HETATM   13  C   UNL     1     -12.693  12.965  70.984  1.00  0.00    -0.338 A  
HETATM   14  C   UNL     1     -13.882  14.415  72.527  1.00  0.00    -0.559 A  
HETATM   15  C   UNL     1     -12.233  14.103  70.302  1.00  0.00    -0.416 A  
HETATM   16  C   UNL     1     -13.521  13.131  72.103  1.00  0.00    -0.653 A  
HETATM   17  C   UNL     1     -12.593  15.384  70.729  1.00  0.00    -0.497 A  
HETATM   18  C   UNL     1     -13.418  15.539  71.842  1.00  0.00    -0.576 A  
ENDBRANCH   2  13
TORSDOF 5
ENDMDL
MODEL       20
REMARK 921   NORMALIZED FREE ENERGY PREDICTED BY IDOCK:   -4.85 KCAL/MOL
REMARK 922        TOTAL FREE ENERGY PREDICTED BY IDOCK:   -8.27 KCAL/MOL
REMARK 923 INTER-LIGAND FREE ENERGY PREDICTED BY IDOCK:   -7.67 KCAL/MOL
REMARK 924 INTRA-LIGAND FREE ENERGY PREDICTED BY IDOCK:   -0.60 KCAL/MOL
REMARK 927      BINDING AFFINITY PREDICTED BY RF-SCORE:    0.00 PKD
ROOT
HETATM    1  O   UNL     1      -8.925  15.968  69.270  1.00  0.00    -0.244 OA 
HETATM    2  C   UNL     1      -9.720  16.267  68.390  1.00  0.00    -0.222 C  
ENDROOT
BRANCH   2   3
HETATM    3  O   UNL     1     -10.588  15.418  67.776  1.00  0.00    -0.261 OA 
BRANCH   3   4
HETATM    4  O   UNL     1     -11.862  15.521  68.500  1.00  0.00    -0.354 OA 
BRANCH   4   5
HETATM    5  C   UNL     1     -11.886  14.502  69.401  1.00  0.00    -0.325 C  
HETATM    6  O   UNL     1     -11.570  13.341  69.196  1.00  0.00    -0.279 OA 
BRANCH   5   7
HETATM    7  C   UNL     1     -12.431  14.978  70.702  1.00  0.00    -0.422 A  
HETATM    8  C   UNL     1     -14.226  15.242  72.311  1.00  0.00    -0.642 A  
HETATM    9  C   UNL     1     -13.756  14.744  71.090  1.00  0.00    -0.413 A  
HETATM   10  C   UNL     1     -13.375  15.965  73.149  1.00  0.00    -0.681 A  
HETATM   11  C   UNL     1     -12.053  16.198  72.771  1.00  0.00    -0.653 A  
HETATM   12  C   UNL     1     -11.583  15.710  71.549  1.00  0.00    -0.507 A  
ENDBRANCH   5   7
ENDBRANCH   4   5
ENDBRANCH   3   4
ENDBRANCH   2   3
BRANCH   2  13
HETATM   13  C   UNL     1      -9.873  17.658  67.874  1.00  0.00    -0.300 A  
HETATM   14  C   UNL     1     -10.373  19.274  66.132  1.00  0.00    -0.578 A  
HETATM   15  C   UNL     1      -9.598  18.720  68.750  1.00  0.00    -0.411 A  
HETATM   16  C   UNL     1     -10.263  17.945  66.559  1.00  0.00    -0.379 A  
HETATM   17  C   UNL     1      -9.711  20.045  68.322  1.00  0.00    -0.433 A  
HETATM   18  C   UNL     1     -10.098  20.321  67.012  1.00  0.00    -0.567 A  
ENDBRANCH   2  13
TORSDOF 5
ENDMDL
MODEL       21
REMARK 921   NORMALIZED FREE ENERGY PREDICTED BY IDOCK:   -4.81 KCAL/MOL
REMARK 922        TOTAL FREE ENERGY PREDICTED BY IDOCK:   -8.22 KCAL/MOL
REMARK 923 INTER-LIGAND FREE ENERGY PREDICTED BY IDOCK:   -6.44 KCAL/MOL
REMARK 924 INTRA-LIGAND FREE ENERGY PREDICTED BY IDOCK:   -1.78 KCAL/MOL
REMARK 927      BINDING AFFINITY PREDICTED BY RF-SCORE:    0.00 PKD
ROOT
HETATM    1  O   UNL     1     -11.306  16.597  64.256  1.00  0.00    -1.116 OA 
HETATM    2  C   UNL     1     -11.103  15.648  65.001  1.00  0.00    -0.389 C  
ENDROOT
BRANCH   2   3
HETATM    3  O   UNL     1     -10.762  15.723  66.316  1.00  0.00    -0.312 OA 
BRANCH   3   4
HETATM    4  O   UNL     1     -11.860  15.105  67.072  1.00  0.00    -0.209 OA 
BRANCH   4   5
HETATM    5  C   UNL     1     -11.323  14.634  68.230  1.00  0.00    -0.297 C  
HETATM    6  O   UNL     1     -11.193  15.251  69.276  1.00  0.00    -0.250 OA 
BRANCH   5   7
HETATM    7  C   UNL     1     -10.833  13.242  68.042  1.00  0.00    -0.261 A  
HETATM    8  C   UNL     1     -11.184  10.879  67.624  1.00  0.00    -0.379 A  
HETATM    9  C   UNL     1     -11.696  12.175  67.760  1.00  0.00    -0.390 A  
HETATM   10  C   UNL     1      -9.815  10.646  67.761  1.00  0.00    -0.187 A  
HETATM   11  C   UNL     1      -8.950  11.704  68.036  1.00  0.00    -0.176 A  
HETATM   12  C   UNL     1      -9.458  12.998  68.181  1.00  0.00    -0.218 A  
ENDBRANCH   5   7
ENDBRANCH   4   5
ENDBRANCH   3   4
ENDBRANCH   2   3
BRANCH   2  13
HETATM   13  C   UNL     1     -11.237  14.229  64.560  1.00  0.00    -0.331 A  
HETATM   14  C   UNL     1     -12.514  12.330  63.749  1.00  0.00    -0.619 A  
HETATM   15  C   UNL     1     -10.090  13.420  64.585  1.00  0.00    -0.256 A  
HETATM   16  C   UNL     1     -12.453  13.673  64.137  1.00  0.00    -0.292 A  
HETATM   17  C   UNL     1     -10.155  12.080  64.195  1.00  0.00    -0.340 A  
HETATM   18  C   UNL     1     -11.368  11.536  63.778  1.00  0.00    -0.420 A  
ENDBRANCH   2  13
TORSDOF 5
ENDMDL
MODEL       22
REMARK 921   NORMALIZED FREE ENERGY PREDICTED BY IDOCK:   -4.79 KCAL/MOL
REMARK 922        TOTAL FREE ENERGY PREDICTED BY IDOCK:   -8.20 KCAL/MOL
REMARK 923 INTER-LIGAND FREE ENERGY PREDICTED BY IDOCK:   -6.17 KCAL/MOL
REMARK 924 INTRA-LIGAND FREE ENERGY PREDICTED BY IDOCK:   -2.02 KCAL/MOL
REMARK 927      BINDING AFFINITY PREDICTED BY RF-SCORE:    0.00 PKD
ROOT
HETATM    1  O   UNL     1     -12.973  15.824  63.833  1.00  0.00    -0.463 OA 
HETATM    2  C   UNL     1     -11.883  15.634  64.354  1.00  0.00    -0.182 C  
ENDROOT
BRANCH   2   3
HETATM    3  O   UNL     1     -10.817  16.477  64.309  1.00  0.00    -0.729 OA 
BRANCH   3   4
HETATM    4  O   UNL     1     -11.111  17.580  65.233  1.00  0.00    -0.393 OA 
BRANCH   4   5
HETATM    5  C   UNL     1      -9.993  17.774  65.982  1.00  0.00    -0.209 C  
HETATM    6  O   UNL     1      -9.080  18.548  65.741  1.00  0.00    -0.418 OA 
BRANCH   5   7
HETATM    7  C   UNL     1      -9.983  16.844  67.144  1.00  0.00    -0.276 A  
HETATM    8  C   UNL     1      -9.061  14.984  68.397  1.00  0.00    -0.184 A  
HETATM    9  C   UNL     1      -9.005  15.854  67.302  1.00  0.00    -0.209 A  
HETATM   10  C   UNL     1     -10.085  15.104  69.338  1.00  0.00    -0.245 A  
HETATM   11  C   UNL     1     -11.059  16.090  69.189  1.00  0.00    -0.317 A  
HETATM   12  C   UNL     1     -11.011  16.955  68.093  1.00  0.00    -0.290 A  
ENDBRANCH   5   7
ENDBRANCH   4   5
ENDBRANCH   3   4
ENDBRANCH   2   3
BRANCH   2  13
HETATM   13  C   UNL     1     -11.576  14.420  65.167  1.00  0.00    -0.361 A  
HETATM   14  C   UNL     1     -11.982  12.896  67.012  1.00  0.00    -0.390 A  
HETATM   15  C   UNL     1     -10.469  13.641  64.795  1.00  0.00    -0.436 A  
HETATM   16  C   UNL     1     -12.332  14.038  66.283  1.00  0.00    -0.482 A  
HETATM   17  C   UNL     1     -10.123  12.500  65.523  1.00  0.00    -0.282 A  
HETATM   18  C   UNL     1     -10.881  12.129  66.633  1.00  0.00    -0.307 A  
ENDBRANCH   2  13
TORSDOF 5
ENDMDL
MODEL       23
REMARK 921   NORMALIZED FREE ENERGY PREDICTED BY IDOCK:   -4.78 KCAL/MOL
REMARK 922        TOTAL FREE ENERGY PREDICTED BY IDOCK:   -8.18 KCAL/MOL
REMARK 923 INTER-LIGAND FREE ENERGY PREDICTED BY IDOCK:   -7.68 KCAL/MOL
REMARK 924 INTRA-LIGAND FREE ENERGY PREDICTED BY IDOCK:   -0.50 KCAL/MOL
REMARK 927      BINDING AFFINITY PREDICTED BY RF-SCORE:    0.00 PKD
ROOT
HETATM    1  O   UNL     1     -13.213  13.996  65.232  1.00  0.00    -0.782 OA 
HETATM    2  C   UNL     1     -12.077  13.758  65.621  1.00  0.00    -0.418 C  
ENDROOT
BRANCH   2   3
HETATM    3  O   UNL     1     -11.385  14.472  66.549  1.00  0.00    -0.337 OA 
BRANCH   3   4
HETATM    4  O   UNL     1     -12.235  14.545  67.746  1.00  0.00    -0.287 OA 
BRANCH   4   5
HETATM    5  C   UNL     1     -11.436  14.272  68.812  1.00  0.00    -0.296 C  
HETATM    6  O   UNL     1     -10.237  14.042  68.784  1.00  0.00    -0.231 OA 
BRANCH   5   7
HETATM    7  C   UNL     1     -12.245  14.216  70.061  1.00  0.00    -0.418 A  
HETATM    8  C   UNL     1     -13.320  13.013  71.871  1.00  0.00    -0.539 A  
HETATM    9  C   UNL     1     -12.527  13.012  70.717  1.00  0.00    -0.384 A  
HETATM   10  C   UNL     1     -13.825  14.213  72.375  1.00  0.00    -0.638 A  
HETATM   11  C   UNL     1     -13.543  15.417  71.729  1.00  0.00    -0.596 A  
HETATM   12  C   UNL     1     -12.759  15.418  70.572  1.00  0.00    -0.455 A  
ENDBRANCH   5   7
ENDBRANCH   4   5
ENDBRANCH   3   4
ENDBRANCH   2   3
BRANCH   2  13
HETATM   13  C   UNL     1     -11.282  12.594  65.135  1.00  0.00    -0.336 A  
HETATM   14  C   UNL     1     -10.331  11.208  63.383  1.00  0.00    -0.419 A  
HETATM   15  C   UNL     1     -10.731  11.726  66.091  1.00  0.00    -0.320 A  
HETATM   16  C   UNL     1     -11.075  12.326  63.774  1.00  0.00    -0.507 A  
HETATM   17  C   UNL     1      -9.987  10.611  65.697  1.00  0.00    -0.327 A  
HETATM   18  C   UNL     1      -9.787  10.353  64.342  1.00  0.00    -0.395 A  
ENDBRANCH   2  13
TORSDOF 5
ENDMDL
MODEL       24
REMARK 921   NORMALIZED FREE ENERGY PREDICTED BY IDOCK:   -4.77 KCAL/MOL
REMARK 922        TOTAL FREE ENERGY PREDICTED BY IDOCK:   -8.17 KCAL/MOL
REMARK 923 INTER-LIGAND FREE ENERGY PREDICTED BY IDOCK:   -7.67 KCAL/MOL
REMARK 924 INTRA-LIGAND FREE ENERGY PREDICTED BY IDOCK:   -0.50 KCAL/MOL
REMARK 927      BINDING AFFINITY PREDICTED BY RF-SCORE:    0.00 PKD
ROOT
HETATM    1  O   UNL     1     -11.025  18.202  67.726  1.00  0.00    -0.315 OA 
HETATM    2  C   UNL     1     -10.083  18.441  66.984  1.00  0.00    -0.364 C  
ENDROOT
BRANCH   2   3
HETATM    3  O   UNL     1     -10.027  18.172  65.652  1.00  0.00    -0.514 OA 
BRANCH   3   4
HETATM    4  O   UNL     1      -9.759  16.733  65.522  1.00  0.00    -0.537 OA 
BRANCH   4   5
HETATM    5  C   UNL     1     -10.809  16.197  64.842  1.00  0.00    -0.334 C  
HETATM    6  O   UNL     1     -11.486  16.754  63.992  1.00  0.00    -1.198 OA 
BRANCH   5   7
HETATM    7  C   UNL     1     -11.087  14.818  65.328  1.00  0.00    -0.374 A  
HETATM    8  C   UNL     1     -11.355  13.175  67.092  1.00  0.00    -0.354 A  
HETATM    9  C   UNL     1     -11.120  14.496  66.690  1.00  0.00    -0.333 A  
HETATM   10  C   UNL     1     -11.565  12.178  66.138  1.00  0.00    -0.418 A  
HETATM   11  C   UNL     1     -11.538  12.493  64.779  1.00  0.00    -0.387 A  
HETATM   12  C   UNL     1     -11.296  13.808  64.375  1.00  0.00    -0.375 A  
ENDBRANCH   5   7
ENDBRANCH   4   5
ENDBRANCH   3   4
ENDBRANCH   2   3
BRANCH   2  13
HETATM   13  C   UNL     1      -8.834  19.112  67.450  1.00  0.00    -0.324 A  
HETATM   14  C   UNL     1      -7.092  19.535  69.087  1.00  0.00    -0.392 A  
HETATM   15  C   UNL     1      -8.227  20.043  66.594  1.00  0.00    -0.355 A  
HETATM   16  C   UNL     1      -8.257  18.861  68.703  1.00  0.00    -0.380 A  
HETATM   17  C   UNL     1      -7.062  20.712  66.980  1.00  0.00    -0.375 A  
HETATM   18  C   UNL     1      -6.496  20.458  68.227  1.00  0.00    -0.344 A  
ENDBRANCH   2  13
TORSDOF 5
ENDMDL
MODEL       25
REMARK 921   NORMALIZED FREE ENERGY PREDICTED BY IDOCK:   -4.77 KCAL/MOL
REMARK 922        TOTAL FREE ENERGY PREDICTED BY IDOCK:   -8.17 KCAL/MOL
REMARK 923 INTER-LIGAND FREE ENERGY PREDICTED BY IDOCK:   -7.02 KCAL/MOL
REMARK 924 INTRA-LIGAND FREE ENERGY PREDICTED BY IDOCK:   -1.14 KCAL/MOL
REMARK 927      BINDING AFFINITY PREDICTED BY RF-SCORE:    0.00 PKD
ROOT
HETATM    1  O   UNL     1     -11.300  16.921  64.109  1.00  0.00    -1.208 OA 
HETATM    2  C   UNL     1     -10.915  16.292  65.085  1.00  0.00    -0.274 C  
ENDROOT
BRANCH   2   3
HETATM    3  O   UNL     1     -10.266  16.808  66.163  1.00  0.00    -0.326 OA 
BRANCH   3   4
HETATM    4  O   UNL     1     -11.254  16.899  67.247  1.00  0.00    -0.001 OA 
BRANCH   4   5
HETATM    5  C   UNL     1     -10.559  16.866  68.416  1.00  0.00    -0.365 C  
HETATM    6  O   UNL     1      -9.574  17.530  68.697  1.00  0.00    -0.288 OA 
BRANCH   5   7
HETATM    7  C   UNL     1     -11.126  15.831  69.324  1.00  0.00    -0.297 A  
HETATM    8  C   UNL     1     -12.124  13.663  69.750  1.00  0.00    -0.396 A  
HETATM    9  C   UNL     1     -11.569  14.587  68.857  1.00  0.00    -0.341 A  
HETATM   10  C   UNL     1     -12.231  13.973  71.107  1.00  0.00    -0.417 A  
HETATM   11  C   UNL     1     -11.787  15.208  71.579  1.00  0.00    -0.436 A  
HETATM   12  C   UNL     1     -11.240  16.136  70.689  1.00  0.00    -0.371 A  
ENDBRANCH   5   7
ENDBRANCH   4   5
ENDBRANCH   3   4
ENDBRANCH   2   3
BRANCH   2  13
HETATM   13  C   UNL     1     -11.141  14.826  65.244  1.00  0.00    -0.374 A  
HETATM   14  C   UNL     1     -12.549  12.848  65.272  1.00  0.00    -0.502 A  
HETATM   15  C   UNL     1     -10.039  14.020  65.570  1.00  0.00    -0.343 A  
HETATM   16  C   UNL     1     -12.400  14.228  65.095  1.00  0.00    -0.427 A  
HETATM   17  C   UNL     1     -10.190  12.642  65.744  1.00  0.00    -0.288 A  
HETATM   18  C   UNL     1     -11.446  12.057  65.595  1.00  0.00    -0.372 A  
ENDBRANCH   2  13
TORSDOF 5
ENDMDL
MODEL       26
REMARK 921   NORMALIZED FREE ENERGY PREDICTED BY IDOCK:   -4.77 KCAL/MOL
REMARK 922        TOTAL FREE ENERGY PREDICTED BY IDOCK:   -8.16 KCAL/MOL
REMARK 923 INTER-LIGAND FREE ENERGY PREDICTED BY IDOCK:   -7.09 KCAL/MOL
REMARK 924 INTRA-LIGAND FREE ENERGY PREDICTED BY IDOCK:   -1.07 KCAL/MOL
REMARK 927      BINDING AFFINITY PREDICTED BY RF-SCORE:    0.00 PKD
ROOT
HETATM    1  O   UNL     1     -11.064  17.125  64.476  1.00  0.00    -1.105 OA 
HETATM    2  C   UNL     1     -10.512  16.710  65.486  1.00  0.00    -0.267 C  
ENDROOT
BRANCH   2   3
HETATM    3  O   UNL     1     -10.255  15.406  65.778  1.00  0.00    -0.301 OA 
BRANCH   3   4
HETATM    4  O   UNL     1     -11.383  14.924  66.586  1.00  0.00    -0.349 OA 
BRANCH   4   5
HETATM    5  C   UNL     1     -10.875  14.032  67.478  1.00  0.00    -0.270 C  
HETATM    6  O   UNL     1     -10.207  13.043  67.219  1.00  0.00    -0.235 OA 
BRANCH   5   7
HETATM    7  C   UNL     1     -11.307  14.380  68.859  1.00  0.00    -0.300 A  
HETATM    8  C   UNL     1     -11.417  15.882  70.760  1.00  0.00    -0.437 A  
HETATM    9  C   UNL     1     -11.014  15.618  69.445  1.00  0.00    -0.283 A  
HETATM   10  C   UNL     1     -12.117  14.918  71.487  1.00  0.00    -0.406 A  
HETATM   11  C   UNL     1     -12.417  13.686  70.907  1.00  0.00    -0.448 A  
HETATM   12  C   UNL     1     -12.009  13.416  69.598  1.00  0.00    -0.386 A  
ENDBRANCH   5   7
ENDBRANCH   4   5
ENDBRANCH   3   4
ENDBRANCH   2   3
BRANCH   2  13
HETATM   13  C   UNL     1     -10.000  17.613  66.558  1.00  0.00    -0.332 A  
HETATM   14  C   UNL     1      -8.375  18.264  68.240  1.00  0.00    -0.316 A  
HETATM   15  C   UNL     1     -10.778  18.728  66.908  1.00  0.00    -0.406 A  
HETATM   16  C   UNL     1      -8.792  17.387  67.232  1.00  0.00    -0.238 A  
HETATM   17  C   UNL     1     -10.357  19.603  67.913  1.00  0.00    -0.583 A  
HETATM   18  C   UNL     1      -9.155  19.370  68.578  1.00  0.00    -0.426 A  
ENDBRANCH   2  13
TORSDOF 5
ENDMDL
MODEL       27
REMARK 921   NORMALIZED FREE ENERGY PREDICTED BY IDOCK:   -4.76 KCAL/MOL
REMARK 922        TOTAL FREE ENERGY PREDICTED BY IDOCK:   -8.16 KCAL/MOL
REMARK 923 INTER-LIGAND FREE ENERGY PREDICTED BY IDOCK:   -7.74 KCAL/MOL
REMARK 924 INTRA-LIGAND FREE ENERGY PREDICTED BY IDOCK:   -0.41 KCAL/MOL
REMARK 927      BINDING AFFINITY PREDICTED BY RF-SCORE:    0.00 PKD
ROOT
HETATM    1  O   UNL     1     -11.259  16.819  64.305  1.00  0.00    -1.163 OA 
HETATM    2  C   UNL     1     -10.766  16.526  65.386  1.00  0.00    -0.259 C  
ENDROOT
BRANCH   2   3
HETATM    3  O   UNL     1     -10.507  15.267  65.831  1.00  0.00    -0.294 OA 
BRANCH   3   4
HETATM    4  O   UNL     1     -11.695  14.831  66.577  1.00  0.00    -0.350 OA 
BRANCH   4   5
HETATM    5  C   UNL     1     -12.325  13.904  65.805  1.00  0.00    -0.486 C  
HETATM    6  O   UNL     1     -13.402  14.035  65.244  1.00  0.00    -0.741 OA 
BRANCH   5   7
HETATM    7  C   UNL     1     -11.546  12.637  65.781  1.00  0.00    -0.431 A  
HETATM    8  C   UNL     1     -10.410  10.835  64.621  1.00  0.00    -0.394 A  
HETATM    9  C   UNL     1     -11.113  12.046  64.588  1.00  0.00    -0.375 A  
HETATM   10  C   UNL     1     -10.132  10.218  65.841  1.00  0.00    -0.319 A  
HETATM   11  C   UNL     1     -10.555  10.804  67.034  1.00  0.00    -0.312 A  
HETATM   12  C   UNL     1     -11.265  12.008  67.004  1.00  0.00    -0.377 A  
ENDBRANCH   5   7
ENDBRANCH   4   5
ENDBRANCH   3   4
ENDBRANCH   2   3
BRANCH   2  13
HETATM   13  C   UNL     1     -10.337  17.549  66.384  1.00  0.00    -0.334 A  
HETATM   14  C   UNL     1     -10.242  19.815  67.250  1.00  0.00    -0.570 A  
HETATM   15  C   UNL     1      -9.534  17.128  67.456  1.00  0.00    -0.247 A  
HETATM   16  C   UNL     1     -10.689  18.902  66.288  1.00  0.00    -0.363 A  
HETATM   17  C   UNL     1      -9.091  18.041  68.416  1.00  0.00    -0.293 A  
HETATM   18  C   UNL     1      -9.445  19.384  68.312  1.00  0.00    -0.433 A  
ENDBRANCH   2  13
TORSDOF 5
ENDMDL
MODEL       28
REMARK 921   NORMALIZED FREE ENERGY PREDICTED BY IDOCK:   -4.76 KCAL/MOL
REMARK 922        TOTAL FREE ENERGY PREDICTED BY IDOCK:   -8.15 KCAL/MOL
REMARK 923 INTER-LIGAND FREE ENERGY PREDICTED BY IDOCK:   -7.71 KCAL/MOL
REMARK 924 INTRA-LIGAND FREE ENERGY PREDICTED BY IDOCK:   -0.44 KCAL/MOL
REMARK 927      BINDING AFFINITY PREDICTED BY RF-SCORE:    0.00 PKD
ROOT
HETATM    1  O   UNL     1     -11.343  16.947  64.092  1.00  0.00    -1.208 OA 
HETATM    2  C   UNL     1     -10.707  16.297  64.909  1.00  0.00    -0.234 C  
ENDROOT
BRANCH   2   3
HETATM    3  O   UNL     1      -9.666  16.752  65.657  1.00  0.00    -0.539 OA 
BRANCH   3   4
HETATM    4  O   UNL     1      -9.848  18.203  65.794  1.00  0.00    -0.527 OA 
BRANCH   4   5
HETATM    5  C   UNL     1      -9.933  18.465  67.126  1.00  0.00    -0.337 C  
HETATM    6  O   UNL     1     -10.879  18.217  67.858  1.00  0.00    -0.363 OA 
BRANCH   5   7
HETATM    7  C   UNL     1      -8.714  19.181  67.590  1.00  0.00    -0.329 A  
HETATM    8  C   UNL     1      -6.855  19.489  69.117  1.00  0.00    -0.381 A  
HETATM    9  C   UNL     1      -7.977  18.760  68.704  1.00  0.00    -0.369 A  
HETATM   10  C   UNL     1      -6.463  20.632  68.417  1.00  0.00    -0.303 A  
HETATM   11  C   UNL     1      -7.190  21.054  67.304  1.00  0.00    -0.363 A  
HETATM   12  C   UNL     1      -8.315  20.333  66.894  1.00  0.00    -0.348 A  
ENDBRANCH   5   7
ENDBRANCH   4   5
ENDBRANCH   3   4
ENDBRANCH   2   3
BRANCH   2  13
HETATM   13  C   UNL     1     -11.018  14.873  65.230  1.00  0.00    -0.389 A  
HETATM   14  C   UNL     1     -12.290  12.824  64.950  1.00  0.00    -0.551 A  
HETATM   15  C   UNL     1     -10.257  14.240  66.225  1.00  0.00    -0.307 A  
HETATM   16  C   UNL     1     -12.038  14.153  64.593  1.00  0.00    -0.469 A  
HETATM   17  C   UNL     1     -10.509  12.912  66.578  1.00  0.00    -0.275 A  
HETATM   18  C   UNL     1     -11.526  12.205  65.940  1.00  0.00    -0.418 A  
ENDBRANCH   2  13
TORSDOF 5
ENDMDL
MODEL       29
REMARK 921   NORMALIZED FREE ENERGY PREDICTED BY IDOCK:   -4.76 KCAL/MOL
REMARK 922        TOTAL FREE ENERGY PREDICTED BY IDOCK:   -8.15 KCAL/MOL
REMARK 923 INTER-LIGAND FREE ENERGY PREDICTED BY IDOCK:   -7.74 KCAL/MOL
REMARK 924 INTRA-LIGAND FREE ENERGY PREDICTED BY IDOCK:   -0.40 KCAL/MOL
REMARK 927      BINDING AFFINITY PREDICTED BY RF-SCORE:    0.00 PKD
ROOT
HETATM    1  O   UNL     1     -13.143  13.967  65.180  1.00  0.00    -0.773 OA 
HETATM    2  C   UNL     1     -12.037  13.685  65.619  1.00  0.00    -0.425 C  
ENDROOT
BRANCH   2   3
HETATM    3  O   UNL     1     -11.376  14.351  66.604  1.00  0.00    -0.332 OA 
BRANCH   3   4
HETATM    4  O   UNL     1     -12.244  14.322  67.789  1.00  0.00    -0.325 OA 
BRANCH   4   5
HETATM    5  C   UNL     1     -11.432  14.440  68.874  1.00  0.00    -0.289 C  
HETATM    6  O   UNL     1     -10.219  14.583  68.864  1.00  0.00    -0.231 OA 
BRANCH   5   7
HETATM    7  C   UNL     1     -12.223  14.299  70.127  1.00  0.00    -0.407 A  
HETATM    8  C   UNL     1     -13.252  12.976  71.880  1.00  0.00    -0.527 A  
HETATM    9  C   UNL     1     -12.475  13.054  70.718  1.00  0.00    -0.384 A  
HETATM   10  C   UNL     1     -13.772  14.136  72.457  1.00  0.00    -0.626 A  
HETATM   11  C   UNL     1     -13.520  15.379  71.876  1.00  0.00    -0.571 A  
HETATM   12  C   UNL     1     -12.752  15.460  70.712  1.00  0.00    -0.516 A  
ENDBRANCH   5   7
ENDBRANCH   4   5
ENDBRANCH   3   4
ENDBRANCH   2   3
BRANCH   2  13
HETATM   13  C   UNL     1     -11.248  12.514  65.138  1.00  0.00    -0.342 A  
HETATM   14  C   UNL     1     -10.028  10.443  65.481  1.00  0.00    -0.348 A  
HETATM   15  C   UNL     1     -10.963  12.430  63.766  1.00  0.00    -0.501 A  
HETATM   16  C   UNL     1     -10.775  11.510  65.994  1.00  0.00    -0.332 A  
HETATM   17  C   UNL     1     -10.219  11.363  63.256  1.00  0.00    -0.430 A  
HETATM   18  C   UNL     1      -9.751  10.370  64.115  1.00  0.00    -0.387 A  
ENDBRANCH   2  13
TORSDOF 5
ENDMDL
MODEL       30
REMARK 921   NORMALIZED FREE ENERGY PREDICTED BY IDOCK:   -4.71 KCAL/MOL
REMARK 922        TOTAL FREE ENERGY PREDICTED BY IDOCK:   -8.08 KCAL/MOL
REMARK 923 INTER-LIGAND FREE ENERGY PREDICTED BY IDOCK:   -7.64 KCAL/MOL
REMARK 924 INTRA-LIGAND FREE ENERGY PREDICTED BY IDOCK:   -0.44 KCAL/MOL
REMARK 927      BINDING AFFINITY PREDICTED BY RF-SCORE:    0.00 PKD
ROOT
HETATM    1  O   UNL     1     -12.106  13.196  69.041  1.00  0.00    -0.291 OA 
HETATM    2  C   UNL     1     -12.002  14.379  69.332  1.00  0.00    -0.328 C  
ENDROOT
BRANCH   2   3
HETATM    3  O   UNL     1     -11.534  15.364  68.518  1.00  0.00    -0.317 OA 
BRANCH   3   4
HETATM    4  O   UNL     1     -10.454  14.772  67.717  1.00  0.00    -0.250 OA 
BRANCH   4   5
HETATM    5  C   UNL     1     -10.606  15.236  66.448  1.00  0.00    -0.308 C  
HETATM    6  O   UNL     1     -10.451  16.387  66.070  1.00  0.00    -0.329 OA 
BRANCH   5   7
HETATM    7  C   UNL     1     -11.069  14.142  65.551  1.00  0.00    -0.310 A  
HETATM    8  C   UNL     1     -10.714  12.515  63.789  1.00  0.00    -0.483 A  
HETATM    9  C   UNL     1     -10.218  13.517  64.631  1.00  0.00    -0.341 A  
HETATM   10  C   UNL     1     -12.053  12.130  63.867  1.00  0.00    -0.584 A  
HETATM   11  C   UNL     1     -12.905  12.745  64.785  1.00  0.00    -0.374 A  
HETATM   12  C   UNL     1     -12.415  13.751  65.621  1.00  0.00    -0.541 A  
ENDBRANCH   5   7
ENDBRANCH   4   5
ENDBRANCH   3   4
ENDBRANCH   2   3
BRANCH   2  13
HETATM   13  C   UNL     1     -12.418  14.928  70.656  1.00  0.00    -0.411 A  
HETATM   14  C   UNL     1     -11.957  15.901  72.832  1.00  0.00    -0.609 A  
HETATM   15  C   UNL     1     -13.788  14.941  70.963  1.00  0.00    -0.332 A  
HETATM   16  C   UNL     1     -11.504  15.413  71.601  1.00  0.00    -0.492 A  
HETATM   17  C   UNL     1     -14.238  15.431  72.192  1.00  0.00    -0.660 A  
HETATM   18  C   UNL     1     -13.321  15.911  73.126  1.00  0.00    -0.681 A  
ENDBRANCH   2  13
TORSDOF 5
ENDMDL
MODEL       31
REMARK 921   NORMALIZED FREE ENERGY PREDICTED BY IDOCK:   -4.69 KCAL/MOL
REMARK 922        TOTAL FREE ENERGY PREDICTED BY IDOCK:   -8.07 KCAL/MOL
REMARK 923 INTER-LIGAND FREE ENERGY PREDICTED BY IDOCK:   -7.66 KCAL/MOL
REMARK 924 INTRA-LIGAND FREE ENERGY PREDICTED BY IDOCK:   -0.41 KCAL/MOL
REMARK 927      BINDING AFFINITY PREDICTED BY RF-SCORE:    0.00 PKD
ROOT
HETATM    1  O   UNL     1     -10.132  14.394  68.966  1.00  0.00    -0.221 OA 
HETATM    2  C   UNL     1     -11.353  14.442  68.895  1.00  0.00    -0.274 C  
ENDROOT
BRANCH   2   3
HETATM    3  O   UNL     1     -12.082  14.588  67.756  1.00  0.00    -0.338 OA 
BRANCH   3   4
HETATM    4  O   UNL     1     -12.248  13.244  67.186  1.00  0.00    -0.335 OA 
BRANCH   4   5
HETATM    5  C   UNL     1     -12.245  13.388  65.833  1.00  0.00    -0.450 C  
HETATM    6  O   UNL     1     -12.933  14.158  65.181  1.00  0.00    -0.729 OA 
BRANCH   5   7
HETATM    7  C   UNL     1     -11.314  12.406  65.213  1.00  0.00    -0.374 A  
HETATM    8  C   UNL     1      -9.863  10.465  65.309  1.00  0.00    -0.361 A  
HETATM    9  C   UNL     1     -10.759  11.341  65.933  1.00  0.00    -0.291 A  
HETATM   10  C   UNL     1      -9.526  10.645  63.966  1.00  0.00    -0.329 A  
HETATM   11  C   UNL     1     -10.079  11.700  63.241  1.00  0.00    -0.454 A  
HETATM   12  C   UNL     1     -10.967  12.581  63.864  1.00  0.00    -0.471 A  
ENDBRANCH   5   7
ENDBRANCH   4   5
ENDBRANCH   3   4
ENDBRANCH   2   3
BRANCH   2  13
HETATM   13  C   UNL     1     -12.239  14.312  70.088  1.00  0.00    -0.407 A  
HETATM   14  C   UNL     1     -13.703  15.217  71.800  1.00  0.00    -0.605 A  
HETATM   15  C   UNL     1     -12.403  13.037  70.651  1.00  0.00    -0.391 A  
HETATM   16  C   UNL     1     -12.897  15.404  70.671  1.00  0.00    -0.484 A  
HETATM   17  C   UNL     1     -13.211  12.854  71.776  1.00  0.00    -0.479 A  
HETATM   18  C   UNL     1     -13.860  13.945  72.350  1.00  0.00    -0.668 A  
ENDBRANCH   2  13
TORSDOF 5
ENDMDL
MODEL       32
REMARK 921   NORMALIZED FREE ENERGY PREDICTED BY IDOCK:   -4.69 KCAL/MOL
REMARK 922        TOTAL FREE ENERGY PREDICTED BY IDOCK:   -8.06 KCAL/MOL
REMARK 923 INTER-LIGAND FREE ENERGY PREDICTED BY IDOCK:   -6.94 KCAL/MOL
REMARK 924 INTRA-LIGAND FREE ENERGY PREDICTED BY IDOCK:   -1.12 KCAL/MOL
REMARK 927      BINDING AFFINITY PREDICTED BY RF-SCORE:    0.00 PKD
ROOT
HETATM    1  O   UNL     1     -13.139  15.658  71.106  1.00  0.00    -0.496 OA 
HETATM    2  C   UNL     1     -12.365  14.883  70.562  1.00  0.00    -0.342 C  
ENDROOT
BRANCH   2   3
HETATM    3  O   UNL     1     -11.311  15.228  69.775  1.00  0.00    -0.250 OA 
BRANCH   3   4
HETATM    4  O   UNL     1     -11.863  15.957  68.625  1.00  0.00    -0.388 OA 
BRANCH   4   5
HETATM    5  C   UNL     1     -10.927  15.904  67.639  1.00  0.00    -0.298 C  
HETATM    6  O   UNL     1     -10.172  16.802  67.303  1.00  0.00    -0.280 OA 
BRANCH   5   7
HETATM    7  C   UNL     1     -10.983  14.588  66.946  1.00  0.00    -0.316 A  
HETATM    8  C   UNL     1      -9.964  12.540  66.141  1.00  0.00    -0.267 A  
HETATM    9  C   UNL     1      -9.864  13.754  66.831  1.00  0.00    -0.264 A  
HETATM   10  C   UNL     1     -11.179  12.153  65.572  1.00  0.00    -0.381 A  
HETATM   11  C   UNL     1     -12.298  12.977  65.688  1.00  0.00    -0.504 A  
HETATM   12  C   UNL     1     -12.200  14.193  66.369  1.00  0.00    -0.473 A  
ENDBRANCH   5   7
ENDBRANCH   4   5
ENDBRANCH   3   4
ENDBRANCH   2   3
BRANCH   2  13
HETATM   13  C   UNL     1     -12.457  13.402  70.720  1.00  0.00    -0.418 A  
HETATM   14  C   UNL     1     -13.174  11.394  71.882  1.00  0.00    -0.485 A  
HETATM   15  C   UNL     1     -11.820  12.596  69.764  1.00  0.00    -0.379 A  
HETATM   16  C   UNL     1     -13.137  12.790  71.782  1.00  0.00    -0.455 A  
HETATM   17  C   UNL     1     -11.861  11.203  69.864  1.00  0.00    -0.439 A  
HETATM   18  C   UNL     1     -12.538  10.603  70.924  1.00  0.00    -0.503 A  
ENDBRANCH   2  13
TORSDOF 5
ENDMDL
MODEL       33
REMARK 921   NORMALIZED FREE ENERGY PREDICTED BY IDOCK:   -4.67 KCAL/MOL
REMARK 922        TOTAL FREE ENERGY PREDICTED BY IDOCK:   -8.04 KCAL/MOL
REMARK 923 INTER-LIGAND FREE ENERGY PREDICTED BY IDOCK:   -7.32 KCAL/MOL
REMARK 924 INTRA-LIGAND FREE ENERGY PREDICTED BY IDOCK:   -0.72 KCAL/MOL
REMARK 927      BINDING AFFINITY PREDICTED BY RF-SCORE:    0.00 PKD
ROOT
HETATM    1  O   UNL     1     -13.114  14.226  64.941  1.00  0.00    -0.645 OA 
HETATM    2  C   UNL     1     -12.025  13.992  65.446  1.00  0.00    -0.380 C  
ENDROOT
BRANCH   2   3
HETATM    3  O   UNL     1     -10.813  14.276  64.898  1.00  0.00    -0.373 OA 
BRANCH   3   4
HETATM    4  O   UNL     1     -10.664  15.737  64.936  1.00  0.00    -0.456 OA 
BRANCH   4   5
HETATM    5  C   UNL     1      -9.683  16.009  65.837  1.00  0.00    -0.343 C  
HETATM    6  O   UNL     1      -8.726  15.301  66.109  1.00  0.00    -0.245 OA 
BRANCH   5   7
HETATM    7  C   UNL     1      -9.963  17.296  66.531  1.00  0.00    -0.310 A  
HETATM    8  C   UNL     1     -10.658  19.619  66.549  1.00  0.00    -0.591 A  
HETATM    9  C   UNL     1     -10.441  18.424  65.853  1.00  0.00    -0.346 A  
HETATM   10  C   UNL     1     -10.406  19.689  67.920  1.00  0.00    -0.583 A  
HETATM   11  C   UNL     1      -9.935  18.567  68.603  1.00  0.00    -0.419 A  
HETATM   12  C   UNL     1      -9.710  17.375  67.910  1.00  0.00    -0.272 A  
ENDBRANCH   5   7
ENDBRANCH   4   5
ENDBRANCH   3   4
ENDBRANCH   2   3
BRANCH   2  13
HETATM   13  C   UNL     1     -11.874  13.369  66.793  1.00  0.00    -0.452 A  
HETATM   14  C   UNL     1     -11.525  11.474  68.270  1.00  0.00    -0.368 A  
HETATM   15  C   UNL     1     -11.985  14.199  67.920  1.00  0.00    -0.378 A  
HETATM   16  C   UNL     1     -11.642  11.999  66.978  1.00  0.00    -0.387 A  
HETATM   17  C   UNL     1     -11.865  13.672  69.208  1.00  0.00    -0.395 A  
HETATM   18  C   UNL     1     -11.635  12.309  69.382  1.00  0.00    -0.378 A  
ENDBRANCH   2  13
TORSDOF 5
ENDMDL
MODEL       34
REMARK 921   NORMALIZED FREE ENERGY PREDICTED BY IDOCK:   -4.67 KCAL/MOL
REMARK 922        TOTAL FREE ENERGY PREDICTED BY IDOCK:   -8.04 KCAL/MOL
REMARK 923 INTER-LIGAND FREE ENERGY PREDICTED BY IDOCK:   -7.52 KCAL/MOL
REMARK 924 INTRA-LIGAND FREE ENERGY PREDICTED BY IDOCK:   -0.52 KCAL/MOL
REMARK 927      BINDING AFFINITY PREDICTED BY RF-SCORE:    0.00 PKD
ROOT
HETATM    1  O   UNL     1     -10.063  15.897  66.202  1.00  0.00    -0.275 OA 
HETATM    2  C   UNL     1     -10.963  15.085  66.365  1.00  0.00    -0.336 C  
ENDROOT
BRANCH   2   3
HETATM    3  O   UNL     1     -11.838  15.061  67.406  1.00  0.00    -0.309 OA 
BRANCH   3   4
HETATM    4  O   UNL     1     -11.056  14.734  68.607  1.00  0.00    -0.242 OA 
BRANCH   4   5
HETATM    5  C   UNL     1     -11.723  13.738  69.251  1.00  0.00    -0.327 C  
HETATM    6  O   UNL     1     -11.988  12.633  68.805  1.00  0.00    -0.307 OA 
BRANCH   5   7
HETATM    7  C   UNL     1     -12.168  14.201  70.594  1.00  0.00    -0.432 A  
HETATM    8  C   UNL     1     -13.382  13.908  72.672  1.00  0.00    -0.640 A  
HETATM    9  C   UNL     1     -12.965  13.411  71.432  1.00  0.00    -0.412 A  
HETATM   10  C   UNL     1     -12.999  15.186  73.082  1.00  0.00    -0.627 A  
HETATM   11  C   UNL     1     -12.201  15.976  72.254  1.00  0.00    -0.604 A  
HETATM   12  C   UNL     1     -11.790  15.486  71.012  1.00  0.00    -0.427 A  
ENDBRANCH   5   7
ENDBRANCH   4   5
ENDBRANCH   3   4
ENDBRANCH   2   3
BRANCH   2  13
HETATM   13  C   UNL     1     -11.253  13.991  65.392  1.00  0.00    -0.319 A  
HETATM   14  C   UNL     1     -10.615  12.424  63.652  1.00  0.00    -0.481 A  
HETATM   15  C   UNL     1     -12.569  13.510  65.314  1.00  0.00    -0.517 A  
HETATM   16  C   UNL     1     -10.275  13.439  64.553  1.00  0.00    -0.321 A  
HETATM   17  C   UNL     1     -12.905  12.495  64.414  1.00  0.00    -0.366 A  
HETATM   18  C   UNL     1     -11.927  11.953  63.583  1.00  0.00    -0.578 A  
ENDBRANCH   2  13
TORSDOF 5
ENDMDL
MODEL       35
REMARK 921   NORMALIZED FREE ENERGY PREDICTED BY IDOCK:   -4.66 KCAL/MOL
REMARK 922        TOTAL FREE ENERGY PREDICTED BY IDOCK:   -8.03 KCAL/MOL
REMARK 923 INTER-LIGAND FREE ENERGY PREDICTED BY IDOCK:   -7.50 KCAL/MOL
REMARK 924 INTRA-LIGAND FREE ENERGY PREDICTED BY IDOCK:   -0.52 KCAL/MOL
REMARK 927      BINDING AFFINITY PREDICTED BY RF-SCORE:    0.00 PKD
ROOT
HETATM    1  O   UNL     1      -9.057  15.338  65.941  1.00  0.00    -0.291 OA 
HETATM    2  C   UNL     1      -9.974  16.135  65.801  1.00  0.00    -0.340 C  
ENDROOT
BRANCH   2   3
HETATM    3  O   UNL     1     -11.008  16.019  64.924  1.00  0.00    -0.472 OA 
BRANCH   3   4
HETATM    4  O   UNL     1     -11.870  14.941  65.429  1.00  0.00    -0.299 OA 
BRANCH   4   5
HETATM    5  C   UNL     1     -12.039  14.061  64.405  1.00  0.00    -0.458 C  
HETATM    6  O   UNL     1     -12.732  14.223  63.413  1.00  0.00    -0.733 OA 
BRANCH   5   7
HETATM    7  C   UNL     1     -11.301  12.799  64.684  1.00  0.00    -0.362 A  
HETATM    8  C   UNL     1      -9.877  10.952  64.019  1.00  0.00    -0.377 A  
HETATM    9  C   UNL     1     -10.525  12.155  63.712  1.00  0.00    -0.470 A  
HETATM   10  C   UNL     1      -9.995  10.395  65.293  1.00  0.00    -0.376 A  
HETATM   11  C   UNL     1     -10.763  11.034  66.267  1.00  0.00    -0.273 A  
HETATM   12  C   UNL     1     -11.417  12.230  65.962  1.00  0.00    -0.434 A  
ENDBRANCH   5   7
ENDBRANCH   4   5
ENDBRANCH   3   4
ENDBRANCH   2   3
BRANCH   2  13
HETATM   13  C   UNL     1     -10.103  17.373  66.624  1.00  0.00    -0.317 A  
HETATM   14  C   UNL     1     -10.134  18.569  68.736  1.00  0.00    -0.394 A  
HETATM   15  C   UNL     1     -10.363  18.583  65.960  1.00  0.00    -0.423 A  
HETATM   16  C   UNL     1      -9.988  17.375  68.021  1.00  0.00    -0.302 A  
HETATM   17  C   UNL     1     -10.506  19.773  66.677  1.00  0.00    -0.615 A  
HETATM   18  C   UNL     1     -10.392  19.765  68.065  1.00  0.00    -0.567 A  
ENDBRANCH   2  13
TORSDOF 5
ENDMDL
MODEL       36
REMARK 921   NORMALIZED FREE ENERGY PREDICTED BY IDOCK:   -4.66 KCAL/MOL
REMARK 922        TOTAL FREE ENERGY PREDICTED BY IDOCK:   -8.02 KCAL/MOL
REMARK 923 INTER-LIGAND FREE ENERGY PREDICTED BY IDOCK:   -7.04 KCAL/MOL
REMARK 924 INTRA-LIGAND FREE ENERGY PREDICTED BY IDOCK:   -0.98 KCAL/MOL
REMARK 927      BINDING AFFINITY PREDICTED BY RF-SCORE:    0.00 PKD
ROOT
HETATM    1  O   UNL     1     -10.612  15.860  68.813  1.00  0.00    -0.225 OA 
HETATM    2  C   UNL     1     -11.289  15.029  68.224  1.00  0.00    -0.318 C  
ENDROOT
BRANCH   2   3
HETATM    3  O   UNL     1     -11.847  15.179  66.993  1.00  0.00    -0.209 OA 
BRANCH   3   4
HETATM    4  O   UNL     1     -10.870  15.910  66.174  1.00  0.00    -0.296 OA 
BRANCH   4   5
HETATM    5  C   UNL     1     -11.212  15.701  64.874  1.00  0.00    -0.369 C  
HETATM    6  O   UNL     1     -11.596  16.543  64.077  1.00  0.00    -1.154 OA 
BRANCH   5   7
HETATM    7  C   UNL     1     -11.125  14.252  64.545  1.00  0.00    -0.321 A  
HETATM    8  C   UNL     1      -9.895  12.176  64.298  1.00  0.00    -0.174 A  
HETATM    9  C   UNL     1      -9.929  13.531  64.651  1.00  0.00    -0.112 A  
HETATM   10  C   UNL     1     -11.052  11.539  63.847  1.00  0.00    -0.458 A  
HETATM   11  C   UNL     1     -12.247  12.250  63.743  1.00  0.00    -0.642 A  
HETATM   12  C   UNL     1     -12.283  13.604  64.087  1.00  0.00    -0.450 A  
ENDBRANCH   5   7
ENDBRANCH   4   5
ENDBRANCH   3   4
ENDBRANCH   2   3
BRANCH   2  13
HETATM   13  C   UNL     1     -11.579  13.677  68.785  1.00  0.00    -0.359 A  
HETATM   14  C   UNL     1     -12.284  12.182  70.563  1.00  0.00    -0.392 A  
HETATM   15  C   UNL     1     -11.360  12.561  67.962  1.00  0.00    -0.339 A  
HETATM   16  C   UNL     1     -12.045  13.477  70.092  1.00  0.00    -0.425 A  
HETATM   17  C   UNL     1     -11.602  11.268  68.435  1.00  0.00    -0.378 A  
HETATM   18  C   UNL     1     -12.064  11.080  69.736  1.00  0.00    -0.424 A  
ENDBRANCH   2  13
TORSDOF 5
ENDMDL
MODEL       37
REMARK 921   NORMALIZED FREE ENERGY PREDICTED BY IDOCK:   -4.65 KCAL/MOL
REMARK 922        TOTAL FREE ENERGY PREDICTED BY IDOCK:   -8.01 KCAL/MOL
REMARK 923 INTER-LIGAND FREE ENERGY PREDICTED BY IDOCK:   -7.35 KCAL/MOL
REMARK 924 INTRA-LIGAND FREE ENERGY PREDICTED BY IDOCK:   -0.66 KCAL/MOL
REMARK 927      BINDING AFFINITY PREDICTED BY RF-SCORE:    0.00 PKD
ROOT
HETATM    1  O   UNL     1     -10.471  14.880  69.172  1.00  0.00    -0.233 OA 
HETATM    2  C   UNL     1     -11.514  14.270  68.984  1.00  0.00    -0.284 C  
ENDROOT
BRANCH   2   3
HETATM    3  O   UNL     1     -12.337  14.405  67.910  1.00  0.00    -0.220 OA 
BRANCH   3   4
HETATM    4  O   UNL     1     -11.473  14.477  66.723  1.00  0.00    -0.345 OA 
BRANCH   4   5
HETATM    5  C   UNL     1     -12.127  13.831  65.721  1.00  0.00    -0.429 C  
HETATM    6  O   UNL     1     -13.240  14.092  65.292  1.00  0.00    -0.782 OA 
BRANCH   5   7
HETATM    7  C   UNL     1     -11.319  12.679  65.236  1.00  0.00    -0.350 A  
HETATM    8  C   UNL     1     -10.462  11.246  63.478  1.00  0.00    -0.457 A  
HETATM    9  C   UNL     1     -11.210  12.360  63.877  1.00  0.00    -0.487 A  
HETATM   10  C   UNL     1      -9.818  10.454  64.430  1.00  0.00    -0.395 A  
HETATM   11  C   UNL     1      -9.919  10.769  65.785  1.00  0.00    -0.306 A  
HETATM   12  C   UNL     1     -10.671  11.876  66.188  1.00  0.00    -0.318 A  
ENDBRANCH   5   7
ENDBRANCH   4   5
ENDBRANCH   3   4
ENDBRANCH   2   3
BRANCH   2  13
HETATM   13  C   UNL     1     -12.028  13.235  69.929  1.00  0.00    -0.400 A  
HETATM   14  C   UNL     1     -12.391  10.938  70.627  1.00  0.00    -0.470 A  
HETATM   15  C   UNL     1     -12.706  13.670  71.078  1.00  0.00    -0.408 A  
HETATM   16  C   UNL     1     -11.872  11.859  69.710  1.00  0.00    -0.411 A  
HETATM   17  C   UNL     1     -13.221  12.748  71.993  1.00  0.00    -0.538 A  
HETATM   18  C   UNL     1     -13.063  11.382  71.766  1.00  0.00    -0.523 A  
ENDBRANCH   2  13
TORSDOF 5
ENDMDL
MODEL       38
REMARK 921   NORMALIZED FREE ENERGY PREDICTED BY IDOCK:   -4.64 KCAL/MOL
REMARK 922        TOTAL FREE ENERGY PREDICTED BY IDOCK:   -8.00 KCAL/MOL
REMARK 923 INTER-LIGAND FREE ENERGY PREDICTED BY IDOCK:   -6.24 KCAL/MOL
REMARK 924 INTRA-LIGAND FREE ENERGY PREDICTED BY IDOCK:   -1.76 KCAL/MOL
REMARK 927      BINDING AFFINITY PREDICTED BY RF-SCORE:    0.00 PKD
ROOT
HETATM    1  O   UNL     1     -10.915  15.752  68.970  1.00  0.00    -0.229 OA 
HETATM    2  C   UNL     1     -11.167  14.971  68.063  1.00  0.00    -0.316 C  
ENDROOT
BRANCH   2   3
HETATM    3  O   UNL     1     -11.805  15.274  66.901  1.00  0.00    -0.112 OA 
BRANCH   3   4
HETATM    4  O   UNL     1     -10.787  15.810  65.988  1.00  0.00    -0.317 OA 
BRANCH   4   5
HETATM    5  C   UNL     1     -11.251  15.614  64.724  1.00  0.00    -0.382 C  
HETATM    6  O   UNL     1     -11.668  16.471  63.960  1.00  0.00    -1.111 OA 
BRANCH   5   7
HETATM    7  C   UNL     1     -11.252  14.163  64.395  1.00  0.00    -0.290 A  
HETATM    8  C   UNL     1     -12.352  12.124  63.678  1.00  0.00    -0.673 A  
HETATM    9  C   UNL     1     -12.399  13.498  63.943  1.00  0.00    -0.397 A  
HETATM   10  C   UNL     1     -11.164  11.414  63.855  1.00  0.00    -0.364 A  
HETATM   11  C   UNL     1     -10.017  12.071  64.300  1.00  0.00    -0.266 A  
HETATM   12  C   UNL     1     -10.061  13.441  64.574  1.00  0.00    -0.220 A  
ENDBRANCH   5   7
ENDBRANCH   4   5
ENDBRANCH   3   4
ENDBRANCH   2   3
BRANCH   2  13
HETATM   13  C   UNL     1     -10.765  13.534  68.098  1.00  0.00    -0.265 A  
HETATM   14  C   UNL     1      -9.153  11.749  68.430  1.00  0.00    -0.176 A  
HETATM   15  C   UNL     1     -11.732  12.571  67.770  1.00  0.00    -0.419 A  
HETATM   16  C   UNL     1      -9.470  13.113  68.430  1.00  0.00    -0.166 A  
HETATM   17  C   UNL     1     -11.413  11.211  67.773  1.00  0.00    -0.349 A  
HETATM   18  C   UNL     1     -10.123  10.801  68.103  1.00  0.00    -0.183 A  
ENDBRANCH   2  13
TORSDOF 5
ENDMDL
MODEL       39
REMARK 921   NORMALIZED FREE ENERGY PREDICTED BY IDOCK:   -4.62 KCAL/MOL
REMARK 922        TOTAL FREE ENERGY PREDICTED BY IDOCK:   -7.97 KCAL/MOL
REMARK 923 INTER-LIGAND FREE ENERGY PREDICTED BY IDOCK:   -6.10 KCAL/MOL
REMARK 924 INTRA-LIGAND FREE ENERGY PREDICTED BY IDOCK:   -1.87 KCAL/MOL
REMARK 927      BINDING AFFINITY PREDICTED BY RF-SCORE:    0.00 PKD
ROOT
HETATM    1  O   UNL     1     -12.697  13.836  62.864  1.00  0.00    -0.558 OA 
HETATM    2  C   UNL     1     -12.110  13.281  63.783  1.00  0.00    -0.482 C  
ENDROOT
BRANCH   2   3
HETATM    3  O   UNL     1     -11.701  11.984  63.802  1.00  0.00    -0.417 OA 
BRANCH   3   4
HETATM    4  O   UNL     1     -10.237  12.002  63.684  1.00  0.00    -0.381 OA 
BRANCH   4   5
HETATM    5  C   UNL     1      -9.777  10.885  64.311  1.00  0.00    -0.294 C  
HETATM    6  O   UNL     1      -9.426   9.844  63.779  1.00  0.00    -0.268 OA 
BRANCH   5   7
HETATM    7  C   UNL     1      -9.822  11.068  65.787  1.00  0.00    -0.282 A  
HETATM    8  C   UNL     1      -9.029  12.061  67.853  1.00  0.00    -0.182 A  
HETATM    9  C   UNL     1      -8.966  11.951  66.459  1.00  0.00    -0.199 A  
HETATM   10  C   UNL     1      -9.947  11.299  68.577  1.00  0.00    -0.206 A  
HETATM   11  C   UNL     1     -10.806  10.422  67.914  1.00  0.00    -0.331 A  
HETATM   12  C   UNL     1     -10.740  10.304  66.524  1.00  0.00    -0.148 A  
ENDBRANCH   5   7
ENDBRANCH   4   5
ENDBRANCH   3   4
ENDBRANCH   2   3
BRANCH   2  13
HETATM   13  C   UNL     1     -11.724  13.986  65.040  1.00  0.00    -0.366 A  
HETATM   14  C   UNL     1     -10.432  15.617  66.292  1.00  0.00    -0.313 A  
HETATM   15  C   UNL     1     -12.348  13.595  66.234  1.00  0.00    -0.464 A  
HETATM   16  C   UNL     1     -10.761  15.005  65.077  1.00  0.00    -0.448 A  
HETATM   17  C   UNL     1     -12.020  14.210  67.445  1.00  0.00    -0.439 A  
HETATM   18  C   UNL     1     -11.061  15.221  67.473  1.00  0.00    -0.324 A  
ENDBRANCH   2  13
TORSDOF 5
ENDMDL
MODEL       40
REMARK 921   NORMALIZED FREE ENERGY PREDICTED BY IDOCK:   -4.61 KCAL/MOL
REMARK 922        TOTAL FREE ENERGY PREDICTED BY IDOCK:   -7.96 KCAL/MOL
REMARK 923 INTER-LIGAND FREE ENERGY PREDICTED BY IDOCK:   -7.56 KCAL/MOL
REMARK 924 INTRA-LIGAND FREE ENERGY PREDICTED BY IDOCK:   -0.40 KCAL/MOL
REMARK 927      BINDING AFFINITY PREDICTED BY RF-SCORE:    0.00 PKD
ROOT
HETATM    1  O   UNL     1     -12.081  13.246  67.780  1.00  0.00    -0.331 OA 
HETATM    2  C   UNL     1     -11.842  13.557  66.621  1.00  0.00    -0.407 C  
ENDROOT
BRANCH   2   3
HETATM    3  O   UNL     1     -12.028  14.786  66.068  1.00  0.00    -0.281 OA 
BRANCH   3   4
HETATM    4  O   UNL     1     -10.715  15.447  66.058  1.00  0.00    -0.307 OA 
BRANCH   4   5
HETATM    5  C   UNL     1     -10.891  16.660  65.468  1.00  0.00    -0.163 C  
HETATM    6  O   UNL     1     -11.208  16.865  64.306  1.00  0.00    -1.204 OA 
BRANCH   5   7
HETATM    7  C   UNL     1     -10.571  17.751  66.427  1.00  0.00    -0.218 A  
HETATM    8  C   UNL     1      -9.969  20.041  66.953  1.00  0.00    -0.584 A  
HETATM    9  C   UNL     1     -10.296  19.059  66.009  1.00  0.00    -0.512 A  
HETATM   10  C   UNL     1      -9.923  19.723  68.311  1.00  0.00    -0.557 A  
HETATM   11  C   UNL     1     -10.201  18.423  68.734  1.00  0.00    -0.333 A  
HETATM   12  C   UNL     1     -10.519  17.439  67.795  1.00  0.00    -0.376 A  
ENDBRANCH   5   7
ENDBRANCH   4   5
ENDBRANCH   3   4
ENDBRANCH   2   3
BRANCH   2  13
HETATM   13  C   UNL     1     -11.264  12.603  65.630  1.00  0.00    -0.344 A  
HETATM   14  C   UNL     1     -10.898  11.793  63.370  1.00  0.00    -0.460 A  
HETATM   15  C   UNL     1     -10.508  11.524  66.116  1.00  0.00    -0.296 A  
HETATM   16  C   UNL     1     -11.455  12.731  64.247  1.00  0.00    -0.427 A  
HETATM   17  C   UNL     1      -9.951  10.591  65.238  1.00  0.00    -0.364 A  
HETATM   18  C   UNL     1     -10.148  10.726  63.865  1.00  0.00    -0.397 A  
ENDBRANCH   2  13
TORSDOF 5
ENDMDL
MODEL       41
REMARK 921   NORMALIZED FREE ENERGY PREDICTED BY IDOCK:   -4.59 KCAL/MOL
REMARK 922        TOTAL FREE ENERGY PREDICTED BY IDOCK:   -7.93 KCAL/MOL
REMARK 923 INTER-LIGAND FREE ENERGY PREDICTED BY IDOCK:   -7.50 KCAL/MOL
REMARK 924 INTRA-LIGAND FREE ENERGY PREDICTED BY IDOCK:   -0.43 KCAL/MOL
REMARK 927      BINDING AFFINITY PREDICTED BY RF-SCORE:    0.00 PKD
ROOT
HETATM    1  O   UNL     1     -12.642  12.778  70.867  1.00  0.00    -0.337 OA 
HETATM    2  C   UNL     1     -12.029  11.820  70.418  1.00  0.00    -0.332 C  
ENDROOT
BRANCH   2   3
HETATM    3  O   UNL     1     -11.221  11.829  69.323  1.00  0.00    -0.246 OA 
BRANCH   3   4
HETATM    4  O   UNL     1     -12.101  11.758  68.149  1.00  0.00    -0.556 OA 
BRANCH   4   5
HETATM    5  C   UNL     1     -11.866  12.878  67.413  1.00  0.00    -0.360 C  
HETATM    6  O   UNL     1     -11.887  14.031  67.815  1.00  0.00    -0.349 OA 
BRANCH   5   7
HETATM    7  C   UNL     1     -11.640  12.519  65.987  1.00  0.00    -0.456 A  
HETATM    8  C   UNL     1     -12.317  12.436  63.659  1.00  0.00    -0.647 A  
HETATM    9  C   UNL     1     -12.566  12.825  64.981  1.00  0.00    -0.538 A  
HETATM   10  C   UNL     1     -11.144  11.751  63.338  1.00  0.00    -0.448 A  
HETATM   11  C   UNL     1     -10.216  11.448  64.333  1.00  0.00    -0.361 A  
HETATM   12  C   UNL     1     -10.465  11.827  65.655  1.00  0.00    -0.308 A  
ENDBRANCH   5   7
ENDBRANCH   4   5
ENDBRANCH   3   4
ENDBRANCH   2   3
BRANCH   2  13
HETATM   13  C   UNL     1     -12.061  10.469  71.051  1.00  0.00    -0.492 A  
HETATM   14  C   UNL     1     -13.152   8.693  72.296  1.00  0.00    -0.415 A  
HETATM   15  C   UNL     1     -10.899   9.684  70.991  1.00  0.00    -0.412 A  
HETATM   16  C   UNL     1     -13.191   9.963  71.709  1.00  0.00    -0.535 A  
HETATM   17  C   UNL     1     -10.864   8.416  71.576  1.00  0.00    -0.323 A  
HETATM   18  C   UNL     1     -11.991   7.922  72.229  1.00  0.00    -0.387 A  
ENDBRANCH   2  13
TORSDOF 5
ENDMDL
MODEL       42
REMARK 921   NORMALIZED FREE ENERGY PREDICTED BY IDOCK:   -4.55 KCAL/MOL
REMARK 922        TOTAL FREE ENERGY PREDICTED BY IDOCK:   -7.89 KCAL/MOL
REMARK 923 INTER-LIGAND FREE ENERGY PREDICTED BY IDOCK:   -7.42 KCAL/MOL
REMARK 924 INTRA-LIGAND FREE ENERGY PREDICTED BY IDOCK:   -0.46 KCAL/MOL
REMARK 927      BINDING AFFINITY PREDICTED BY RF-SCORE:    0.00 PKD
ROOT
HETATM    1  O   UNL     1     -13.231  13.835  64.854  1.00  0.00    -0.627 OA 
HETATM    2  C   UNL     1     -12.452  13.621  65.773  1.00  0.00    -0.477 C  
ENDROOT
BRANCH   2   3
HETATM    3  O   UNL     1     -12.238  14.430  66.845  1.00  0.00    -0.415 OA 
BRANCH   3   4
HETATM    4  O   UNL     1     -11.155  15.349  66.472  1.00  0.00    -0.308 OA 
BRANCH   4   5
HETATM    5  C   UNL     1     -10.638  15.840  67.630  1.00  0.00    -0.301 C  
HETATM    6  O   UNL     1     -10.426  15.212  68.656  1.00  0.00    -0.224 OA 
BRANCH   5   7
HETATM    7  C   UNL     1     -10.417  17.307  67.515  1.00  0.00    -0.356 A  
HETATM    8  C   UNL     1      -9.966  19.492  68.466  1.00  0.00    -0.538 A  
HETATM    9  C   UNL     1     -10.134  18.111  68.627  1.00  0.00    -0.406 A  
HETATM   10  C   UNL     1     -10.074  20.070  67.201  1.00  0.00    -0.587 A  
HETATM   11  C   UNL     1     -10.351  19.275  66.089  1.00  0.00    -0.578 A  
HETATM   12  C   UNL     1     -10.527  17.897  66.247  1.00  0.00    -0.320 A  
ENDBRANCH   5   7
ENDBRANCH   4   5
ENDBRANCH   3   4
ENDBRANCH   2   3
BRANCH   2  13
HETATM   13  C   UNL     1     -11.624  12.383  65.860  1.00  0.00    -0.449 A  
HETATM   14  C   UNL     1     -10.569  10.571  67.084  1.00  0.00    -0.319 A  
HETATM   15  C   UNL     1     -11.072  11.874  64.673  1.00  0.00    -0.373 A  
HETATM   16  C   UNL     1     -11.366  11.720  67.068  1.00  0.00    -0.387 A  
HETATM   17  C   UNL     1     -10.278  10.724  64.692  1.00  0.00    -0.419 A  
HETATM   18  C   UNL     1     -10.027  10.074  65.898  1.00  0.00    -0.339 A  
ENDBRANCH   2  13
TORSDOF 5
ENDMDL
MODEL       43
REMARK 921   NORMALIZED FREE ENERGY PREDICTED BY IDOCK:   -4.55 KCAL/MOL
REMARK 922        TOTAL FREE ENERGY PREDICTED BY IDOCK:   -7.88 KCAL/MOL
REMARK 923 INTER-LIGAND FREE ENERGY PREDICTED BY IDOCK:   -7.43 KCAL/MOL
REMARK 924 INTRA-LIGAND FREE ENERGY PREDICTED BY IDOCK:   -0.45 KCAL/MOL
REMARK 927      BINDING AFFINITY PREDICTED BY RF-SCORE:    0.00 PKD
ROOT
HETATM    1  O   UNL     1     -12.208  13.942  66.829  1.00  0.00    -0.429 OA 
HETATM    2  C   UNL     1     -11.848  12.776  66.908  1.00  0.00    -0.371 C  
ENDROOT
BRANCH   2   3
HETATM    3  O   UNL     1     -12.049  11.947  67.968  1.00  0.00    -0.541 OA 
BRANCH   3   4
HETATM    4  O   UNL     1     -11.377  12.565  69.119  1.00  0.00    -0.257 OA 
BRANCH   4   5
HETATM    5  C   UNL     1     -12.137  12.289  70.213  1.00  0.00    -0.295 C  
HETATM    6  O   UNL     1     -12.606  11.204  70.520  1.00  0.00    -0.306 OA 
BRANCH   5   7
HETATM    7  C   UNL     1     -12.397  13.534  70.987  1.00  0.00    -0.422 A  
HETATM    8  C   UNL     1     -12.106  15.906  71.400  1.00  0.00    -0.508 A  
HETATM    9  C   UNL     1     -11.856  14.772  70.618  1.00  0.00    -0.364 A  
HETATM   10  C   UNL     1     -12.901  15.809  72.543  1.00  0.00    -0.545 A  
HETATM   11  C   UNL     1     -13.447  14.580  72.913  1.00  0.00    -0.525 A  
HETATM   12  C   UNL     1     -13.192  13.445  72.140  1.00  0.00    -0.557 A  
ENDBRANCH   5   7
ENDBRANCH   4   5
ENDBRANCH   3   4
ENDBRANCH   2   3
BRANCH   2  13
HETATM   13  C   UNL     1     -11.143  12.069  65.799  1.00  0.00    -0.371 A  
HETATM   14  C   UNL     1     -10.462  11.824  63.482  1.00  0.00    -0.500 A  
HETATM   15  C   UNL     1     -10.475  10.871  66.100  1.00  0.00    -0.290 A  
HETATM   16  C   UNL     1     -11.131  12.542  64.480  1.00  0.00    -0.357 A  
HETATM   17  C   UNL     1      -9.806  10.158  65.102  1.00  0.00    -0.394 A  
HETATM   18  C   UNL     1      -9.801  10.635  63.793  1.00  0.00    -0.394 A  
ENDBRANCH   2  13
TORSDOF 5
ENDMDL
MODEL       44
REMARK 921   NORMALIZED FREE ENERGY PREDICTED BY IDOCK:   -4.51 KCAL/MOL
REMARK 922        TOTAL FREE ENERGY PREDICTED BY IDOCK:   -7.83 KCAL/MOL
REMARK 923 INTER-LIGAND FREE ENERGY PREDICTED BY IDOCK:   -7.50 KCAL/MOL
REMARK 924 INTRA-LIGAND FREE ENERGY PREDICTED BY IDOCK:   -0.33 KCAL/MOL
REMARK 927      BINDING AFFINITY PREDICTED BY RF-SCORE:    0.00 PKD
ROOT
HETATM    1  O   UNL     1     -10.260  14.865  69.034  1.00  0.00    -0.232 OA 
HETATM    2  C   UNL     1     -11.472  14.786  69.178  1.00  0.00    -0.299 C  
ENDROOT
BRANCH   2   3
HETATM    3  O   UNL     1     -12.363  14.368  68.239  1.00  0.00    -0.201 OA 
BRANCH   3   4
HETATM    4  O   UNL     1     -11.715  14.549  66.933  1.00  0.00    -0.372 OA 
BRANCH   4   5
HETATM    5  C   UNL     1     -12.384  13.758  66.050  1.00  0.00    -0.457 C  
HETATM    6  O   UNL     1     -13.512  13.940  65.620  1.00  0.00    -0.590 OA 
BRANCH   5   7
HETATM    7  C   UNL     1     -11.568  12.561  65.710  1.00  0.00    -0.439 A  
HETATM    8  C   UNL     1     -10.470  11.091  64.124  1.00  0.00    -0.434 A  
HETATM    9  C   UNL     1     -11.212  12.248  64.392  1.00  0.00    -0.389 A  
HETATM   10  C   UNL     1     -10.076  10.252  65.168  1.00  0.00    -0.355 A  
HETATM   11  C   UNL     1     -10.423  10.561  66.483  1.00  0.00    -0.276 A  
HETATM   12  C   UNL     1     -11.171  11.710  66.753  1.00  0.00    -0.371 A  
ENDBRANCH   5   7
ENDBRANCH   4   5
ENDBRANCH   3   4
ENDBRANCH   2   3
BRANCH   2  13
HETATM   13  C   UNL     1     -12.158  15.122  70.460  1.00  0.00    -0.390 A  
HETATM   14  C   UNL     1     -14.079  15.127  71.945  1.00  0.00    -0.649 A  
HETATM   15  C   UNL     1     -11.434  15.836  71.428  1.00  0.00    -0.496 A  
HETATM   16  C   UNL     1     -13.488  14.769  70.728  1.00  0.00    -0.233 A  
HETATM   17  C   UNL     1     -12.027  16.190  72.643  1.00  0.00    -0.653 A  
HETATM   18  C   UNL     1     -13.349  15.835  72.900  1.00  0.00    -0.661 A  
ENDBRANCH   2  13
TORSDOF 5
ENDMDL
MODEL       45
REMARK 921   NORMALIZED FREE ENERGY PREDICTED BY IDOCK:   -4.50 KCAL/MOL
REMARK 922        TOTAL FREE ENERGY PREDICTED BY IDOCK:   -7.82 KCAL/MOL
REMARK 923 INTER-LIGAND FREE ENERGY PREDICTED BY IDOCK:   -7.38 KCAL/MOL
REMARK 924 INTRA-LIGAND FREE ENERGY PREDICTED BY IDOCK:   -0.44 KCAL/MOL
REMARK 927      BINDING AFFINITY PREDICTED BY RF-SCORE:    0.00 PKD
ROOT
HETATM    1  O   UNL     1     -12.163  12.838  70.586  1.00  0.00    -0.370 OA 
HETATM    2  C   UNL     1     -12.152  11.726  70.079  1.00  0.00    -0.310 C  
ENDROOT
BRANCH   2   3
HETATM    3  O   UNL     1     -12.205  11.454  68.747  1.00  0.00    -0.502 OA 
BRANCH   3   4
HETATM    4  O   UNL     1     -11.092  12.183  68.123  1.00  0.00    -0.217 OA 
BRANCH   4   5
HETATM    5  C   UNL     1     -11.636  13.010  67.191  1.00  0.00    -0.358 C  
HETATM    6  O   UNL     1     -12.223  14.060  67.403  1.00  0.00    -0.384 OA 
BRANCH   5   7
HETATM    7  C   UNL     1     -11.484  12.425  65.831  1.00  0.00    -0.422 A  
HETATM    8  C   UNL     1     -10.320  11.063  64.197  1.00  0.00    -0.434 A  
HETATM    9  C   UNL     1     -10.434  11.560  65.501  1.00  0.00    -0.327 A  
HETATM   10  C   UNL     1     -11.256  11.421  63.225  1.00  0.00    -0.152 A  
HETATM   11  C   UNL     1     -12.307  12.278  63.548  1.00  0.00    -0.670 A  
HETATM   12  C   UNL     1     -12.419  12.783  64.847  1.00  0.00    -0.563 A  
ENDBRANCH   5   7
ENDBRANCH   4   5
ENDBRANCH   3   4
ENDBRANCH   2   3
BRANCH   2  13
HETATM   13  C   UNL     1     -12.045  10.471  70.879  1.00  0.00    -0.487 A  
HETATM   14  C   UNL     1     -12.918   8.812  72.422  1.00  0.00    -0.442 A  
HETATM   15  C   UNL     1     -10.837   9.758  70.829  1.00  0.00    -0.403 A  
HETATM   16  C   UNL     1     -13.087   9.988  71.682  1.00  0.00    -0.547 A  
HETATM   17  C   UNL     1     -10.672   8.582  71.566  1.00  0.00    -0.330 A  
HETATM   18  C   UNL     1     -11.713   8.110  72.363  1.00  0.00    -0.461 A  
ENDBRANCH   2  13
TORSDOF 5
ENDMDL
MODEL       46
REMARK 921   NORMALIZED FREE ENERGY PREDICTED BY IDOCK:   -4.48 KCAL/MOL
REMARK 922        TOTAL FREE ENERGY PREDICTED BY IDOCK:   -7.80 KCAL/MOL
REMARK 923 INTER-LIGAND FREE ENERGY PREDICTED BY IDOCK:   -6.87 KCAL/MOL
REMARK 924 INTRA-LIGAND FREE ENERGY PREDICTED BY IDOCK:   -0.93 KCAL/MOL
REMARK 927      BINDING AFFINITY PREDICTED BY RF-SCORE:    0.00 PKD
ROOT
HETATM    1  O   UNL     1      -9.951  10.315  66.754  1.00  0.00    -0.192 OA 
HETATM    2  C   UNL     1     -10.821  11.089  67.128  1.00  0.00    -0.282 C  
ENDROOT
BRANCH   2   3
HETATM    3  O   UNL     1     -11.701  10.874  68.142  1.00  0.00    -0.506 OA 
BRANCH   3   4
HETATM    4  O   UNL     1     -11.066  11.380  69.367  1.00  0.00    -0.244 OA 
BRANCH   4   5
HETATM    5  C   UNL     1     -12.028  11.403  70.328  1.00  0.00    -0.373 C  
HETATM    6  O   UNL     1     -12.548  10.436  70.862  1.00  0.00    -0.328 OA 
BRANCH   5   7
HETATM    7  C   UNL     1     -12.435  12.806  70.615  1.00  0.00    -0.328 A  
HETATM    8  C   UNL     1     -12.374  15.191  70.183  1.00  0.00    -0.385 A  
HETATM    9  C   UNL     1     -11.985  13.888  69.849  1.00  0.00    -0.405 A  
HETATM   10  C   UNL     1     -13.216  15.416  71.273  1.00  0.00    -0.585 A  
HETATM   11  C   UNL     1     -13.672  14.342  72.037  1.00  0.00    -0.542 A  
HETATM   12  C   UNL     1     -13.279  13.041  71.712  1.00  0.00    -0.486 A  
ENDBRANCH   5   7
ENDBRANCH   4   5
ENDBRANCH   3   4
ENDBRANCH   2   3
BRANCH   2  13
HETATM   13  C   UNL     1     -11.021  12.437  66.519  1.00  0.00    -0.312 A  
HETATM   14  C   UNL     1     -12.305  14.070  65.262  1.00  0.00    -0.480 A  
HETATM   15  C   UNL     1      -9.986  13.377  66.642  1.00  0.00    -0.277 A  
HETATM   16  C   UNL     1     -12.185  12.794  65.824  1.00  0.00    -0.469 A  
HETATM   17  C   UNL     1     -10.109  14.651  66.082  1.00  0.00    -0.316 A  
HETATM   18  C   UNL     1     -11.270  14.997  65.392  1.00  0.00    -0.356 A  
ENDBRANCH   2  13
TORSDOF 5
ENDMDL
MODEL       47
REMARK 921   NORMALIZED FREE ENERGY PREDICTED BY IDOCK:   -4.46 KCAL/MOL
REMARK 922        TOTAL FREE ENERGY PREDICTED BY IDOCK:   -7.76 KCAL/MOL
REMARK 923 INTER-LIGAND FREE ENERGY PREDICTED BY IDOCK:   -7.35 KCAL/MOL
REMARK 924 INTRA-LIGAND FREE ENERGY PREDICTED BY IDOCK:   -0.42 KCAL/MOL
REMARK 927      BINDING AFFINITY PREDICTED BY RF-SCORE:    0.00 PKD
ROOT
HETATM    1  O   UNL     1     -12.426  16.065  72.004  1.00  0.00    -0.449 OA 
HETATM    2  C   UNL     1     -12.456  15.375  70.995  1.00  0.00    -0.411 C  
ENDROOT
BRANCH   2   3
HETATM    3  O   UNL     1     -12.383  15.828  69.715  1.00  0.00    -0.319 OA 
BRANCH   3   4
HETATM    4  O   UNL     1     -11.202  16.699  69.641  1.00  0.00    -0.237 OA 
BRANCH   4   5
HETATM    5  C   UNL     1     -10.770  16.669  68.352  1.00  0.00    -0.353 C  
HETATM    6  O   UNL     1     -10.896  15.745  67.563  1.00  0.00    -0.313 OA 
BRANCH   5   7
HETATM    7  C   UNL     1     -10.037  17.921  68.025  1.00  0.00    -0.360 A  
HETATM    8  C   UNL     1      -8.074  19.343  68.104  1.00  0.00    -0.354 A  
HETATM    9  C   UNL     1      -8.707  18.133  68.410  1.00  0.00    -0.302 A  
HETATM   10  C   UNL     1      -8.761  20.339  67.408  1.00  0.00    -0.428 A  
HETATM   11  C   UNL     1     -10.084  20.134  67.018  1.00  0.00    -0.599 A  
HETATM   12  C   UNL     1     -10.722  18.930  67.329  1.00  0.00    -0.523 A  
ENDBRANCH   5   7
ENDBRANCH   4   5
ENDBRANCH   3   4
ENDBRANCH   2   3
BRANCH   2  13
HETATM   13  C   UNL     1     -12.549  13.886  71.035  1.00  0.00    -0.444 A  
HETATM   14  C   UNL     1     -13.294  11.794  72.014  1.00  0.00    -0.417 A  
HETATM   15  C   UNL     1     -11.880  13.157  70.039  1.00  0.00    -0.360 A  
HETATM   16  C   UNL     1     -13.259  13.193  72.025  1.00  0.00    -0.543 A  
HETATM   17  C   UNL     1     -11.920  11.761  70.030  1.00  0.00    -0.421 A  
HETATM   18  C   UNL     1     -12.627  11.080  71.019  1.00  0.00    -0.512 A  
ENDBRANCH   2  13
TORSDOF 5
ENDMDL
MODEL       48
REMARK 921   NORMALIZED FREE ENERGY PREDICTED BY IDOCK:   -4.44 KCAL/MOL
REMARK 922        TOTAL FREE ENERGY PREDICTED BY IDOCK:   -7.74 KCAL/MOL
REMARK 923 INTER-LIGAND FREE ENERGY PREDICTED BY IDOCK:   -7.33 KCAL/MOL
REMARK 924 INTRA-LIGAND FREE ENERGY PREDICTED BY IDOCK:   -0.41 KCAL/MOL
REMARK 927      BINDING AFFINITY PREDICTED BY RF-SCORE:    0.00 PKD
ROOT
HETATM    1  O   UNL     1     -12.008  11.924  69.767  1.00  0.00    -0.306 OA 
HETATM    2  C   UNL     1     -12.534  12.217  70.832  1.00  0.00    -0.279 C  
ENDROOT
BRANCH   2   3
HETATM    3  O   UNL     1     -13.151  11.354  71.683  1.00  0.00    -0.455 OA 
BRANCH   3   4
HETATM    4  O   UNL     1     -13.284  10.078  70.967  1.00  0.00    -0.386 OA 
BRANCH   4   5
HETATM    5  C   UNL     1     -13.377   9.104  71.912  1.00  0.00    -0.427 C  
HETATM    6  O   UNL     1     -14.298   8.936  72.696  1.00  0.00    -0.613 OA 
BRANCH   5   7
HETATM    7  C   UNL     1     -12.141   8.275  71.922  1.00  0.00    -0.382 A  
HETATM    8  C   UNL     1      -9.736   8.007  72.083  1.00  0.00    -0.283 A  
HETATM    9  C   UNL     1     -10.869   8.829  72.115  1.00  0.00    -0.400 A  
HETATM   10  C   UNL     1      -9.870   6.635  71.866  1.00  0.00    -0.174 A  
HETATM   11  C   UNL     1     -11.134   6.076  71.678  1.00  0.00    -0.333 A  
HETATM   12  C   UNL     1     -12.266   6.894  71.701  1.00  0.00    -0.403 A  
ENDBRANCH   5   7
ENDBRANCH   4   5
ENDBRANCH   3   4
ENDBRANCH   2   3
BRANCH   2  13
HETATM   13  C   UNL     1     -12.542  13.606  71.376  1.00  0.00    -0.415 A  
HETATM   14  C   UNL     1     -11.648  15.855  71.569  1.00  0.00    -0.537 A  
HETATM   15  C   UNL     1     -13.541  13.946  72.302  1.00  0.00    -0.642 A  
HETATM   16  C   UNL     1     -11.594  14.573  71.011  1.00  0.00    -0.231 A  
HETATM   17  C   UNL     1     -13.593  15.228  72.855  1.00  0.00    -0.584 A  
HETATM   18  C   UNL     1     -12.646  16.182  72.488  1.00  0.00    -0.478 A  
ENDBRANCH   2  13
TORSDOF 5
ENDMDL
MODEL       49
REMARK 921   NORMALIZED FREE ENERGY PREDICTED BY IDOCK:   -4.38 KCAL/MOL
REMARK 922        TOTAL FREE ENERGY PREDICTED BY IDOCK:   -7.66 KCAL/MOL
REMARK 923 INTER-LIGAND FREE ENERGY PREDICTED BY IDOCK:   -7.15 KCAL/MOL
REMARK 924 INTRA-LIGAND FREE ENERGY PREDICTED BY IDOCK:   -0.51 KCAL/MOL
REMARK 927      BINDING AFFINITY PREDICTED BY RF-SCORE:    0.00 PKD
ROOT
HETATM    1  O   UNL     1     -13.054  12.762  65.069  1.00  0.00    -0.811 OA 
HETATM    2  C   UNL     1     -12.051  12.848  65.763  1.00  0.00    -0.457 C  
ENDROOT
BRANCH   2   3
HETATM    3  O   UNL     1     -11.305  11.808  66.224  1.00  0.00    -0.329 OA 
BRANCH   3   4
HETATM    4  O   UNL     1     -11.947  11.345  67.462  1.00  0.00    -0.626 OA 
BRANCH   4   5
HETATM    5  C   UNL     1     -10.972  11.273  68.408  1.00  0.00    -0.219 C  
HETATM    6  O   UNL     1      -9.783  11.504  68.247  1.00  0.00    -0.185 OA 
BRANCH   5   7
HETATM    7  C   UNL     1     -11.539  10.793  69.697  1.00  0.00    -0.388 A  
HETATM    8  C   UNL     1     -11.849   9.106  71.412  1.00  0.00    -0.415 A  
HETATM    9  C   UNL     1     -11.263   9.519  70.209  1.00  0.00    -0.307 A  
HETATM   10  C   UNL     1     -12.702   9.964  72.108  1.00  0.00    -0.387 A  
HETATM   11  C   UNL     1     -12.976  11.236  71.607  1.00  0.00    -0.537 A  
HETATM   12  C   UNL     1     -12.400  11.648  70.403  1.00  0.00    -0.373 A  
ENDBRANCH   5   7
ENDBRANCH   4   5
ENDBRANCH   3   4
ENDBRANCH   2   3
BRANCH   2  13
HETATM   13  C   UNL     1     -11.470  14.156  66.187  1.00  0.00    -0.350 A  
HETATM   14  C   UNL     1     -11.122  15.947  67.789  1.00  0.00    -0.288 A  
HETATM   15  C   UNL     1     -10.688  14.862  65.260  1.00  0.00    -0.409 A  
HETATM   16  C   UNL     1     -11.683  14.708  67.458  1.00  0.00    -0.403 A  
HETATM   17  C   UNL     1     -10.127  16.097  65.594  1.00  0.00    -0.366 A  
HETATM   18  C   UNL     1     -10.345  16.639  66.859  1.00  0.00    -0.299 A  
ENDBRANCH   2  13
TORSDOF 5
ENDMDL
MODEL       50
REMARK 921   NORMALIZED FREE ENERGY PREDICTED BY IDOCK:   -4.38 KCAL/MOL
REMARK 922        TOTAL FREE ENERGY PREDICTED BY IDOCK:   -7.66 KCAL/MOL
REMARK 923 INTER-LIGAND FREE ENERGY PREDICTED BY IDOCK:   -5.78 KCAL/MOL
REMARK 924 INTRA-LIGAND FREE ENERGY PREDICTED BY IDOCK:   -1.87 KCAL/MOL
REMARK 927      BINDING AFFINITY PREDICTED BY RF-SCORE:    0.00 PKD
ROOT
HETATM    1  O   UNL     1     -12.037  11.416  68.682  1.00  0.00    -0.518 OA 
HETATM    2  C   UNL     1     -12.065  12.534  68.186  1.00  0.00    -0.067 C  
ENDROOT
BRANCH   2   3
HETATM    3  O   UNL     1     -12.342  13.693  68.842  1.00  0.00    -0.276 OA 
BRANCH   3   4
HETATM    4  O   UNL     1     -11.220  13.937  69.759  1.00  0.00    -0.199 OA 
BRANCH   4   5
HETATM    5  C   UNL     1     -10.955  15.270  69.711  1.00  0.00    -0.284 C  
HETATM    6  O   UNL     1     -11.243  16.101  70.559  1.00  0.00    -0.363 OA 
BRANCH   5   7
HETATM    7  C   UNL     1     -10.307  15.620  68.418  1.00  0.00    -0.231 A  
HETATM    8  C   UNL     1     -10.223  16.825  66.315  1.00  0.00    -0.341 A  
HETATM    9  C   UNL     1     -10.857  16.557  67.533  1.00  0.00    -0.237 A  
HETATM   10  C   UNL     1      -9.038  16.167  65.980  1.00  0.00    -0.354 A  
HETATM   11  C   UNL     1      -8.482  15.237  66.858  1.00  0.00    -0.286 A  
HETATM   12  C   UNL     1      -9.117  14.961  68.072  1.00  0.00    -0.180 A  
ENDBRANCH   5   7
ENDBRANCH   4   5
ENDBRANCH   3   4
ENDBRANCH   2   3
BRANCH   2  13
HETATM   13  C   UNL     1     -11.760  12.790  66.748  1.00  0.00    -0.459 A  
HETATM   14  C   UNL     1     -12.114  13.929  64.634  1.00  0.00    -0.458 A  
HETATM   15  C   UNL     1     -10.754  12.021  66.141  1.00  0.00    -0.312 A  
HETATM   16  C   UNL     1     -12.439  13.748  65.983  1.00  0.00    -0.491 A  
HETATM   17  C   UNL     1     -10.431  12.206  64.794  1.00  0.00    -0.332 A  
HETATM   18  C   UNL     1     -11.112  13.160  64.041  1.00  0.00    -0.395 A  
ENDBRANCH   2  13
TORSDOF 5
ENDMDL
MODEL       51
REMARK 921   NORMALIZED FREE ENERGY PREDICTED BY IDOCK:   -4.37 KCAL/MOL
REMARK 922        TOTAL FREE ENERGY PREDICTED BY IDOCK:   -7.66 KCAL/MOL
REMARK 923 INTER-LIGAND FREE ENERGY PREDICTED BY IDOCK:   -6.96 KCAL/MOL
REMARK 924 INTRA-LIGAND FREE ENERGY PREDICTED BY IDOCK:   -0.70 KCAL/MOL
REMARK 927      BINDING AFFINITY PREDICTED BY RF-SCORE:    0.00 PKD
ROOT
HETATM    1  O   UNL     1     -12.329  13.498  62.970  1.00  0.00    -0.661 OA 
HETATM    2  C   UNL     1     -12.196  12.689  63.878  1.00  0.00    -0.481 C  
ENDROOT
BRANCH   2   3
HETATM    3  O   UNL     1     -13.043  12.521  64.929  1.00  0.00    -0.833 OA 
BRANCH   3   4
HETATM    4  O   UNL     1     -13.101  13.810  65.633  1.00  0.00    -0.591 OA 
BRANCH   4   5
HETATM    5  C   UNL     1     -12.301  13.696  66.728  1.00  0.00    -0.305 C  
HETATM    6  O   UNL     1     -12.235  12.741  67.486  1.00  0.00    -0.348 OA 
BRANCH   5   7
HETATM    7  C   UNL     1     -11.534  14.954  66.937  1.00  0.00    -0.318 A  
HETATM    8  C   UNL     1     -10.785  16.810  68.307  1.00  0.00    -0.364 A  
HETATM    9  C   UNL     1     -11.496  15.612  68.174  1.00  0.00    -0.325 A  
HETATM   10  C   UNL     1     -10.105  17.349  67.214  1.00  0.00    -0.310 A  
HETATM   11  C   UNL     1     -10.134  16.697  65.982  1.00  0.00    -0.359 A  
HETATM   12  C   UNL     1     -10.850  15.505  65.842  1.00  0.00    -0.317 A  
ENDBRANCH   5   7
ENDBRANCH   4   5
ENDBRANCH   3   4
ENDBRANCH   2   3
BRANCH   2  13
HETATM   13  C   UNL     1     -11.063  11.720  63.940  1.00  0.00    -0.482 A  
HETATM   14  C   UNL     1      -9.769   9.977  65.027  1.00  0.00    -0.386 A  
HETATM   15  C   UNL     1     -10.158  11.694  62.867  1.00  0.00    -0.175 A  
HETATM   16  C   UNL     1     -10.861  10.852  65.022  1.00  0.00    -0.142 A  
HETATM   17  C   UNL     1      -9.070  10.817  62.874  1.00  0.00    -0.308 A  
HETATM   18  C   UNL     1      -8.876   9.960  63.955  1.00  0.00    -0.250 A  
ENDBRANCH   2  13
TORSDOF 5
ENDMDL
MODEL       52
REMARK 921   NORMALIZED FREE ENERGY PREDICTED BY IDOCK:   -4.36 KCAL/MOL
REMARK 922        TOTAL FREE ENERGY PREDICTED BY IDOCK:   -7.64 KCAL/MOL
REMARK 923 INTER-LIGAND FREE ENERGY PREDICTED BY IDOCK:   -7.26 KCAL/MOL
REMARK 924 INTRA-LIGAND FREE ENERGY PREDICTED BY IDOCK:   -0.38 KCAL/MOL
REMARK 927      BINDING AFFINITY PREDICTED BY RF-SCORE:    0.00 PKD
ROOT
HETATM    1  O   UNL     1     -11.660  10.450  70.462  1.00  0.00    -0.296 OA 
HETATM    2  C   UNL     1     -11.716  11.605  70.062  1.00  0.00    -0.321 C  
ENDROOT
BRANCH   2   3
HETATM    3  O   UNL     1     -11.176  12.077  68.907  1.00  0.00    -0.227 OA 
BRANCH   3   4
HETATM    4  O   UNL     1     -12.139  11.778  67.838  1.00  0.00    -0.592 OA 
BRANCH   4   5
HETATM    5  C   UNL     1     -11.849  12.612  66.803  1.00  0.00    -0.370 C  
HETATM    6  O   UNL     1     -12.155  13.791  66.711  1.00  0.00    -0.411 OA 
BRANCH   5   7
HETATM    7  C   UNL     1     -11.146  11.869  65.722  1.00  0.00    -0.367 A  
HETATM    8  C   UNL     1      -9.715  10.080  64.927  1.00  0.00    -0.377 A  
HETATM    9  C   UNL     1     -10.382  10.723  65.976  1.00  0.00    -0.300 A  
HETATM   10  C   UNL     1      -9.815  10.573  63.625  1.00  0.00    -0.354 A  
HETATM   11  C   UNL     1     -10.579  11.710  63.364  1.00  0.00    -0.472 A  
HETATM   12  C   UNL     1     -11.239  12.359  64.410  1.00  0.00    -0.384 A  
ENDBRANCH   5   7
ENDBRANCH   4   5
ENDBRANCH   3   4
ENDBRANCH   2   3
BRANCH   2  13
HETATM   13  C   UNL     1     -12.438  12.683  70.799  1.00  0.00    -0.357 A  
HETATM   14  C   UNL     1     -14.000  13.479  72.479  1.00  0.00    -0.557 A  
HETATM   15  C   UNL     1     -12.200  14.014  70.420  1.00  0.00    -0.433 A  
HETATM   16  C   UNL     1     -13.344  12.422  71.837  1.00  0.00    -0.450 A  
HETATM   17  C   UNL     1     -12.855  15.066  71.066  1.00  0.00    -0.451 A  
HETATM   18  C   UNL     1     -13.755  14.797  72.095  1.00  0.00    -0.543 A  
ENDBRANCH   2  13
TORSDOF 5
ENDMDL
MODEL       53
REMARK 921   NORMALIZED FREE ENERGY PREDICTED BY IDOCK:   -4.36 KCAL/MOL
REMARK 922        TOTAL FREE ENERGY PREDICTED BY IDOCK:   -7.64 KCAL/MOL
REMARK 923 INTER-LIGAND FREE ENERGY PREDICTED BY IDOCK:   -7.10 KCAL/MOL
REMARK 924 INTRA-LIGAND FREE ENERGY PREDICTED BY IDOCK:   -0.54 KCAL/MOL
REMARK 927      BINDING AFFINITY PREDICTED BY RF-SCORE:    0.00 PKD
ROOT
HETATM    1  O   UNL     1     -12.747  13.182  63.622  1.00  0.00    -0.706 OA 
HETATM    2  C   UNL     1     -12.191  12.602  64.544  1.00  0.00    -0.443 C  
ENDROOT
BRANCH   2   3
HETATM    3  O   UNL     1     -12.521  12.693  65.861  1.00  0.00    -0.584 OA 
BRANCH   3   4
HETATM    4  O   UNL     1     -12.385  14.108  66.233  1.00  0.00    -0.456 OA 
BRANCH   4   5
HETATM    5  C   UNL     1     -11.305  14.196  67.056  1.00  0.00    -0.332 C  
HETATM    6  O   UNL     1     -10.131  14.187  66.721  1.00  0.00    -0.253 OA 
BRANCH   5   7
HETATM    7  C   UNL     1     -11.744  14.239  68.478  1.00  0.00    -0.376 A  
HETATM    8  C   UNL     1     -12.371  15.426  70.497  1.00  0.00    -0.452 A  
HETATM    9  C   UNL     1     -11.992  15.442  69.150  1.00  0.00    -0.324 A  
HETATM   10  C   UNL     1     -12.511  14.212  71.173  1.00  0.00    -0.445 A  
HETATM   11  C   UNL     1     -12.271  13.010  70.508  1.00  0.00    -0.392 A  
HETATM   12  C   UNL     1     -11.884  13.023  69.166  1.00  0.00    -0.360 A  
ENDBRANCH   5   7
ENDBRANCH   4   5
ENDBRANCH   3   4
ENDBRANCH   2   3
BRANCH   2  13
HETATM   13  C   UNL     1     -11.055  11.657  64.339  1.00  0.00    -0.382 A  
HETATM   14  C   UNL     1      -9.356  10.586  62.974  1.00  0.00    -0.343 A  
HETATM   15  C   UNL     1     -10.632  10.886  65.433  1.00  0.00    -0.243 A  
HETATM   16  C   UNL     1     -10.407  11.501  63.105  1.00  0.00    -0.376 A  
HETATM   17  C   UNL     1      -9.581   9.975  65.299  1.00  0.00    -0.355 A  
HETATM   18  C   UNL     1      -8.944   9.826  64.069  1.00  0.00    -0.275 A  
ENDBRANCH   2  13
TORSDOF 5
ENDMDL
MODEL       54
REMARK 921   NORMALIZED FREE ENERGY PREDICTED BY IDOCK:   -4.35 KCAL/MOL
REMARK 922        TOTAL FREE ENERGY PREDICTED BY IDOCK:   -7.62 KCAL/MOL
REMARK 923 INTER-LIGAND FREE ENERGY PREDICTED BY IDOCK:   -7.19 KCAL/MOL
REMARK 924 INTRA-LIGAND FREE ENERGY PREDICTED BY IDOCK:   -0.43 KCAL/MOL
REMARK 927      BINDING AFFINITY PREDICTED BY RF-SCORE:    0.00 PKD
ROOT
HETATM    1  O   UNL     1     -14.346   7.505  71.454  1.00  0.00    -0.441 OA 
HETATM    2  C   UNL     1     -13.158   7.747  71.619  1.00  0.00    -0.345 C  
ENDROOT
BRANCH   2   3
HETATM    3  O   UNL     1     -12.636   8.921  72.068  1.00  0.00    -0.341 OA 
BRANCH   3   4
HETATM    4  O   UNL     1     -13.217   9.985  71.237  1.00  0.00    -0.381 OA 
BRANCH   4   5
HETATM    5  C   UNL     1     -12.189  10.790  70.855  1.00  0.00    -0.384 C  
HETATM    6  O   UNL     1     -11.086  10.432  70.475  1.00  0.00    -0.311 OA 
BRANCH   5   7
HETATM    7  C   UNL     1     -12.563  12.220  71.029  1.00  0.00    -0.352 A  
HETATM    8  C   UNL     1     -13.754  14.007  72.157  1.00  0.00    -0.603 A  
HETATM    9  C   UNL     1     -13.409  12.654  72.058  1.00  0.00    -0.555 A  
HETATM   10  C   UNL     1     -13.251  14.929  71.237  1.00  0.00    -0.476 A  
HETATM   11  C   UNL     1     -12.404  14.505  70.213  1.00  0.00    -0.408 A  
HETATM   12  C   UNL     1     -12.065  13.154  70.107  1.00  0.00    -0.392 A  
ENDBRANCH   5   7
ENDBRANCH   4   5
ENDBRANCH   3   4
ENDBRANCH   2   3
BRANCH   2  13
HETATM   13  C   UNL     1     -12.084   6.741  71.371  1.00  0.00    -0.415 A  
HETATM   14  C   UNL     1     -10.474   5.077  72.099  1.00  0.00    -0.274 A  
HETATM   15  C   UNL     1     -11.652   6.551  70.049  1.00  0.00    -0.455 A  
HETATM   16  C   UNL     1     -11.487   5.995  72.396  1.00  0.00    -0.357 A  
HETATM   17  C   UNL     1     -10.642   5.631  69.755  1.00  0.00    -0.400 A  
HETATM   18  C   UNL     1     -10.053   4.895  70.781  1.00  0.00    -0.303 A  
ENDBRANCH   2  13
TORSDOF 5
ENDMDL
MODEL       55
REMARK 921   NORMALIZED FREE ENERGY PREDICTED BY IDOCK:   -4.32 KCAL/MOL
REMARK 922        TOTAL FREE ENERGY PREDICTED BY IDOCK:   -7.58 KCAL/MOL
REMARK 923 INTER-LIGAND FREE ENERGY PREDICTED BY IDOCK:   -7.16 KCAL/MOL
REMARK 924 INTRA-LIGAND FREE ENERGY PREDICTED BY IDOCK:   -0.42 KCAL/MOL
REMARK 927      BINDING AFFINITY PREDICTED BY RF-SCORE:    0.00 PKD
ROOT
HETATM    1  O   UNL     1      -9.645  15.406  68.050  1.00  0.00    -0.204 OA 
HETATM    2  C   UNL     1     -10.324  16.393  68.294  1.00  0.00    -0.279 C  
ENDROOT
BRANCH   2   3
HETATM    3  O   UNL     1     -11.534  16.398  68.915  1.00  0.00    -0.311 OA 
BRANCH   3   4
HETATM    4  O   UNL     1     -11.334  15.782  70.234  1.00  0.00    -0.299 OA 
BRANCH   4   5
HETATM    5  C   UNL     1     -12.538  15.280  70.621  1.00  0.00    -0.417 C  
HETATM    6  O   UNL     1     -13.523  15.923  70.950  1.00  0.00    -0.462 OA 
BRANCH   5   7
HETATM    7  C   UNL     1     -12.487  13.793  70.663  1.00  0.00    -0.429 A  
HETATM    8  C   UNL     1     -11.845  11.640  69.751  1.00  0.00    -0.428 A  
HETATM    9  C   UNL     1     -11.835  13.038  69.680  1.00  0.00    -0.385 A  
HETATM   10  C   UNL     1     -12.496  10.994  70.804  1.00  0.00    -0.491 A  
HETATM   11  C   UNL     1     -13.143  11.741  71.788  1.00  0.00    -0.480 A  
HETATM   12  C   UNL     1     -13.142  13.136  71.716  1.00  0.00    -0.478 A  
ENDBRANCH   5   7
ENDBRANCH   4   5
ENDBRANCH   3   4
ENDBRANCH   2   3
BRANCH   2  13
HETATM   13  C   UNL     1      -9.887  17.780  67.958  1.00  0.00    -0.317 A  
HETATM   14  C   UNL     1     -10.186  19.941  66.893  1.00  0.00    -0.600 A  
HETATM   15  C   UNL     1      -8.637  18.210  68.431  1.00  0.00    -0.310 A  
HETATM   16  C   UNL     1     -10.660  18.657  67.186  1.00  0.00    -0.468 A  
HETATM   17  C   UNL     1      -8.168  19.493  68.140  1.00  0.00    -0.352 A  
HETATM   18  C   UNL     1      -8.943  20.358  67.370  1.00  0.00    -0.449 A  
ENDBRANCH   2  13
TORSDOF 5
ENDMDL
MODEL       56
REMARK 921   NORMALIZED FREE ENERGY PREDICTED BY IDOCK:   -4.31 KCAL/MOL
REMARK 922        TOTAL FREE ENERGY PREDICTED BY IDOCK:   -7.57 KCAL/MOL
REMARK 923 INTER-LIGAND FREE ENERGY PREDICTED BY IDOCK:   -6.86 KCAL/MOL
REMARK 924 INTRA-LIGAND FREE ENERGY PREDICTED BY IDOCK:   -0.71 KCAL/MOL
REMARK 927      BINDING AFFINITY PREDICTED BY RF-SCORE:    0.00 PKD
ROOT
HETATM    1  O   UNL     1     -11.938  14.347  67.447  1.00  0.00    -0.398 OA 
HETATM    2  C   UNL     1     -11.350  14.249  68.515  1.00  0.00    -0.282 C  
ENDROOT
BRANCH   2   3
HETATM    3  O   UNL     1     -10.004  14.144  68.679  1.00  0.00    -0.232 OA 
BRANCH   3   4
HETATM    4  O   UNL     1      -9.387  15.049  67.699  1.00  0.00    -0.191 OA 
BRANCH   4   5
HETATM    5  C   UNL     1      -8.967  16.145  68.386  1.00  0.00    -0.196 C  
HETATM    6  O   UNL     1      -8.278  16.153  69.394  1.00  0.00    -0.226 OA 
BRANCH   5   7
HETATM    7  C   UNL     1      -9.528  17.381  67.775  1.00  0.00    -0.261 A  
HETATM    8  C   UNL     1     -10.456  18.626  65.912  1.00  0.00    -0.395 A  
HETATM    9  C   UNL     1      -9.967  17.428  66.446  1.00  0.00    -0.322 A  
HETATM   10  C   UNL     1     -10.516  19.775  66.702  1.00  0.00    -0.615 A  
HETATM   11  C   UNL     1     -10.085  19.734  68.028  1.00  0.00    -0.571 A  
HETATM   12  C   UNL     1      -9.588  18.542  68.562  1.00  0.00    -0.388 A  
ENDBRANCH   5   7
ENDBRANCH   4   5
ENDBRANCH   3   4
ENDBRANCH   2   3
BRANCH   2  13
HETATM   13  C   UNL     1     -12.053  14.263  69.831  1.00  0.00    -0.404 A  
HETATM   14  C   UNL     1     -13.082  13.175  71.742  1.00  0.00    -0.478 A  
HETATM   15  C   UNL     1     -12.379  15.508  70.391  1.00  0.00    -0.451 A  
HETATM   16  C   UNL     1     -12.410  13.094  70.517  1.00  0.00    -0.380 A  
HETATM   17  C   UNL     1     -13.047  15.586  71.616  1.00  0.00    -0.561 A  
HETATM   18  C   UNL     1     -13.399  14.418  72.290  1.00  0.00    -0.512 A  
ENDBRANCH   2  13
TORSDOF 5
ENDMDL
MODEL       57
REMARK 921   NORMALIZED FREE ENERGY PREDICTED BY IDOCK:   -4.27 KCAL/MOL
REMARK 922        TOTAL FREE ENERGY PREDICTED BY IDOCK:   -7.52 KCAL/MOL
REMARK 923 INTER-LIGAND FREE ENERGY PREDICTED BY IDOCK:   -7.10 KCAL/MOL
REMARK 924 INTRA-LIGAND FREE ENERGY PREDICTED BY IDOCK:   -0.42 KCAL/MOL
REMARK 927      BINDING AFFINITY PREDICTED BY RF-SCORE:    0.00 PKD
ROOT
HETATM    1  O   UNL     1      -9.799  10.303  68.768  1.00  0.00    -0.165 OA 
HETATM    2  C   UNL     1     -10.745  10.766  69.391  1.00  0.00    -0.233 C  
ENDROOT
BRANCH   2   3
HETATM    3  O   UNL     1     -11.340  11.968  69.166  1.00  0.00    -0.246 OA 
BRANCH   3   4
HETATM    4  O   UNL     1     -12.140  11.820  67.942  1.00  0.00    -0.592 OA 
BRANCH   4   5
HETATM    5  C   UNL     1     -11.867  12.899  67.161  1.00  0.00    -0.362 C  
HETATM    6  O   UNL     1     -11.935  14.073  67.491  1.00  0.00    -0.386 OA 
BRANCH   5   7
HETATM    7  C   UNL     1     -11.528  12.462  65.779  1.00  0.00    -0.416 A  
HETATM    8  C   UNL     1     -11.908  12.427  63.384  1.00  0.00    -0.571 A  
HETATM    9  C   UNL     1     -12.249  12.894  64.659  1.00  0.00    -0.494 A  
HETATM   10  C   UNL     1     -10.845  11.536  63.224  1.00  0.00    -0.342 A  
HETATM   11  C   UNL     1     -10.120  11.106  64.335  1.00  0.00    -0.377 A  
HETATM   12  C   UNL     1     -10.463  11.564  65.609  1.00  0.00    -0.317 A  
ENDBRANCH   5   7
ENDBRANCH   4   5
ENDBRANCH   3   4
ENDBRANCH   2   3
BRANCH   2  13
HETATM   13  C   UNL     1     -11.418  10.033  70.504  1.00  0.00    -0.407 A  
HETATM   14  C   UNL     1     -11.571   8.228  72.120  1.00  0.00    -0.428 A  
HETATM   15  C   UNL     1     -12.648  10.525  70.968  1.00  0.00    -0.499 A  
HETATM   16  C   UNL     1     -10.883   8.877  71.089  1.00  0.00    -0.352 A  
HETATM   17  C   UNL     1     -13.332   9.875  71.999  1.00  0.00    -0.532 A  
HETATM   18  C   UNL     1     -12.793   8.726  72.574  1.00  0.00    -0.380 A  
ENDBRANCH   2  13
TORSDOF 5
ENDMDL
MODEL       58
REMARK 921   NORMALIZED FREE ENERGY PREDICTED BY IDOCK:   -4.27 KCAL/MOL
REMARK 922        TOTAL FREE ENERGY PREDICTED BY IDOCK:   -7.51 KCAL/MOL
REMARK 923 INTER-LIGAND FREE ENERGY PREDICTED BY IDOCK:   -7.10 KCAL/MOL
REMARK 924 INTRA-LIGAND FREE ENERGY PREDICTED BY IDOCK:   -0.42 KCAL/MOL
REMARK 927      BINDING AFFINITY PREDICTED BY RF-SCORE:    0.00 PKD
ROOT
HETATM    1  O   UNL     1      -9.981  12.834  68.417  1.00  0.00    -0.226 OA 
HETATM    2  C   UNL     1     -11.056  12.254  68.477  1.00  0.00    -0.249 C  
ENDROOT
BRANCH   2   3
HETATM    3  O   UNL     1     -12.054  12.322  67.555  1.00  0.00    -0.514 OA 
BRANCH   3   4
HETATM    4  O   UNL     1     -11.534  13.106  66.427  1.00  0.00    -0.308 OA 
BRANCH   4   5
HETATM    5  C   UNL     1     -12.002  12.521  65.292  1.00  0.00    -0.438 C  
HETATM    6  O   UNL     1     -13.125  12.633  64.824  1.00  0.00    -0.852 OA 
BRANCH   5   7
HETATM    7  C   UNL     1     -10.962  11.636  64.701  1.00  0.00    -0.363 A  
HETATM    8  C   UNL     1      -9.469   9.726  64.780  1.00  0.00    -0.318 A  
HETATM    9  C   UNL     1     -10.472  10.506  65.368  1.00  0.00    -0.222 A  
HETATM   10  C   UNL     1      -8.960  10.066  63.525  1.00  0.00    -0.279 A  
HETATM   11  C   UNL     1      -9.447  11.187  62.853  1.00  0.00    -0.382 A  
HETATM   12  C   UNL     1     -10.442  11.973  63.441  1.00  0.00    -0.474 A  
ENDBRANCH   5   7
ENDBRANCH   4   5
ENDBRANCH   3   4
ENDBRANCH   2   3
BRANCH   2  13
HETATM   13  C   UNL     1     -11.418  11.334  69.595  1.00  0.00    -0.380 A  
HETATM   14  C   UNL     1     -11.218   9.256  70.833  1.00  0.00    -0.372 A  
HETATM   15  C   UNL     1     -12.409  11.752  70.497  1.00  0.00    -0.387 A  
HETATM   16  C   UNL     1     -10.823  10.077  69.771  1.00  0.00    -0.308 A  
HETATM   17  C   UNL     1     -12.800  10.930  71.558  1.00  0.00    -0.560 A  
HETATM   18  C   UNL     1     -12.204   9.682  71.724  1.00  0.00    -0.464 A  
ENDBRANCH   2  13
TORSDOF 5
ENDMDL
MODEL       59
REMARK 921   NORMALIZED FREE ENERGY PREDICTED BY IDOCK:   -4.26 KCAL/MOL
REMARK 922        TOTAL FREE ENERGY PREDICTED BY IDOCK:   -7.51 KCAL/MOL
REMARK 923 INTER-LIGAND FREE ENERGY PREDICTED BY IDOCK:   -6.76 KCAL/MOL
REMARK 924 INTRA-LIGAND FREE ENERGY PREDICTED BY IDOCK:   -0.75 KCAL/MOL
REMARK 927      BINDING AFFINITY PREDICTED BY RF-SCORE:    0.00 PKD
ROOT
HETATM    1  O   UNL     1     -11.135  11.006  70.067  1.00  0.00    -0.251 OA 
HETATM    2  C   UNL     1     -11.877  11.855  69.593  1.00  0.00    -0.337 C  
ENDROOT
BRANCH   2   3
HETATM    3  O   UNL     1     -12.362  11.873  68.322  1.00  0.00    -0.334 OA 
BRANCH   3   4
HETATM    4  O   UNL     1     -11.218  12.125  67.436  1.00  0.00    -0.264 OA 
BRANCH   4   5
HETATM    5  C   UNL     1     -11.718  12.668  66.293  1.00  0.00    -0.402 C  
HETATM    6  O   UNL     1     -12.479  12.131  65.504  1.00  0.00    -0.517 OA 
BRANCH   5   7
HETATM    7  C   UNL     1     -11.149  14.027  66.077  1.00  0.00    -0.303 A  
HETATM    8  C   UNL     1     -11.006  16.128  64.875  1.00  0.00    -0.364 A  
HETATM    9  C   UNL     1     -11.598  14.872  65.054  1.00  0.00    -0.357 A  
HETATM   10  C   UNL     1      -9.974  16.545  65.717  1.00  0.00    -0.302 A  
HETATM   11  C   UNL     1      -9.526  15.710  66.741  1.00  0.00    -0.261 A  
HETATM   12  C   UNL     1     -10.109  14.452  66.917  1.00  0.00    -0.259 A  
ENDBRANCH   5   7
ENDBRANCH   4   5
ENDBRANCH   3   4
ENDBRANCH   2   3
BRANCH   2  13
HETATM   13  C   UNL     1     -12.392  13.012  70.382  1.00  0.00    -0.351 A  
HETATM   14  C   UNL     1     -12.657  15.387  70.812  1.00  0.00    -0.497 A  
HETATM   15  C   UNL     1     -13.132  12.740  71.543  1.00  0.00    -0.380 A  
HETATM   16  C   UNL     1     -12.158  14.346  70.021  1.00  0.00    -0.401 A  
HETATM   17  C   UNL     1     -13.631  13.781  72.330  1.00  0.00    -0.690 A  
HETATM   18  C   UNL     1     -13.392  15.104  71.964  1.00  0.00    -0.494 A  
ENDBRANCH   2  13
TORSDOF 5
ENDMDL
MODEL       60
REMARK 921   NORMALIZED FREE ENERGY PREDICTED BY IDOCK:   -4.25 KCAL/MOL
REMARK 922        TOTAL FREE ENERGY PREDICTED BY IDOCK:   -7.50 KCAL/MOL
REMARK 923 INTER-LIGAND FREE ENERGY PREDICTED BY IDOCK:   -7.14 KCAL/MOL
REMARK 924 INTRA-LIGAND FREE ENERGY PREDICTED BY IDOCK:   -0.36 KCAL/MOL
REMARK 927      BINDING AFFINITY PREDICTED BY RF-SCORE:    0.00 PKD
ROOT
HETATM    1  O   UNL     1     -10.054  11.959  68.705  1.00  0.00    -0.216 OA 
HETATM    2  C   UNL     1     -11.168  11.454  68.731  1.00  0.00    -0.247 C  
ENDROOT
BRANCH   2   3
HETATM    3  O   UNL     1     -12.062  11.435  67.706  1.00  0.00    -0.637 OA 
BRANCH   3   4
HETATM    4  O   UNL     1     -11.303  11.714  66.479  1.00  0.00    -0.328 OA 
BRANCH   4   5
HETATM    5  C   UNL     1     -11.913  12.766  65.869  1.00  0.00    -0.449 C  
HETATM    6  O   UNL     1     -12.835  12.709  65.070  1.00  0.00    -0.765 OA 
BRANCH   5   7
HETATM    7  C   UNL     1     -11.252  14.042  66.257  1.00  0.00    -0.320 A  
HETATM    8  C   UNL     1     -10.995  15.975  67.698  1.00  0.00    -0.284 A  
HETATM    9  C   UNL     1     -11.629  14.764  67.397  1.00  0.00    -0.377 A  
HETATM   10  C   UNL     1      -9.982  16.463  66.870  1.00  0.00    -0.273 A  
HETATM   11  C   UNL     1      -9.599  15.746  65.737  1.00  0.00    -0.355 A  
HETATM   12  C   UNL     1     -10.235  14.541  65.429  1.00  0.00    -0.415 A  
ENDBRANCH   5   7
ENDBRANCH   4   5
ENDBRANCH   3   4
ENDBRANCH   2   3
BRANCH   2  13
HETATM   13  C   UNL     1     -11.704  10.737  69.925  1.00  0.00    -0.412 A  
HETATM   14  C   UNL     1     -11.932   8.783  71.349  1.00  0.00    -0.367 A  
HETATM   15  C   UNL     1     -12.575  11.433  70.777  1.00  0.00    -0.409 A  
HETATM   16  C   UNL     1     -11.384   9.404  70.220  1.00  0.00    -0.261 A  
HETATM   17  C   UNL     1     -13.119  10.812  71.904  1.00  0.00    -0.557 A  
HETATM   18  C   UNL     1     -12.797   9.486  72.188  1.00  0.00    -0.471 A  
ENDBRANCH   2  13
TORSDOF 5
ENDMDL
MODEL       61
REMARK 921   NORMALIZED FREE ENERGY PREDICTED BY IDOCK:   -4.25 KCAL/MOL
REMARK 922        TOTAL FREE ENERGY PREDICTED BY IDOCK:   -7.49 KCAL/MOL
REMARK 923 INTER-LIGAND FREE ENERGY PREDICTED BY IDOCK:   -6.48 KCAL/MOL
REMARK 924 INTRA-LIGAND FREE ENERGY PREDICTED BY IDOCK:   -1.01 KCAL/MOL
REMARK 927      BINDING AFFINITY PREDICTED BY RF-SCORE:    0.00 PKD
ROOT
HETATM    1  O   UNL     1      -8.095   9.663  70.841  1.00  0.00    -0.293 OA 
HETATM    2  C   UNL     1      -9.131   9.334  70.279  1.00  0.00    -0.237 C  
ENDROOT
BRANCH   2   3
HETATM    3  O   UNL     1      -9.526   9.726  69.038  1.00  0.00    -0.159 OA 
BRANCH   3   4
HETATM    4  O   UNL     1      -9.805  11.166  69.120  1.00  0.00    -0.163 OA 
BRANCH   4   5
HETATM    5  C   UNL     1     -11.106  11.336  68.760  1.00  0.00    -0.233 C  
HETATM    6  O   UNL     1     -11.601  11.081  67.673  1.00  0.00    -0.526 OA 
BRANCH   5   7
HETATM    7  C   UNL     1     -11.872  11.959  69.875  1.00  0.00    -0.418 A  
HETATM    8  C   UNL     1     -12.639  13.878  71.143  1.00  0.00    -0.446 A  
HETATM    9  C   UNL     1     -11.931  13.346  70.059  1.00  0.00    -0.407 A  
HETATM   10  C   UNL     1     -13.294  13.031  72.038  1.00  0.00    -0.588 A  
HETATM   11  C   UNL     1     -13.244  11.649  71.857  1.00  0.00    -0.475 A  
HETATM   12  C   UNL     1     -12.531  11.114  70.781  1.00  0.00    -0.479 A  
ENDBRANCH   5   7
ENDBRANCH   4   5
ENDBRANCH   3   4
ENDBRANCH   2   3
BRANCH   2  13
HETATM   13  C   UNL     1     -10.121   8.399  70.889  1.00  0.00    -0.234 A  
HETATM   14  C   UNL     1     -11.906   6.758  70.761  1.00  0.00    -0.446 A  
HETATM   15  C   UNL     1     -10.187   8.330  72.290  1.00  0.00    -0.375 A  
HETATM   16  C   UNL     1     -10.989   7.604  70.127  1.00  0.00    -0.255 A  
HETATM   17  C   UNL     1     -11.102   7.483  72.919  1.00  0.00    -0.426 A  
HETATM   18  C   UNL     1     -11.962   6.697  72.154  1.00  0.00    -0.320 A  
ENDBRANCH   2  13
TORSDOF 5
ENDMDL
MODEL       62
REMARK 921   NORMALIZED FREE ENERGY PREDICTED BY IDOCK:   -4.23 KCAL/MOL
REMARK 922        TOTAL FREE ENERGY PREDICTED BY IDOCK:   -7.48 KCAL/MOL
REMARK 923 INTER-LIGAND FREE ENERGY PREDICTED BY IDOCK:   -7.04 KCAL/MOL
REMARK 924 INTRA-LIGAND FREE ENERGY PREDICTED BY IDOCK:   -0.43 KCAL/MOL
REMARK 927      BINDING AFFINITY PREDICTED BY RF-SCORE:    0.00 PKD
ROOT
HETATM    1  O   UNL     1      -9.695  13.074  67.924  1.00  0.00    -0.205 OA 
HETATM    2  C   UNL     1     -10.812  12.902  67.455  1.00  0.00    -0.251 C  
ENDROOT
BRANCH   2   3
HETATM    3  O   UNL     1     -11.988  13.026  68.126  1.00  0.00    -0.343 OA 
BRANCH   3   4
HETATM    4  O   UNL     1     -12.232  11.739  68.791  1.00  0.00    -0.367 OA 
BRANCH   4   5
HETATM    5  C   UNL     1     -12.152  11.967  70.130  1.00  0.00    -0.302 C  
HETATM    6  O   UNL     1     -12.112  13.055  70.682  1.00  0.00    -0.348 OA 
BRANCH   5   7
HETATM    7  C   UNL     1     -12.045  10.678  70.867  1.00  0.00    -0.489 A  
HETATM    8  C   UNL     1     -10.882   8.636  71.464  1.00  0.00    -0.352 A  
HETATM    9  C   UNL     1     -10.917   9.853  70.774  1.00  0.00    -0.407 A  
HETATM   10  C   UNL     1     -11.965   8.243  72.251  1.00  0.00    -0.448 A  
HETATM   11  C   UNL     1     -13.090   9.062  72.352  1.00  0.00    -0.487 A  
HETATM   12  C   UNL     1     -13.132  10.274  71.658  1.00  0.00    -0.553 A  
ENDBRANCH   5   7
ENDBRANCH   4   5
ENDBRANCH   3   4
ENDBRANCH   2   3
BRANCH   2  13
HETATM   13  C   UNL     1     -11.043  12.551  66.023  1.00  0.00    -0.329 A  
HETATM   14  C   UNL     1     -12.195  12.789  63.899  1.00  0.00    -0.543 A  
HETATM   15  C   UNL     1     -10.251  11.539  65.456  1.00  0.00    -0.303 A  
HETATM   16  C   UNL     1     -12.018  13.175  65.232  1.00  0.00    -0.437 A  
HETATM   17  C   UNL     1     -10.429  11.158  64.124  1.00  0.00    -0.442 A  
HETATM   18  C   UNL     1     -11.401  11.783  63.346  1.00  0.00    -0.437 A  
ENDBRANCH   2  13
TORSDOF 5
ENDMDL
MODEL       63
REMARK 921   NORMALIZED FREE ENERGY PREDICTED BY IDOCK:   -4.23 KCAL/MOL
REMARK 922        TOTAL FREE ENERGY PREDICTED BY IDOCK:   -7.47 KCAL/MOL
REMARK 923 INTER-LIGAND FREE ENERGY PREDICTED BY IDOCK:   -6.80 KCAL/MOL
REMARK 924 INTRA-LIGAND FREE ENERGY PREDICTED BY IDOCK:   -0.67 KCAL/MOL
REMARK 927      BINDING AFFINITY PREDICTED BY RF-SCORE:    0.00 PKD
ROOT
HETATM    1  O   UNL     1     -10.383  10.512  68.357  1.00  0.00    -0.162 OA 
HETATM    2  C   UNL     1     -11.364  11.239  68.428  1.00  0.00    -0.281 C  
ENDROOT
BRANCH   2   3
HETATM    3  O   UNL     1     -12.016  11.806  67.377  1.00  0.00    -0.617 OA 
BRANCH   3   4
HETATM    4  O   UNL     1     -11.041  12.662  66.687  1.00  0.00    -0.255 OA 
BRANCH   4   5
HETATM    5  C   UNL     1     -11.719  13.756  66.247  1.00  0.00    -0.376 C  
HETATM    6  O   UNL     1     -12.743  13.758  65.581  1.00  0.00    -0.509 OA 
BRANCH   5   7
HETATM    7  C   UNL     1     -10.997  14.999  66.632  1.00  0.00    -0.325 A  
HETATM    8  C   UNL     1     -10.690  16.960  68.026  1.00  0.00    -0.364 A  
HETATM    9  C   UNL     1     -11.385  15.782  67.727  1.00  0.00    -0.240 A  
HETATM   10  C   UNL     1      -9.605  17.354  67.241  1.00  0.00    -0.258 A  
HETATM   11  C   UNL     1      -9.211  16.576  66.152  1.00  0.00    -0.338 A  
HETATM   12  C   UNL     1      -9.907  15.404  65.846  1.00  0.00    -0.387 A  
ENDBRANCH   5   7
ENDBRANCH   4   5
ENDBRANCH   3   4
ENDBRANCH   2   3
BRANCH   2  13
HETATM   13  C   UNL     1     -12.021  11.590  69.721  1.00  0.00    -0.415 A  
HETATM   14  C   UNL     1     -13.142  11.021  71.798  1.00  0.00    -0.554 A  
HETATM   15  C   UNL     1     -12.148  12.949  70.049  1.00  0.00    -0.357 A  
HETATM   16  C   UNL     1     -12.523  10.626  70.607  1.00  0.00    -0.462 A  
HETATM   17  C   UNL     1     -12.764  13.340  71.241  1.00  0.00    -0.411 A  
HETATM   18  C   UNL     1     -13.261  12.375  72.114  1.00  0.00    -0.491 A  
ENDBRANCH   2  13
TORSDOF 5
ENDMDL
MODEL       64
REMARK 921   NORMALIZED FREE ENERGY PREDICTED BY IDOCK:   -4.22 KCAL/MOL
REMARK 922        TOTAL FREE ENERGY PREDICTED BY IDOCK:   -7.46 KCAL/MOL
REMARK 923 INTER-LIGAND FREE ENERGY PREDICTED BY IDOCK:   -7.04 KCAL/MOL
REMARK 924 INTRA-LIGAND FREE ENERGY PREDICTED BY IDOCK:   -0.42 KCAL/MOL
REMARK 927      BINDING AFFINITY PREDICTED BY RF-SCORE:    0.00 PKD
ROOT
HETATM    1  O   UNL     1      -9.625  10.674  69.082  1.00  0.00    -0.201 OA 
HETATM    2  C   UNL     1     -10.703  10.966  69.580  1.00  0.00    -0.180 C  
ENDROOT
BRANCH   2   3
HETATM    3  O   UNL     1     -11.462  12.050  69.264  1.00  0.00    -0.262 OA 
BRANCH   3   4
HETATM    4  O   UNL     1     -12.062  11.775  67.951  1.00  0.00    -0.592 OA 
BRANCH   4   5
HETATM    5  C   UNL     1     -11.956  12.920  67.223  1.00  0.00    -0.309 C  
HETATM    6  O   UNL     1     -12.098  14.061  67.636  1.00  0.00    -0.382 OA 
BRANCH   5   7
HETATM    7  C   UNL     1     -11.705  12.599  65.792  1.00  0.00    -0.466 A  
HETATM    8  C   UNL     1     -12.356  12.544  63.457  1.00  0.00    -0.623 A  
HETATM    9  C   UNL     1     -12.630  12.897  64.783  1.00  0.00    -0.493 A  
HETATM   10  C   UNL     1     -11.160  11.903  63.133  1.00  0.00    -0.267 A  
HETATM   11  C   UNL     1     -10.231  11.608  64.131  1.00  0.00    -0.372 A  
HETATM   12  C   UNL     1     -10.505  11.951  65.458  1.00  0.00    -0.309 A  
ENDBRANCH   5   7
ENDBRANCH   4   5
ENDBRANCH   3   4
ENDBRANCH   2   3
BRANCH   2  13
HETATM   13  C   UNL     1     -11.369  10.127  70.618  1.00  0.00    -0.433 A  
HETATM   14  C   UNL     1     -13.277   9.474  71.970  1.00  0.00    -0.539 A  
HETATM   15  C   UNL     1     -10.601   9.147  71.267  1.00  0.00    -0.399 A  
HETATM   16  C   UNL     1     -12.715  10.284  70.977  1.00  0.00    -0.491 A  
HETATM   17  C   UNL     1     -11.166   8.339  72.257  1.00  0.00    -0.443 A  
HETATM   18  C   UNL     1     -12.504   8.503  72.607  1.00  0.00    -0.276 A  
ENDBRANCH   2  13
TORSDOF 5
ENDMDL
MODEL       65
REMARK 921   NORMALIZED FREE ENERGY PREDICTED BY IDOCK:   -4.21 KCAL/MOL
REMARK 922        TOTAL FREE ENERGY PREDICTED BY IDOCK:   -7.45 KCAL/MOL
REMARK 923 INTER-LIGAND FREE ENERGY PREDICTED BY IDOCK:   -7.02 KCAL/MOL
REMARK 924 INTRA-LIGAND FREE ENERGY PREDICTED BY IDOCK:   -0.43 KCAL/MOL
REMARK 927      BINDING AFFINITY PREDICTED BY RF-SCORE:    0.00 PKD
ROOT
HETATM    1  O   UNL     1     -10.266  10.370  66.197  1.00  0.00    -0.232 OA 
HETATM    2  C   UNL     1     -10.990  11.258  66.626  1.00  0.00    -0.268 C  
ENDROOT
BRANCH   2   3
HETATM    3  O   UNL     1     -11.762  11.190  67.744  1.00  0.00    -0.560 OA 
BRANCH   3   4
HETATM    4  O   UNL     1     -10.951  11.719  68.849  1.00  0.00    -0.220 OA 
BRANCH   4   5
HETATM    5  C   UNL     1     -11.787  11.872  69.912  1.00  0.00    -0.343 C  
HETATM    6  O   UNL     1     -12.399  12.884  70.216  1.00  0.00    -0.299 OA 
BRANCH   5   7
HETATM    7  C   UNL     1     -11.814  10.629  70.730  1.00  0.00    -0.459 A  
HETATM    8  C   UNL     1     -10.801   8.597  71.583  1.00  0.00    -0.374 A  
HETATM    9  C   UNL     1     -10.711   9.771  70.825  1.00  0.00    -0.393 A  
HETATM   10  C   UNL     1     -11.985   8.282  72.252  1.00  0.00    -0.448 A  
HETATM   11  C   UNL     1     -13.085   9.135  72.166  1.00  0.00    -0.516 A  
HETATM   12  C   UNL     1     -13.002  10.303  71.403  1.00  0.00    -0.540 A  
ENDBRANCH   5   7
ENDBRANCH   4   5
ENDBRANCH   3   4
ENDBRANCH   2   3
BRANCH   2  13
HETATM   13  C   UNL     1     -11.104  12.595  65.974  1.00  0.00    -0.321 A  
HETATM   14  C   UNL     1     -10.223  14.760  65.316  1.00  0.00    -0.415 A  
HETATM   15  C   UNL     1     -12.333  12.942  65.391  1.00  0.00    -0.538 A  
HETATM   16  C   UNL     1     -10.047  13.515  65.931  1.00  0.00    -0.311 A  
HETATM   17  C   UNL     1     -12.504  14.185  64.775  1.00  0.00    -0.395 A  
HETATM   18  C   UNL     1     -11.448  15.093  64.739  1.00  0.00    -0.383 A  
ENDBRANCH   2  13
TORSDOF 5
ENDMDL
MODEL       66
REMARK 921   NORMALIZED FREE ENERGY PREDICTED BY IDOCK:   -4.20 KCAL/MOL
REMARK 922        TOTAL FREE ENERGY PREDICTED BY IDOCK:   -7.43 KCAL/MOL
REMARK 923 INTER-LIGAND FREE ENERGY PREDICTED BY IDOCK:   -7.21 KCAL/MOL
REMARK 924 INTRA-LIGAND FREE ENERGY PREDICTED BY IDOCK:   -0.21 KCAL/MOL
REMARK 927      BINDING AFFINITY PREDICTED BY RF-SCORE:    0.00 PKD
ROOT
HETATM    1  O   UNL     1     -12.535  12.352  65.212  1.00  0.00    -0.611 OA 
HETATM    2  C   UNL     1     -11.896  12.676  66.204  1.00  0.00    -0.418 C  
ENDROOT
BRANCH   2   3
HETATM    3  O   UNL     1     -11.994  12.112  67.437  1.00  0.00    -0.563 OA 
BRANCH   3   4
HETATM    4  O   UNL     1     -12.017  13.216  68.406  1.00  0.00    -0.341 OA 
BRANCH   4   5
HETATM    5  C   UNL     1     -12.067  12.653  69.643  1.00  0.00    -0.213 C  
HETATM    6  O   UNL     1     -12.032  11.461  69.902  1.00  0.00    -0.307 OA 
BRANCH   5   7
HETATM    7  C   UNL     1     -12.245  13.705  70.681  1.00  0.00    -0.434 A  
HETATM    8  C   UNL     1     -11.636  15.798  71.744  1.00  0.00    -0.541 A  
HETATM    9  C   UNL     1     -11.447  14.855  70.727  1.00  0.00    -0.313 A  
HETATM   10  C   UNL     1     -12.623  15.600  72.711  1.00  0.00    -0.536 A  
HETATM   11  C   UNL     1     -13.425  14.460  72.668  1.00  0.00    -0.605 A  
HETATM   12  C   UNL     1     -13.234  13.512  71.659  1.00  0.00    -0.449 A  
ENDBRANCH   5   7
ENDBRANCH   4   5
ENDBRANCH   3   4
ENDBRANCH   2   3
BRANCH   2  13
HETATM   13  C   UNL     1     -10.863  13.753  66.185  1.00  0.00    -0.279 A  
HETATM   14  C   UNL     1      -8.667  14.649  66.705  1.00  0.00    -0.233 A  
HETATM   15  C   UNL     1     -11.200  14.979  65.590  1.00  0.00    -0.327 A  
HETATM   16  C   UNL     1      -9.587  13.594  66.742  1.00  0.00    -0.277 A  
HETATM   17  C   UNL     1     -10.279  16.029  65.553  1.00  0.00    -0.389 A  
HETATM   18  C   UNL     1      -9.013  15.863  66.111  1.00  0.00    -0.376 A  
ENDBRANCH   2  13
TORSDOF 5
ENDMDL
MODEL       67
REMARK 921   NORMALIZED FREE ENERGY PREDICTED BY IDOCK:   -4.18 KCAL/MOL
REMARK 922        TOTAL FREE ENERGY PREDICTED BY IDOCK:   -7.41 KCAL/MOL
REMARK 923 INTER-LIGAND FREE ENERGY PREDICTED BY IDOCK:   -6.98 KCAL/MOL
REMARK 924 INTRA-LIGAND FREE ENERGY PREDICTED BY IDOCK:   -0.43 KCAL/MOL
REMARK 927      BINDING AFFINITY PREDICTED BY RF-SCORE:    0.00 PKD
ROOT
HETATM    1  O   UNL     1     -11.774  11.460  67.275  1.00  0.00    -0.577 OA 
HETATM    2  C   UNL     1     -11.881  12.659  67.492  1.00  0.00    -0.334 C  
ENDROOT
BRANCH   2   3
HETATM    3  O   UNL     1     -12.099  13.236  68.704  1.00  0.00    -0.337 OA 
BRANCH   3   4
HETATM    4  O   UNL     1     -11.370  12.430  69.692  1.00  0.00    -0.217 OA 
BRANCH   4   5
HETATM    5  C   UNL     1     -12.217  12.231  70.739  1.00  0.00    -0.260 C  
HETATM    6  O   UNL     1     -12.888  13.080  71.304  1.00  0.00    -0.353 OA 
BRANCH   5   7
HETATM    7  C   UNL     1     -12.173  10.808  71.174  1.00  0.00    -0.457 A  
HETATM    8  C   UNL     1     -13.113   8.876  72.297  1.00  0.00    -0.491 A  
HETATM    9  C   UNL     1     -13.221  10.209  71.884  1.00  0.00    -0.557 A  
HETATM   10  C   UNL     1     -11.968   8.137  71.996  1.00  0.00    -0.390 A  
HETATM   11  C   UNL     1     -10.923   8.726  71.284  1.00  0.00    -0.345 A  
HETATM   12  C   UNL     1     -11.023  10.059  70.878  1.00  0.00    -0.337 A  
ENDBRANCH   5   7
ENDBRANCH   4   5
ENDBRANCH   3   4
ENDBRANCH   2   3
BRANCH   2  13
HETATM   13  C   UNL     1     -11.750  13.690  66.421  1.00  0.00    -0.403 A  
HETATM   14  C   UNL     1     -12.373  14.692  64.299  1.00  0.00    -0.375 A  
HETATM   15  C   UNL     1     -10.762  14.677  66.572  1.00  0.00    -0.312 A  
HETATM   16  C   UNL     1     -12.556  13.705  65.274  1.00  0.00    -0.512 A  
HETATM   17  C   UNL     1     -10.583  15.661  65.597  1.00  0.00    -0.393 A  
HETATM   18  C   UNL     1     -11.389  15.668  64.461  1.00  0.00    -0.327 A  
ENDBRANCH   2  13
TORSDOF 5
ENDMDL
MODEL       68
REMARK 921   NORMALIZED FREE ENERGY PREDICTED BY IDOCK:   -4.18 KCAL/MOL
REMARK 922        TOTAL FREE ENERGY PREDICTED BY IDOCK:   -7.40 KCAL/MOL
REMARK 923 INTER-LIGAND FREE ENERGY PREDICTED BY IDOCK:   -6.29 KCAL/MOL
REMARK 924 INTRA-LIGAND FREE ENERGY PREDICTED BY IDOCK:   -1.11 KCAL/MOL
REMARK 927      BINDING AFFINITY PREDICTED BY RF-SCORE:    0.00 PKD
ROOT
HETATM    1  O   UNL     1     -11.195  13.660  65.156  1.00  0.00    -0.298 OA 
HETATM    2  C   UNL     1     -10.949  13.772  66.348  1.00  0.00    -0.298 C  
ENDROOT
BRANCH   2   3
HETATM    3  O   UNL     1     -10.965  14.930  67.063  1.00  0.00    -0.312 OA 
BRANCH   3   4
HETATM    4  O   UNL     1     -12.134  14.861  67.951  1.00  0.00    -0.257 OA 
BRANCH   4   5
HETATM    5  C   UNL     1     -11.780  15.470  69.115  1.00  0.00    -0.365 C  
HETATM    6  O   UNL     1     -10.982  16.385  69.244  1.00  0.00    -0.305 OA 
BRANCH   5   7
HETATM    7  C   UNL     1     -12.458  14.815  70.266  1.00  0.00    -0.393 A  
HETATM    8  C   UNL     1     -13.818  14.872  72.273  1.00  0.00    -0.588 A  
HETATM    9  C   UNL     1     -13.228  15.533  71.190  1.00  0.00    -0.576 A  
HETATM   10  C   UNL     1     -13.648  13.496  72.433  1.00  0.00    -0.709 A  
HETATM   11  C   UNL     1     -12.887  12.773  71.515  1.00  0.00    -0.369 A  
HETATM   12  C   UNL     1     -12.289  13.432  70.436  1.00  0.00    -0.382 A  
ENDBRANCH   5   7
ENDBRANCH   4   5
ENDBRANCH   3   4
ENDBRANCH   2   3
BRANCH   2  13
HETATM   13  C   UNL     1     -10.614  12.607  67.219  1.00  0.00    -0.244 A  
HETATM   14  C   UNL     1      -9.182  11.414  68.775  1.00  0.00    -0.108 A  
HETATM   15  C   UNL     1     -11.511  11.528  67.249  1.00  0.00    -0.338 A  
HETATM   16  C   UNL     1      -9.445  12.543  67.990  1.00  0.00    -0.209 A  
HETATM   17  C   UNL     1     -11.247  10.404  68.036  1.00  0.00    -0.340 A  
HETATM   18  C   UNL     1     -10.081  10.348  68.798  1.00  0.00    -0.198 A  
ENDBRANCH   2  13
TORSDOF 5
ENDMDL
MODEL       69
REMARK 921   NORMALIZED FREE ENERGY PREDICTED BY IDOCK:   -4.17 KCAL/MOL
REMARK 922        TOTAL FREE ENERGY PREDICTED BY IDOCK:   -7.40 KCAL/MOL
REMARK 923 INTER-LIGAND FREE ENERGY PREDICTED BY IDOCK:   -6.99 KCAL/MOL
REMARK 924 INTRA-LIGAND FREE ENERGY PREDICTED BY IDOCK:   -0.41 KCAL/MOL
REMARK 927      BINDING AFFINITY PREDICTED BY RF-SCORE:    0.00 PKD
ROOT
HETATM    1  O   UNL     1     -12.102  11.098  67.740  1.00  0.00    -0.606 OA 
HETATM    2  C   UNL     1     -11.766  12.265  67.887  1.00  0.00    -0.347 C  
ENDROOT
BRANCH   2   3
HETATM    3  O   UNL     1     -11.474  12.871  69.069  1.00  0.00    -0.270 OA 
BRANCH   3   4
HETATM    4  O   UNL     1     -12.411  13.993  69.212  1.00  0.00    -0.324 OA 
BRANCH   4   5
HETATM    5  C   UNL     1     -11.713  15.019  69.771  1.00  0.00    -0.307 C  
HETATM    6  O   UNL     1     -10.795  15.640  69.259  1.00  0.00    -0.219 OA 
BRANCH   5   7
HETATM    7  C   UNL     1     -12.178  15.258  71.165  1.00  0.00    -0.409 A  
HETATM    8  C   UNL     1     -11.783  15.557  73.539  1.00  0.00    -0.275 A  
HETATM    9  C   UNL     1     -11.290  15.364  72.243  1.00  0.00    -0.421 A  
HETATM   10  C   UNL     1     -13.157  15.653  73.761  1.00  0.00    -0.497 A  
HETATM   11  C   UNL     1     -14.047  15.553  72.691  1.00  0.00    -0.536 A  
HETATM   12  C   UNL     1     -13.559  15.352  71.397  1.00  0.00    -0.604 A  
ENDBRANCH   5   7
ENDBRANCH   4   5
ENDBRANCH   3   4
ENDBRANCH   2   3
BRANCH   2  13
HETATM   13  C   UNL     1     -11.596  13.208  66.743  1.00  0.00    -0.414 A  
HETATM   14  C   UNL     1     -12.437  14.518  64.880  1.00  0.00    -0.321 A  
HETATM   15  C   UNL     1     -10.301  13.664  66.451  1.00  0.00    -0.286 A  
HETATM   16  C   UNL     1     -12.666  13.644  65.948  1.00  0.00    -0.428 A  
HETATM   17  C   UNL     1     -10.076  14.539  65.384  1.00  0.00    -0.394 A  
HETATM   18  C   UNL     1     -11.146  14.965  64.599  1.00  0.00    -0.335 A  
ENDBRANCH   2  13
TORSDOF 5
ENDMDL
MODEL       70
REMARK 921   NORMALIZED FREE ENERGY PREDICTED BY IDOCK:   -4.17 KCAL/MOL
REMARK 922        TOTAL FREE ENERGY PREDICTED BY IDOCK:   -7.39 KCAL/MOL
REMARK 923 INTER-LIGAND FREE ENERGY PREDICTED BY IDOCK:   -7.08 KCAL/MOL
REMARK 924 INTRA-LIGAND FREE ENERGY PREDICTED BY IDOCK:   -0.31 KCAL/MOL
REMARK 927      BINDING AFFINITY PREDICTED BY RF-SCORE:    0.00 PKD
ROOT
HETATM    1  O   UNL     1      -9.917  10.544  67.839  1.00  0.00    -0.164 OA 
HETATM    2  C   UNL     1     -11.044  10.782  68.251  1.00  0.00    -0.271 C  
ENDROOT
BRANCH   2   3
HETATM    3  O   UNL     1     -12.020  11.444  67.573  1.00  0.00    -0.626 OA 
BRANCH   3   4
HETATM    4  O   UNL     1     -11.571  11.544  66.178  1.00  0.00    -0.345 OA 
BRANCH   4   5
HETATM    5  C   UNL     1     -12.160  12.653  65.654  1.00  0.00    -0.443 C  
HETATM    6  O   UNL     1     -13.078  12.679  64.849  1.00  0.00    -0.850 OA 
BRANCH   5   7
HETATM    7  C   UNL     1     -11.478  13.881  66.147  1.00  0.00    -0.351 A  
HETATM    8  C   UNL     1     -11.233  15.722  67.706  1.00  0.00    -0.286 A  
HETATM    9  C   UNL     1     -11.890  14.553  67.304  1.00  0.00    -0.419 A  
HETATM   10  C   UNL     1     -10.161  16.217  66.961  1.00  0.00    -0.285 A  
HETATM   11  C   UNL     1      -9.742  15.549  65.810  1.00  0.00    -0.383 A  
HETATM   12  C   UNL     1     -10.401  14.387  65.402  1.00  0.00    -0.400 A  
ENDBRANCH   5   7
ENDBRANCH   4   5
ENDBRANCH   3   4
ENDBRANCH   2   3
BRANCH   2  13
HETATM   13  C   UNL     1     -11.528  10.336  69.590  1.00  0.00    -0.297 A  
HETATM   14  C   UNL     1     -12.872  10.587  71.596  1.00  0.00    -0.581 A  
HETATM   15  C   UNL     1     -10.997   9.149  70.121  1.00  0.00    -0.267 A  
HETATM   16  C   UNL     1     -12.471  11.053  70.339  1.00  0.00    -0.397 A  
HETATM   17  C   UNL     1     -11.402   8.685  71.375  1.00  0.00    -0.350 A  
HETATM   18  C   UNL     1     -12.339   9.406  72.112  1.00  0.00    -0.368 A  
ENDBRANCH   2  13
TORSDOF 5
ENDMDL
MODEL       71
REMARK 921   NORMALIZED FREE ENERGY PREDICTED BY IDOCK:   -4.15 KCAL/MOL
REMARK 922        TOTAL FREE ENERGY PREDICTED BY IDOCK:   -7.37 KCAL/MOL
REMARK 923 INTER-LIGAND FREE ENERGY PREDICTED BY IDOCK:   -6.90 KCAL/MOL
REMARK 924 INTRA-LIGAND FREE ENERGY PREDICTED BY IDOCK:   -0.47 KCAL/MOL
REMARK 927      BINDING AFFINITY PREDICTED BY RF-SCORE:    0.00 PKD
ROOT
HETATM    1  O   UNL     1      -9.611  12.833  67.639  1.00  0.00    -0.182 OA 
HETATM    2  C   UNL     1      -9.845  13.423  66.593  1.00  0.00    -0.278 C  
ENDROOT
BRANCH   2   3
HETATM    3  O   UNL     1      -9.333  14.628  66.224  1.00  0.00    -0.286 OA 
BRANCH   3   4
HETATM    4  O   UNL     1     -10.182  15.655  66.844  1.00  0.00    -0.268 OA 
BRANCH   4   5
HETATM    5  C   UNL     1     -10.363  16.630  65.914  1.00  0.00    -0.340 C  
HETATM    6  O   UNL     1     -10.877  16.500  64.813  1.00  0.00    -0.720 OA 
BRANCH   5   7
HETATM    7  C   UNL     1      -9.776  17.912  66.390  1.00  0.00    -0.321 A  
HETATM    8  C   UNL     1      -9.963  20.188  67.206  1.00  0.00    -0.583 A  
HETATM    9  C   UNL     1     -10.567  18.993  66.797  1.00  0.00    -0.508 A  
HETATM   10  C   UNL     1      -8.572  20.304  67.216  1.00  0.00    -0.425 A  
HETATM   11  C   UNL     1      -7.778  19.229  66.817  1.00  0.00    -0.267 A  
HETATM   12  C   UNL     1      -8.378  18.038  66.400  1.00  0.00    -0.275 A  
ENDBRANCH   5   7
ENDBRANCH   4   5
ENDBRANCH   3   4
ENDBRANCH   2   3
BRANCH   2  13
HETATM   13  C   UNL     1     -10.730  12.865  65.529  1.00  0.00    -0.301 A  
HETATM   14  C   UNL     1     -11.123  11.657  63.460  1.00  0.00    -0.476 A  
HETATM   15  C   UNL     1     -12.111  13.093  65.634  1.00  0.00    -0.501 A  
HETATM   16  C   UNL     1     -10.241  12.141  64.432  1.00  0.00    -0.333 A  
HETATM   17  C   UNL     1     -12.989  12.606  64.662  1.00  0.00    -0.225 A  
HETATM   18  C   UNL     1     -12.494  11.888  63.575  1.00  0.00    -0.609 A  
ENDBRANCH   2  13
TORSDOF 5
ENDMDL
MODEL       72
REMARK 921   NORMALIZED FREE ENERGY PREDICTED BY IDOCK:   -4.14 KCAL/MOL
REMARK 922        TOTAL FREE ENERGY PREDICTED BY IDOCK:   -7.36 KCAL/MOL
REMARK 923 INTER-LIGAND FREE ENERGY PREDICTED BY IDOCK:   -6.97 KCAL/MOL
REMARK 924 INTRA-LIGAND FREE ENERGY PREDICTED BY IDOCK:   -0.39 KCAL/MOL
REMARK 927      BINDING AFFINITY PREDICTED BY RF-SCORE:    0.00 PKD
ROOT
HETATM    1  O   UNL     1      -9.970  12.889  68.003  1.00  0.00    -0.222 OA 
HETATM    2  C   UNL     1     -11.039  12.596  67.485  1.00  0.00    -0.272 C  
ENDROOT
BRANCH   2   3
HETATM    3  O   UNL     1     -12.240  12.521  68.119  1.00  0.00    -0.270 OA 
BRANCH   3   4
HETATM    4  O   UNL     1     -12.268  11.229  68.818  1.00  0.00    -0.532 OA 
BRANCH   4   5
HETATM    5  C   UNL     1     -12.254  11.502  70.151  1.00  0.00    -0.308 C  
HETATM    6  O   UNL     1     -12.365  12.602  70.670  1.00  0.00    -0.359 OA 
BRANCH   5   7
HETATM    7  C   UNL     1     -12.010  10.258  70.930  1.00  0.00    -0.473 A  
HETATM    8  C   UNL     1     -10.666   8.331  71.533  1.00  0.00    -0.295 A  
HETATM    9  C   UNL     1     -10.831   9.512  70.800  1.00  0.00    -0.386 A  
HETATM   10  C   UNL     1     -11.670   7.897  72.401  1.00  0.00    -0.423 A  
HETATM   11  C   UNL     1     -12.844   8.637  72.538  1.00  0.00    -0.352 A  
HETATM   12  C   UNL     1     -13.015   9.812  71.802  1.00  0.00    -0.536 A  
ENDBRANCH   5   7
ENDBRANCH   4   5
ENDBRANCH   3   4
ENDBRANCH   2   3
BRANCH   2  13
HETATM   13  C   UNL     1     -11.180  12.301  66.029  1.00  0.00    -0.375 A  
HETATM   14  C   UNL     1     -10.476  11.239  63.962  1.00  0.00    -0.440 A  
HETATM   15  C   UNL     1     -12.239  12.906  65.333  1.00  0.00    -0.528 A  
HETATM   16  C   UNL     1     -10.298  11.463  65.332  1.00  0.00    -0.331 A  
HETATM   17  C   UNL     1     -12.415  12.678  63.966  1.00  0.00    -0.487 A  
HETATM   18  C   UNL     1     -11.533  11.845  63.282  1.00  0.00    -0.376 A  
ENDBRANCH   2  13
TORSDOF 5
ENDMDL
MODEL       73
REMARK 921   NORMALIZED FREE ENERGY PREDICTED BY IDOCK:   -4.14 KCAL/MOL
REMARK 922        TOTAL FREE ENERGY PREDICTED BY IDOCK:   -7.35 KCAL/MOL
REMARK 923 INTER-LIGAND FREE ENERGY PREDICTED BY IDOCK:   -6.71 KCAL/MOL
REMARK 924 INTRA-LIGAND FREE ENERGY PREDICTED BY IDOCK:   -0.64 KCAL/MOL
REMARK 927      BINDING AFFINITY PREDICTED BY RF-SCORE:    0.00 PKD
ROOT
HETATM    1  O   UNL     1     -13.362  11.741  72.050  1.00  0.00    -0.487 OA 
HETATM    2  C   UNL     1     -12.662  11.075  71.301  1.00  0.00    -0.432 C  
ENDROOT
BRANCH   2   3
HETATM    3  O   UNL     1     -11.827  11.561  70.344  1.00  0.00    -0.346 OA 
BRANCH   3   4
HETATM    4  O   UNL     1     -12.506  11.370  69.055  1.00  0.00    -0.364 OA 
BRANCH   4   5
HETATM    5  C   UNL     1     -11.843  12.134  68.145  1.00  0.00    -0.299 C  
HETATM    6  O   UNL     1     -11.839  13.353  68.083  1.00  0.00    -0.339 OA 
BRANCH   5   7
HETATM    7  C   UNL     1     -11.152  11.268  67.151  1.00  0.00    -0.364 A  
HETATM    8  C   UNL     1     -10.081   9.197  66.484  1.00  0.00    -0.357 A  
HETATM    9  C   UNL     1     -10.757   9.957  67.446  1.00  0.00    -0.323 A  
HETATM   10  C   UNL     1      -9.806   9.738  65.228  1.00  0.00    -0.335 A  
HETATM   11  C   UNL     1     -10.201  11.041  64.925  1.00  0.00    -0.373 A  
HETATM   12  C   UNL     1     -10.868  11.805  65.886  1.00  0.00    -0.339 A  
ENDBRANCH   5   7
ENDBRANCH   4   5
ENDBRANCH   3   4
ENDBRANCH   2   3
BRANCH   2  13
HETATM   13  C   UNL     1     -12.604   9.585  71.360  1.00  0.00    -0.447 A  
HETATM   14  C   UNL     1     -13.618   7.391  71.588  1.00  0.00    -0.449 A  
HETATM   15  C   UNL     1     -11.346   8.969  71.255  1.00  0.00    -0.389 A  
HETATM   16  C   UNL     1     -13.742   8.783  71.526  1.00  0.00    -0.384 A  
HETATM   17  C   UNL     1     -11.226   7.578  71.315  1.00  0.00    -0.274 A  
HETATM   18  C   UNL     1     -12.363   6.790  71.482  1.00  0.00    -0.407 A  
ENDBRANCH   2  13
TORSDOF 5
ENDMDL
MODEL       74
REMARK 921   NORMALIZED FREE ENERGY PREDICTED BY IDOCK:   -4.11 KCAL/MOL
REMARK 922        TOTAL FREE ENERGY PREDICTED BY IDOCK:   -7.32 KCAL/MOL
REMARK 923 INTER-LIGAND FREE ENERGY PREDICTED BY IDOCK:   -5.83 KCAL/MOL
REMARK 924 INTRA-LIGAND FREE ENERGY PREDICTED BY IDOCK:   -1.49 KCAL/MOL
REMARK 927      BINDING AFFINITY PREDICTED BY RF-SCORE:    0.00 PKD
ROOT
HETATM    1  O   UNL     1     -12.150  11.065  68.074  1.00  0.00    -0.615 OA 
HETATM    2  C   UNL     1     -11.239  11.569  67.432  1.00  0.00    -0.304 C  
ENDROOT
BRANCH   2   3
HETATM    3  O   UNL     1      -9.921  11.553  67.767  1.00  0.00    -0.177 OA 
BRANCH   3   4
HETATM    4  O   UNL     1      -9.672  12.767  68.556  1.00  0.00    -0.206 OA 
BRANCH   4   5
HETATM    5  C   UNL     1      -8.820  13.541  67.830  1.00  0.00    -0.198 C  
HETATM    6  O   UNL     1      -7.690  13.244  67.475  1.00  0.00    -0.154 OA 
BRANCH   5   7
HETATM    7  C   UNL     1      -9.431  14.873  67.567  1.00  0.00    -0.200 A  
HETATM    8  C   UNL     1     -10.667  16.842  68.257  1.00  0.00    -0.364 A  
HETATM    9  C   UNL     1     -10.081  15.608  68.566  1.00  0.00    -0.211 A  
HETATM   10  C   UNL     1     -10.598  17.346  66.958  1.00  0.00    -0.238 A  
HETATM   11  C   UNL     1      -9.947  16.621  65.960  1.00  0.00    -0.346 A  
HETATM   12  C   UNL     1      -9.369  15.386  66.262  1.00  0.00    -0.351 A  
ENDBRANCH   5   7
ENDBRANCH   4   5
ENDBRANCH   3   4
ENDBRANCH   2   3
BRANCH   2  13
HETATM   13  C   UNL     1     -11.456  12.269  66.132  1.00  0.00    -0.429 A  
HETATM   14  C   UNL     1     -10.987  12.652  63.781  1.00  0.00    -0.481 A  
HETATM   15  C   UNL     1     -12.404  13.303  66.089  1.00  0.00    -0.423 A  
HETATM   16  C   UNL     1     -10.748  11.947  64.966  1.00  0.00    -0.341 A  
HETATM   17  C   UNL     1     -12.643  14.003  64.904  1.00  0.00    -0.369 A  
HETATM   18  C   UNL     1     -11.933  13.677  63.750  1.00  0.00    -0.425 A  
ENDBRANCH   2  13
TORSDOF 5
ENDMDL
MODEL       75
REMARK 921   NORMALIZED FREE ENERGY PREDICTED BY IDOCK:   -4.10 KCAL/MOL
REMARK 922        TOTAL FREE ENERGY PREDICTED BY IDOCK:   -7.30 KCAL/MOL
REMARK 923 INTER-LIGAND FREE ENERGY PREDICTED BY IDOCK:   -6.24 KCAL/MOL
REMARK 924 INTRA-LIGAND FREE ENERGY PREDICTED BY IDOCK:   -1.06 KCAL/MOL
REMARK 927      BINDING AFFINITY PREDICTED BY RF-SCORE:    0.00 PKD
ROOT
HETATM    1  O   UNL     1     -14.323   8.605  72.630  1.00  0.00    -0.533 OA 
HETATM    2  C   UNL     1     -13.319   9.084  72.124  1.00  0.00    -0.455 C  
ENDROOT
BRANCH   2   3
HETATM    3  O   UNL     1     -13.104  10.403  71.869  1.00  0.00    -0.441 OA 
BRANCH   3   4
HETATM    4  O   UNL     1     -13.175  10.568  70.410  1.00  0.00    -0.235 OA 
BRANCH   4   5
HETATM    5  C   UNL     1     -12.302  11.559  70.083  1.00  0.00    -0.245 C  
HETATM    6  O   UNL     1     -12.108  12.592  70.704  1.00  0.00    -0.357 OA 
BRANCH   5   7
HETATM    7  C   UNL     1     -11.634  11.251  68.790  1.00  0.00    -0.383 A  
HETATM    8  C   UNL     1     -10.282   9.841  67.353  1.00  0.00    -0.284 A  
HETATM    9  C   UNL     1     -10.918  10.065  68.580  1.00  0.00    -0.255 A  
HETATM   10  C   UNL     1     -10.365  10.791  66.334  1.00  0.00    -0.306 A  
HETATM   11  C   UNL     1     -11.080  11.971  66.535  1.00  0.00    -0.362 A  
HETATM   12  C   UNL     1     -11.709  12.203  67.761  1.00  0.00    -0.390 A  
ENDBRANCH   5   7
ENDBRANCH   4   5
ENDBRANCH   3   4
ENDBRANCH   2   3
BRANCH   2  13
HETATM   13  C   UNL     1     -12.138   8.261  71.731  1.00  0.00    -0.364 A  
HETATM   14  C   UNL     1      -9.758   7.787  71.674  1.00  0.00    -0.200 A  
HETATM   15  C   UNL     1     -12.364   7.110  70.959  1.00  0.00    -0.376 A  
HETATM   16  C   UNL     1     -10.824   8.594  72.087  1.00  0.00    -0.424 A  
HETATM   17  C   UNL     1     -11.298   6.305  70.551  1.00  0.00    -0.428 A  
HETATM   18  C   UNL     1      -9.994   6.645  70.909  1.00  0.00    -0.204 A  
ENDBRANCH   2  13
TORSDOF 5
ENDMDL
MODEL       76
REMARK 921   NORMALIZED FREE ENERGY PREDICTED BY IDOCK:   -4.08 KCAL/MOL
REMARK 922        TOTAL FREE ENERGY PREDICTED BY IDOCK:   -7.27 KCAL/MOL
REMARK 923 INTER-LIGAND FREE ENERGY PREDICTED BY IDOCK:   -6.16 KCAL/MOL
REMARK 924 INTRA-LIGAND FREE ENERGY PREDICTED BY IDOCK:   -1.11 KCAL/MOL
REMARK 927      BINDING AFFINITY PREDICTED BY RF-SCORE:    0.00 PKD
ROOT
HETATM    1  O   UNL     1     -13.630  10.385  71.643  1.00  0.00    -0.250 OA 
HETATM    2  C   UNL     1     -12.747  11.177  71.346  1.00  0.00    -0.418 C  
ENDROOT
BRANCH   2   3
HETATM    3  O   UNL     1     -11.502  10.857  70.902  1.00  0.00    -0.205 OA 
BRANCH   3   4
HETATM    4  O   UNL     1     -11.680  10.101  69.655  1.00  0.00    -0.195 OA 
BRANCH   4   5
HETATM    5  C   UNL     1     -10.528  10.236  68.945  1.00  0.00    -0.211 C  
HETATM    6  O   UNL     1      -9.576   9.471  68.949  1.00  0.00    -0.151 OA 
BRANCH   5   7
HETATM    7  C   UNL     1     -10.538  11.515  68.184  1.00  0.00    -0.226 A  
HETATM    8  C   UNL     1      -9.596  13.670  67.594  1.00  0.00    -0.221 A  
HETATM    9  C   UNL     1      -9.521  12.469  68.309  1.00  0.00    -0.201 A  
HETATM   10  C   UNL     1     -10.679  13.918  66.749  1.00  0.00    -0.281 A  
HETATM   11  C   UNL     1     -11.693  12.969  66.615  1.00  0.00    -0.438 A  
HETATM   12  C   UNL     1     -11.625  11.773  67.334  1.00  0.00    -0.352 A  
ENDBRANCH   5   7
ENDBRANCH   4   5
ENDBRANCH   3   4
ENDBRANCH   2   3
BRANCH   2  13
HETATM   13  C   UNL     1     -12.933  12.657  71.405  1.00  0.00    -0.353 A  
HETATM   14  C   UNL     1     -13.883  14.678  72.355  1.00  0.00    -0.580 A  
HETATM   15  C   UNL     1     -12.278  13.442  70.443  1.00  0.00    -0.415 A  
HETATM   16  C   UNL     1     -13.738  13.286  72.364  1.00  0.00    -0.678 A  
HETATM   17  C   UNL     1     -12.423  14.832  70.439  1.00  0.00    -0.405 A  
HETATM   18  C   UNL     1     -13.226  15.449  71.395  1.00  0.00    -0.578 A  
ENDBRANCH   2  13
TORSDOF 5
ENDMDL
MODEL       77
REMARK 921   NORMALIZED FREE ENERGY PREDICTED BY IDOCK:   -4.08 KCAL/MOL
REMARK 922        TOTAL FREE ENERGY PREDICTED BY IDOCK:   -7.27 KCAL/MOL
REMARK 923 INTER-LIGAND FREE ENERGY PREDICTED BY IDOCK:   -6.62 KCAL/MOL
REMARK 924 INTRA-LIGAND FREE ENERGY PREDICTED BY IDOCK:   -0.65 KCAL/MOL
REMARK 927      BINDING AFFINITY PREDICTED BY RF-SCORE:    0.00 PKD
ROOT
HETATM    1  O   UNL     1      -9.518  10.238  69.827  1.00  0.00    -0.191 OA 
HETATM    2  C   UNL     1     -10.727  10.429  69.842  1.00  0.00    -0.279 C  
ENDROOT
BRANCH   2   3
HETATM    3  O   UNL     1     -11.396  11.370  69.124  1.00  0.00    -0.238 OA 
BRANCH   3   4
HETATM    4  O   UNL     1     -10.813  12.670  69.485  1.00  0.00     0.008 OA 
BRANCH   4   5
HETATM    5  C   UNL     1     -11.775  13.606  69.268  1.00  0.00    -0.325 C  
HETATM    6  O   UNL     1     -12.182  13.995  68.184  1.00  0.00    -0.325 OA 
BRANCH   5   7
HETATM    7  C   UNL     1     -12.244  14.173  70.562  1.00  0.00    -0.431 A  
HETATM    8  C   UNL     1     -13.705  14.186  72.497  1.00  0.00    -0.626 A  
HETATM    9  C   UNL     1     -13.282  13.593  71.302  1.00  0.00    -0.308 A  
HETATM   10  C   UNL     1     -13.090  15.350  72.961  1.00  0.00    -0.624 A  
HETATM   11  C   UNL     1     -12.051  15.929  72.232  1.00  0.00    -0.597 A  
HETATM   12  C   UNL     1     -11.632  15.345  71.034  1.00  0.00    -0.410 A  
ENDBRANCH   5   7
ENDBRANCH   4   5
ENDBRANCH   3   4
ENDBRANCH   2   3
BRANCH   2  13
HETATM   13  C   UNL     1     -11.666   9.603  70.656  1.00  0.00    -0.353 A  
HETATM   14  C   UNL     1     -12.490   7.490  71.522  1.00  0.00    -0.375 A  
HETATM   15  C   UNL     1     -12.700  10.262  71.340  1.00  0.00    -0.547 A  
HETATM   16  C   UNL     1     -11.567   8.208  70.754  1.00  0.00    -0.249 A  
HETATM   17  C   UNL     1     -13.618   9.543  72.108  1.00  0.00    -0.500 A  
HETATM   18  C   UNL     1     -13.513   8.156  72.199  1.00  0.00    -0.253 A  
ENDBRANCH   2  13
TORSDOF 5
ENDMDL
MODEL       78
REMARK 921   NORMALIZED FREE ENERGY PREDICTED BY IDOCK:   -4.08 KCAL/MOL
REMARK 922        TOTAL FREE ENERGY PREDICTED BY IDOCK:   -7.27 KCAL/MOL
REMARK 923 INTER-LIGAND FREE ENERGY PREDICTED BY IDOCK:   -6.91 KCAL/MOL
REMARK 924 INTRA-LIGAND FREE ENERGY PREDICTED BY IDOCK:   -0.36 KCAL/MOL
REMARK 927      BINDING AFFINITY PREDICTED BY RF-SCORE:    0.00 PKD
ROOT
HETATM    1  O   UNL     1     -11.145  19.059  67.454  1.00  0.00    -0.395 OA 
HETATM    2  C   UNL     1     -10.292  18.183  67.434  1.00  0.00    -0.389 C  
ENDROOT
BRANCH   2   3
HETATM    3  O   UNL     1     -10.501  16.859  67.668  1.00  0.00    -0.315 OA 
BRANCH   3   4
HETATM    4  O   UNL     1     -10.970  16.744  69.055  1.00  0.00    -0.304 OA 
BRANCH   4   5
HETATM    5  C   UNL     1     -11.693  15.594  69.132  1.00  0.00    -0.390 C  
HETATM    6  O   UNL     1     -12.016  14.874  68.200  1.00  0.00    -0.304 OA 
BRANCH   5   7
HETATM    7  C   UNL     1     -12.118  15.346  70.536  1.00  0.00    -0.411 A  
HETATM    8  C   UNL     1     -12.151  15.892  72.899  1.00  0.00    -0.612 A  
HETATM    9  C   UNL     1     -11.750  16.190  71.591  1.00  0.00    -0.558 A  
HETATM   10  C   UNL     1     -12.924  14.758  73.155  1.00  0.00    -0.623 A  
HETATM   11  C   UNL     1     -13.299  13.916  72.109  1.00  0.00    -0.555 A  
HETATM   12  C   UNL     1     -12.893  14.206  70.803  1.00  0.00    -0.378 A  
ENDBRANCH   5   7
ENDBRANCH   4   5
ENDBRANCH   3   4
ENDBRANCH   2   3
BRANCH   2  13
HETATM   13  C   UNL     1      -8.861  18.453  67.110  1.00  0.00    -0.264 A  
HETATM   14  C   UNL     1      -6.731  17.882  66.093  1.00  0.00    -0.315 A  
HETATM   15  C   UNL     1      -8.285  19.634  67.604  1.00  0.00    -0.335 A  
HETATM   16  C   UNL     1      -8.073  17.578  66.350  1.00  0.00    -0.309 A  
HETATM   17  C   UNL     1      -6.946  19.937  67.343  1.00  0.00    -0.262 A  
HETATM   18  C   UNL     1      -6.170  19.060  66.588  1.00  0.00    -0.195 A  
ENDBRANCH   2  13
TORSDOF 5
ENDMDL
MODEL       79
REMARK 921   NORMALIZED FREE ENERGY PREDICTED BY IDOCK:   -4.07 KCAL/MOL
REMARK 922        TOTAL FREE ENERGY PREDICTED BY IDOCK:   -7.27 KCAL/MOL
REMARK 923 INTER-LIGAND FREE ENERGY PREDICTED BY IDOCK:   -6.86 KCAL/MOL
REMARK 924 INTRA-LIGAND FREE ENERGY PREDICTED BY IDOCK:   -0.40 KCAL/MOL
REMARK 927      BINDING AFFINITY PREDICTED BY RF-SCORE:    0.00 PKD
ROOT
HETATM    1  O   UNL     1     -10.768  16.535  65.131  1.00  0.00    -0.606 OA 
HETATM    2  C   UNL     1     -10.885  15.469  65.718  1.00  0.00    -0.331 C  
ENDROOT
BRANCH   2   3
HETATM    3  O   UNL     1     -10.924  15.299  67.067  1.00  0.00    -0.322 OA 
BRANCH   3   4
HETATM    4  O   UNL     1     -11.156  16.626  67.653  1.00  0.00    -0.244 OA 
BRANCH   4   5
HETATM    5  C   UNL     1     -10.067  16.916  68.415  1.00  0.00    -0.304 C  
HETATM    6  O   UNL     1      -9.648  16.269  69.362  1.00  0.00    -0.240 OA 
BRANCH   5   7
HETATM    7  C   UNL     1      -9.463  18.205  67.982  1.00  0.00    -0.290 A  
HETATM    8  C   UNL     1      -9.612  20.543  67.352  1.00  0.00    -0.578 A  
HETATM    9  C   UNL     1     -10.227  19.364  67.792  1.00  0.00    -0.530 A  
HETATM   10  C   UNL     1      -8.238  20.570  67.109  1.00  0.00    -0.353 A  
HETATM   11  C   UNL     1      -7.471  19.421  67.300  1.00  0.00    -0.254 A  
HETATM   12  C   UNL     1      -8.083  18.241  67.731  1.00  0.00    -0.256 A  
ENDBRANCH   5   7
ENDBRANCH   4   5
ENDBRANCH   3   4
ENDBRANCH   2   3
BRANCH   2  13
HETATM   13  C   UNL     1     -11.037  14.166  65.008  1.00  0.00    -0.372 A  
HETATM   14  C   UNL     1     -10.362  11.889  64.501  1.00  0.00    -0.334 A  
HETATM   15  C   UNL     1     -12.090  14.036  64.087  1.00  0.00    -0.456 A  
HETATM   16  C   UNL     1     -10.173  13.081  65.210  1.00  0.00    -0.294 A  
HETATM   17  C   UNL     1     -12.277  12.844  63.382  1.00  0.00    -0.574 A  
HETATM   18  C   UNL     1     -11.412  11.772  63.589  1.00  0.00    -0.524 A  
ENDBRANCH   2  13
TORSDOF 5
ENDMDL
MODEL       80
REMARK 921   NORMALIZED FREE ENERGY PREDICTED BY IDOCK:   -4.07 KCAL/MOL
REMARK 922        TOTAL FREE ENERGY PREDICTED BY IDOCK:   -7.26 KCAL/MOL
REMARK 923 INTER-LIGAND FREE ENERGY PREDICTED BY IDOCK:   -6.88 KCAL/MOL
REMARK 924 INTRA-LIGAND FREE ENERGY PREDICTED BY IDOCK:   -0.38 KCAL/MOL
REMARK 927      BINDING AFFINITY PREDICTED BY RF-SCORE:    0.00 PKD
ROOT
HETATM    1  O   UNL     1     -11.259  16.573  69.889  1.00  0.00    -0.303 OA 
HETATM    2  C   UNL     1     -10.735  16.581  68.784  1.00  0.00    -0.339 C  
ENDROOT
BRANCH   2   3
HETATM    3  O   UNL     1     -10.664  15.528  67.926  1.00  0.00    -0.276 OA 
BRANCH   3   4
HETATM    4  O   UNL     1     -11.713  14.582  68.330  1.00  0.00    -0.308 OA 
BRANCH   4   5
HETATM    5  C   UNL     1     -11.085  13.432  68.698  1.00  0.00    -0.263 C  
HETATM    6  O   UNL     1     -10.097  12.943  68.174  1.00  0.00    -0.227 OA 
BRANCH   5   7
HETATM    7  C   UNL     1     -11.818  12.781  69.818  1.00  0.00    -0.380 A  
HETATM    8  C   UNL     1     -13.171  12.853  71.829  1.00  0.00    -0.479 A  
HETATM    9  C   UNL     1     -12.526  13.515  70.778  1.00  0.00    -0.428 A  
HETATM   10  C   UNL     1     -13.118  11.461  71.920  1.00  0.00    -0.505 A  
HETATM   11  C   UNL     1     -12.419  10.724  70.965  1.00  0.00    -0.522 A  
HETATM   12  C   UNL     1     -11.767  11.382  69.919  1.00  0.00    -0.424 A  
ENDBRANCH   5   7
ENDBRANCH   4   5
ENDBRANCH   3   4
ENDBRANCH   2   3
BRANCH   2  13
HETATM   13  C   UNL     1     -10.107  17.799  68.195  1.00  0.00    -0.362 A  
HETATM   14  C   UNL     1     -10.169  19.843  66.885  1.00  0.00    -0.600 A  
HETATM   15  C   UNL     1      -8.738  18.009  68.420  1.00  0.00    -0.301 A  
HETATM   16  C   UNL     1     -10.820  18.727  67.423  1.00  0.00    -0.414 A  
HETATM   17  C   UNL     1      -8.091  19.126  67.884  1.00  0.00    -0.323 A  
HETATM   18  C   UNL     1      -8.808  20.042  67.116  1.00  0.00    -0.429 A  
ENDBRANCH   2  13
TORSDOF 5
ENDMDL
MODEL       81
REMARK 921   NORMALIZED FREE ENERGY PREDICTED BY IDOCK:   -4.07 KCAL/MOL
REMARK 922        TOTAL FREE ENERGY PREDICTED BY IDOCK:   -7.26 KCAL/MOL
REMARK 923 INTER-LIGAND FREE ENERGY PREDICTED BY IDOCK:   -5.37 KCAL/MOL
REMARK 924 INTRA-LIGAND FREE ENERGY PREDICTED BY IDOCK:   -1.89 KCAL/MOL
REMARK 927      BINDING AFFINITY PREDICTED BY RF-SCORE:    0.00 PKD
ROOT
HETATM    1  O   UNL     1     -11.022  15.989  69.253  1.00  0.00    -0.262 OA 
HETATM    2  C   UNL     1     -10.034  16.635  68.931  1.00  0.00    -0.271 C  
ENDROOT
BRANCH   2   3
HETATM    3  O   UNL     1      -8.747  16.348  69.267  1.00  0.00    -0.220 OA 
BRANCH   3   4
HETATM    4  O   UNL     1      -8.050  16.011  68.018  1.00  0.00    -0.142 OA 
BRANCH   4   5
HETATM    5  C   UNL     1      -6.782  16.492  68.133  1.00  0.00    -0.140 C  
HETATM    6  O   UNL     1      -5.865  15.982  68.757  1.00  0.00    -0.103 OA 
BRANCH   5   7
HETATM    7  C   UNL     1      -6.662  17.801  67.435  1.00  0.00    -0.182 A  
HETATM    8  C   UNL     1      -6.705  19.185  65.445  1.00  0.00    -0.279 A  
HETATM    9  C   UNL     1      -6.862  17.935  66.056  1.00  0.00    -0.336 A  
HETATM   10  C   UNL     1      -6.357  20.301  66.207  1.00  0.00    -0.232 A  
HETATM   11  C   UNL     1      -6.161  20.175  67.582  1.00  0.00    -0.250 A  
HETATM   12  C   UNL     1      -6.309  18.927  68.194  1.00  0.00    -0.231 A  
ENDBRANCH   5   7
ENDBRANCH   4   5
ENDBRANCH   3   4
ENDBRANCH   2   3
BRANCH   2  13
HETATM   13  C   UNL     1     -10.106  17.850  68.069  1.00  0.00    -0.360 A  
HETATM   14  C   UNL     1     -10.000  20.248  67.702  1.00  0.00    -0.551 A  
HETATM   15  C   UNL     1     -10.405  17.677  66.708  1.00  0.00    -0.331 A  
HETATM   16  C   UNL     1      -9.903  19.147  68.560  1.00  0.00    -0.483 A  
HETATM   17  C   UNL     1     -10.499  18.778  65.853  1.00  0.00    -0.424 A  
HETATM   18  C   UNL     1     -10.296  20.063  66.351  1.00  0.00    -0.573 A  
ENDBRANCH   2  13
TORSDOF 5
ENDMDL
MODEL       82
REMARK 921   NORMALIZED FREE ENERGY PREDICTED BY IDOCK:   -4.07 KCAL/MOL
REMARK 922        TOTAL FREE ENERGY PREDICTED BY IDOCK:   -7.26 KCAL/MOL
REMARK 923 INTER-LIGAND FREE ENERGY PREDICTED BY IDOCK:   -6.62 KCAL/MOL
REMARK 924 INTRA-LIGAND FREE ENERGY PREDICTED BY IDOCK:   -0.64 KCAL/MOL
REMARK 927      BINDING AFFINITY PREDICTED BY RF-SCORE:    0.00 PKD
ROOT
HETATM    1  O   UNL     1     -11.688  13.950  65.997  1.00  0.00    -0.338 OA 
HETATM    2  C   UNL     1     -11.591  14.518  67.075  1.00  0.00    -0.386 C  
ENDROOT
BRANCH   2   3
HETATM    3  O   UNL     1     -12.252  14.185  68.216  1.00  0.00    -0.317 OA 
BRANCH   3   4
HETATM    4  O   UNL     1     -11.282  13.500  69.081  1.00  0.00    -0.260 OA 
BRANCH   4   5
HETATM    5  C   UNL     1     -11.991  12.931  70.094  1.00  0.00    -0.301 C  
HETATM    6  O   UNL     1     -12.319  11.759  70.184  1.00  0.00    -0.262 OA 
BRANCH   5   7
HETATM    7  C   UNL     1     -12.393  13.966  71.085  1.00  0.00    -0.440 A  
HETATM    8  C   UNL     1     -14.013  15.024  72.547  1.00  0.00    -0.551 A  
HETATM    9  C   UNL     1     -13.678  14.010  71.642  1.00  0.00    -0.419 A  
HETATM   10  C   UNL     1     -13.069  15.989  72.903  1.00  0.00    -0.548 A  
HETATM   11  C   UNL     1     -11.787  15.947  72.356  1.00  0.00    -0.618 A  
HETATM   12  C   UNL     1     -11.451  14.941  71.446  1.00  0.00    -0.317 A  
ENDBRANCH   5   7
ENDBRANCH   4   5
ENDBRANCH   3   4
ENDBRANCH   2   3
BRANCH   2  13
HETATM   13  C   UNL     1     -10.678  15.677  67.300  1.00  0.00    -0.305 A  
HETATM   14  C   UNL     1      -8.706  17.002  66.801  1.00  0.00    -0.272 A  
HETATM   15  C   UNL     1     -10.986  16.566  68.342  1.00  0.00    -0.348 A  
HETATM   16  C   UNL     1      -9.530  15.904  66.529  1.00  0.00    -0.299 A  
HETATM   17  C   UNL     1     -10.162  17.663  68.610  1.00  0.00    -0.377 A  
HETATM   18  C   UNL     1      -9.022  17.879  67.838  1.00  0.00    -0.264 A  
ENDBRANCH   2  13
TORSDOF 5
ENDMDL
MODEL       83
REMARK 921   NORMALIZED FREE ENERGY PREDICTED BY IDOCK:   -4.06 KCAL/MOL
REMARK 922        TOTAL FREE ENERGY PREDICTED BY IDOCK:   -7.25 KCAL/MOL
REMARK 923 INTER-LIGAND FREE ENERGY PREDICTED BY IDOCK:   -5.35 KCAL/MOL
REMARK 924 INTRA-LIGAND FREE ENERGY PREDICTED BY IDOCK:   -1.91 KCAL/MOL
REMARK 927      BINDING AFFINITY PREDICTED BY RF-SCORE:    0.00 PKD
ROOT
HETATM    1  O   UNL     1     -11.724   5.367  72.892  1.00  0.00    -0.297 OA 
HETATM    2  C   UNL     1     -11.812   6.166  71.970  1.00  0.00    -0.280 C  
ENDROOT
BRANCH   2   3
HETATM    3  O   UNL     1     -12.657   7.230  71.913  1.00  0.00    -0.316 OA 
BRANCH   3   4
HETATM    4  O   UNL     1     -11.988   8.339  72.608  1.00  0.00    -0.399 OA 
BRANCH   4   5
HETATM    5  C   UNL     1     -12.274   9.471  71.909  1.00  0.00    -0.358 C  
HETATM    6  O   UNL     1     -13.265  10.173  72.036  1.00  0.00    -0.443 OA 
BRANCH   5   7
HETATM    7  C   UNL     1     -11.225   9.722  70.884  1.00  0.00    -0.429 A  
HETATM    8  C   UNL     1     -10.502  10.427  68.679  1.00  0.00    -0.216 A  
HETATM    9  C   UNL     1     -11.524  10.240  69.618  1.00  0.00    -0.297 A  
HETATM   10  C   UNL     1      -9.183  10.106  69.004  1.00  0.00    -0.188 A  
HETATM   11  C   UNL     1      -8.878   9.595  70.265  1.00  0.00    -0.253 A  
HETATM   12  C   UNL     1      -9.896   9.399  71.201  1.00  0.00    -0.287 A  
ENDBRANCH   5   7
ENDBRANCH   4   5
ENDBRANCH   3   4
ENDBRANCH   2   3
BRANCH   2  13
HETATM   13  C   UNL     1     -10.951   6.097  70.754  1.00  0.00    -0.365 A  
HETATM   14  C   UNL     1      -8.836   5.717  69.623  1.00  0.00    -0.124 A  
HETATM   15  C   UNL     1     -11.533   6.408  69.515  1.00  0.00    -0.412 A  
HETATM   16  C   UNL     1      -9.594   5.750  70.799  1.00  0.00    -0.210 A  
HETATM   17  C   UNL     1     -10.775   6.372  68.342  1.00  0.00    -0.349 A  
HETATM   18  C   UNL     1      -9.426   6.027  68.397  1.00  0.00    -0.124 A  
ENDBRANCH   2  13
TORSDOF 5
ENDMDL
MODEL       84
REMARK 921   NORMALIZED FREE ENERGY PREDICTED BY IDOCK:   -4.03 KCAL/MOL
REMARK 922        TOTAL FREE ENERGY PREDICTED BY IDOCK:   -7.21 KCAL/MOL
REMARK 923 INTER-LIGAND FREE ENERGY PREDICTED BY IDOCK:   -6.10 KCAL/MOL
REMARK 924 INTRA-LIGAND FREE ENERGY PREDICTED BY IDOCK:   -1.11 KCAL/MOL
REMARK 927      BINDING AFFINITY PREDICTED BY RF-SCORE:    0.00 PKD
ROOT
HETATM    1  O   UNL     1     -10.558   7.800  67.838  1.00  0.00    -0.209 OA 
HETATM    2  C   UNL     1     -10.407   8.675  68.680  1.00  0.00    -0.193 C  
ENDROOT
BRANCH   2   3
HETATM    3  O   UNL     1     -10.150   9.987  68.432  1.00  0.00    -0.156 OA 
BRANCH   3   4
HETATM    4  O   UNL     1     -11.451  10.663  68.345  1.00  0.00    -0.296 OA 
BRANCH   4   5
HETATM    5  C   UNL     1     -11.253  11.951  68.736  1.00  0.00    -0.259 C  
HETATM    6  O   UNL     1     -10.521  12.769  68.202  1.00  0.00    -0.222 OA 
BRANCH   5   7
HETATM    7  C   UNL     1     -12.013  12.234  69.983  1.00  0.00    -0.379 A  
HETATM    8  C   UNL     1     -13.260  11.536  71.944  1.00  0.00    -0.479 A  
HETATM    9  C   UNL     1     -12.523  11.214  70.797  1.00  0.00    -0.479 A  
HETATM   10  C   UNL     1     -13.481  12.872  72.284  1.00  0.00    -0.631 A  
HETATM   11  C   UNL     1     -12.972  13.892  71.480  1.00  0.00    -0.436 A  
HETATM   12  C   UNL     1     -12.244  13.574  70.331  1.00  0.00    -0.426 A  
ENDBRANCH   5   7
ENDBRANCH   4   5
ENDBRANCH   3   4
ENDBRANCH   2   3
BRANCH   2  13
HETATM   13  C   UNL     1     -10.519   8.415  70.145  1.00  0.00    -0.230 A  
HETATM   14  C   UNL     1      -9.723   8.572  72.434  1.00  0.00    -0.357 A  
HETATM   15  C   UNL     1     -11.624   7.680  70.602  1.00  0.00    -0.251 A  
HETATM   16  C   UNL     1      -9.567   8.861  71.073  1.00  0.00    -0.321 A  
HETATM   17  C   UNL     1     -11.778   7.395  71.961  1.00  0.00    -0.325 A  
HETATM   18  C   UNL     1     -10.826   7.841  72.876  1.00  0.00    -0.453 A  
ENDBRANCH   2  13
TORSDOF 5
ENDMDL
MODEL       85
REMARK 921   NORMALIZED FREE ENERGY PREDICTED BY IDOCK:   -4.00 KCAL/MOL
REMARK 922        TOTAL FREE ENERGY PREDICTED BY IDOCK:   -7.18 KCAL/MOL
REMARK 923 INTER-LIGAND FREE ENERGY PREDICTED BY IDOCK:   -5.92 KCAL/MOL
REMARK 924 INTRA-LIGAND FREE ENERGY PREDICTED BY IDOCK:   -1.25 KCAL/MOL
REMARK 927      BINDING AFFINITY PREDICTED BY RF-SCORE:    0.00 PKD
ROOT
HETATM    1  O   UNL     1     -12.732  13.545  64.454  1.00  0.00    -0.643 OA 
HETATM    2  C   UNL     1     -12.155  12.738  65.168  1.00  0.00    -0.450 C  
ENDROOT
BRANCH   2   3
HETATM    3  O   UNL     1     -12.396  12.524  66.490  1.00  0.00    -0.507 OA 
BRANCH   3   4
HETATM    4  O   UNL     1     -12.094  13.784  67.183  1.00  0.00    -0.398 OA 
BRANCH   4   5
HETATM    5  C   UNL     1     -11.840  13.467  68.481  1.00  0.00    -0.362 C  
HETATM    6  O   UNL     1     -12.466  13.846  69.459  1.00  0.00    -0.286 OA 
BRANCH   5   7
HETATM    7  C   UNL     1     -10.617  12.625  68.576  1.00  0.00    -0.262 A  
HETATM    8  C   UNL     1      -8.292  12.150  68.074  1.00  0.00    -0.167 A  
HETATM    9  C   UNL     1      -9.404  12.995  67.981  1.00  0.00    -0.213 A  
HETATM   10  C   UNL     1      -8.385  10.941  68.765  1.00  0.00    -0.151 A  
HETATM   11  C   UNL     1      -9.588  10.568  69.365  1.00  0.00    -0.170 A  
HETATM   12  C   UNL     1     -10.702  11.406  69.267  1.00  0.00    -0.195 A  
ENDBRANCH   5   7
ENDBRANCH   4   5
ENDBRANCH   3   4
ENDBRANCH   2   3
BRANCH   2  13
HETATM   13  C   UNL     1     -11.091  11.823  64.660  1.00  0.00    -0.363 A  
HETATM   14  C   UNL     1      -9.543  11.044  62.960  1.00  0.00    -0.386 A  
HETATM   15  C   UNL     1     -10.650  10.791  65.504  1.00  0.00    -0.205 A  
HETATM   16  C   UNL     1     -10.528  11.944  63.382  1.00  0.00    -0.487 A  
HETATM   17  C   UNL     1      -9.665   9.896  65.080  1.00  0.00    -0.376 A  
HETATM   18  C   UNL     1      -9.112  10.023  63.807  1.00  0.00    -0.302 A  
ENDBRANCH   2  13
TORSDOF 5
ENDMDL
MODEL       86
REMARK 921   NORMALIZED FREE ENERGY PREDICTED BY IDOCK:   -4.00 KCAL/MOL
REMARK 922        TOTAL FREE ENERGY PREDICTED BY IDOCK:   -7.17 KCAL/MOL
REMARK 923 INTER-LIGAND FREE ENERGY PREDICTED BY IDOCK:   -6.71 KCAL/MOL
REMARK 924 INTRA-LIGAND FREE ENERGY PREDICTED BY IDOCK:   -0.46 KCAL/MOL
REMARK 927      BINDING AFFINITY PREDICTED BY RF-SCORE:    0.00 PKD
ROOT
HETATM    1  O   UNL     1     -12.284  13.638  68.135  1.00  0.00    -0.322 OA 
HETATM    2  C   UNL     1     -11.752  14.086  67.129  1.00  0.00    -0.393 C  
ENDROOT
BRANCH   2   3
HETATM    3  O   UNL     1     -11.242  15.339  66.985  1.00  0.00    -0.330 OA 
BRANCH   3   4
HETATM    4  O   UNL     1     -11.356  15.994  68.294  1.00  0.00    -0.353 OA 
BRANCH   4   5
HETATM    5  C   UNL     1     -10.098  16.358  68.663  1.00  0.00    -0.244 C  
HETATM    6  O   UNL     1      -9.379  15.783  69.465  1.00  0.00    -0.265 OA 
BRANCH   5   7
HETATM    7  C   UNL     1      -9.714  17.632  67.996  1.00  0.00    -0.301 A  
HETATM    8  C   UNL     1      -8.180  19.012  66.722  1.00  0.00    -0.288 A  
HETATM    9  C   UNL     1      -8.506  17.781  67.304  1.00  0.00    -0.239 A  
HETATM   10  C   UNL     1      -9.059  20.091  66.823  1.00  0.00    -0.467 A  
HETATM   11  C   UNL     1     -10.266  19.948  67.506  1.00  0.00    -0.562 A  
HETATM   12  C   UNL     1     -10.591  18.724  68.095  1.00  0.00    -0.292 A  
ENDBRANCH   5   7
ENDBRANCH   4   5
ENDBRANCH   3   4
ENDBRANCH   2   3
BRANCH   2  13
HETATM   13  C   UNL     1     -11.557  13.279  65.889  1.00  0.00    -0.380 A  
HETATM   14  C   UNL     1     -11.951  12.794  63.543  1.00  0.00    -0.633 A  
HETATM   15  C   UNL     1     -10.737  12.142  65.965  1.00  0.00    -0.308 A  
HETATM   16  C   UNL     1     -12.163  13.601  64.667  1.00  0.00    -0.448 A  
HETATM   17  C   UNL     1     -10.525  11.340  64.840  1.00  0.00    -0.375 A  
HETATM   18  C   UNL     1     -11.133  11.667  63.630  1.00  0.00    -0.506 A  
ENDBRANCH   2  13
TORSDOF 5
ENDMDL
MODEL       87
REMARK 921   NORMALIZED FREE ENERGY PREDICTED BY IDOCK:   -3.99 KCAL/MOL
REMARK 922        TOTAL FREE ENERGY PREDICTED BY IDOCK:   -7.16 KCAL/MOL
REMARK 923 INTER-LIGAND FREE ENERGY PREDICTED BY IDOCK:   -6.74 KCAL/MOL
REMARK 924 INTRA-LIGAND FREE ENERGY PREDICTED BY IDOCK:   -0.43 KCAL/MOL
REMARK 927      BINDING AFFINITY PREDICTED BY RF-SCORE:    0.00 PKD
ROOT
HETATM    1  O   UNL     1      -8.910  19.878  65.652  1.00  0.00    -0.307 OA 
HETATM    2  C   UNL     1      -9.044  18.758  66.123  1.00  0.00    -0.141 C  
ENDROOT
BRANCH   2   3
HETATM    3  O   UNL     1     -10.151  17.974  66.019  1.00  0.00    -0.494 OA 
BRANCH   3   4
HETATM    4  O   UNL     1      -9.720  16.714  65.400  1.00  0.00    -0.501 OA 
BRANCH   4   5
HETATM    5  C   UNL     1     -10.802  16.202  64.754  1.00  0.00    -0.262 C  
HETATM    6  O   UNL     1     -11.560  16.807  64.011  1.00  0.00    -1.195 OA 
BRANCH   5   7
HETATM    7  C   UNL     1     -11.000  14.776  65.130  1.00  0.00    -0.403 A  
HETATM    8  C   UNL     1     -12.310  12.737  65.204  1.00  0.00    -0.555 A  
HETATM    9  C   UNL     1     -12.162  14.068  64.797  1.00  0.00    -0.454 A  
HETATM   10  C   UNL     1     -11.300  12.109  65.935  1.00  0.00    -0.407 A  
HETATM   11  C   UNL     1     -10.139  12.807  66.266  1.00  0.00    -0.267 A  
HETATM   12  C   UNL     1      -9.991  14.138  65.868  1.00  0.00    -0.331 A  
ENDBRANCH   5   7
ENDBRANCH   4   5
ENDBRANCH   3   4
ENDBRANCH   2   3
BRANCH   2  13
HETATM   13  C   UNL     1      -7.962  18.062  66.878  1.00  0.00    -0.251 A  
HETATM   14  C   UNL     1      -5.788  16.994  67.045  1.00  0.00    -0.214 A  
HETATM   15  C   UNL     1      -8.174  17.795  68.240  1.00  0.00    -0.285 A  
HETATM   16  C   UNL     1      -6.758  17.656  66.285  1.00  0.00    -0.317 A  
HETATM   17  C   UNL     1      -7.202  17.135  68.997  1.00  0.00    -0.229 A  
HETATM   18  C   UNL     1      -6.009  16.735  68.398  1.00  0.00    -0.126 A  
ENDBRANCH   2  13
TORSDOF 5
ENDMDL
MODEL       88
REMARK 921   NORMALIZED FREE ENERGY PREDICTED BY IDOCK:   -3.99 KCAL/MOL
REMARK 922        TOTAL FREE ENERGY PREDICTED BY IDOCK:   -7.16 KCAL/MOL
REMARK 923 INTER-LIGAND FREE ENERGY PREDICTED BY IDOCK:   -6.48 KCAL/MOL
REMARK 924 INTRA-LIGAND FREE ENERGY PREDICTED BY IDOCK:   -0.68 KCAL/MOL
REMARK 927      BINDING AFFINITY PREDICTED BY RF-SCORE:    0.00 PKD
ROOT
HETATM    1  O   UNL     1     -10.734  19.791  66.618  1.00  0.00    -0.473 OA 
HETATM    2  C   UNL     1      -9.671  19.189  66.550  1.00  0.00    -0.359 C  
ENDROOT
BRANCH   2   3
HETATM    3  O   UNL     1      -9.409  18.118  65.754  1.00  0.00    -0.476 OA 
BRANCH   3   4
HETATM    4  O   UNL     1     -10.615  17.278  65.766  1.00  0.00    -0.438 OA 
BRANCH   4   5
HETATM    5  C   UNL     1     -10.212  16.016  66.076  1.00  0.00    -0.341 C  
HETATM    6  O   UNL     1      -9.471  15.305  65.414  1.00  0.00    -0.220 OA 
BRANCH   5   7
HETATM    7  C   UNL     1     -10.862  15.563  67.335  1.00  0.00    -0.312 A  
HETATM    8  C   UNL     1     -11.582  15.907  69.625  1.00  0.00    -0.339 A  
HETATM    9  C   UNL     1     -10.990  16.395  68.454  1.00  0.00    -0.353 A  
HETATM   10  C   UNL     1     -12.053  14.594  69.680  1.00  0.00    -0.355 A  
HETATM   11  C   UNL     1     -11.934  13.762  68.567  1.00  0.00    -0.402 A  
HETATM   12  C   UNL     1     -11.336  14.243  67.400  1.00  0.00    -0.349 A  
ENDBRANCH   5   7
ENDBRANCH   4   5
ENDBRANCH   3   4
ENDBRANCH   2   3
BRANCH   2  13
HETATM   13  C   UNL     1      -8.466  19.582  67.338  1.00  0.00    -0.336 A  
HETATM   14  C   UNL     1      -6.341  20.724  67.609  1.00  0.00    -0.361 A  
HETATM   15  C   UNL     1      -8.344  19.089  68.646  1.00  0.00    -0.397 A  
HETATM   16  C   UNL     1      -7.454  20.405  66.824  1.00  0.00    -0.329 A  
HETATM   17  C   UNL     1      -7.233  19.412  69.429  1.00  0.00    -0.276 A  
HETATM   18  C   UNL     1      -6.232  20.229  68.909  1.00  0.00    -0.365 A  
ENDBRANCH   2  13
TORSDOF 5
ENDMDL
MODEL       89
REMARK 921   NORMALIZED FREE ENERGY PREDICTED BY IDOCK:   -3.94 KCAL/MOL
REMARK 922        TOTAL FREE ENERGY PREDICTED BY IDOCK:   -7.09 KCAL/MOL
REMARK 923 INTER-LIGAND FREE ENERGY PREDICTED BY IDOCK:   -6.73 KCAL/MOL
REMARK 924 INTRA-LIGAND FREE ENERGY PREDICTED BY IDOCK:   -0.36 KCAL/MOL
REMARK 927      BINDING AFFINITY PREDICTED BY RF-SCORE:    0.00 PKD
ROOT
HETATM    1  O   UNL     1     -11.324  15.612  68.571  1.00  0.00    -0.322 OA 
HETATM    2  C   UNL     1     -11.670  14.505  68.183  1.00  0.00    -0.337 C  
ENDROOT
BRANCH   2   3
HETATM    3  O   UNL     1     -12.171  13.506  68.959  1.00  0.00    -0.320 OA 
BRANCH   3   4
HETATM    4  O   UNL     1     -11.074  12.554  69.181  1.00  0.00    -0.243 OA 
BRANCH   4   5
HETATM    5  C   UNL     1     -11.535  11.330  68.809  1.00  0.00    -0.293 C  
HETATM    6  O   UNL     1     -11.842  10.980  67.680  1.00  0.00    -0.599 OA 
BRANCH   5   7
HETATM    7  C   UNL     1     -11.690  10.453  70.001  1.00  0.00    -0.366 A  
HETATM    8  C   UNL     1     -10.849   8.841  71.605  1.00  0.00    -0.399 A  
HETATM    9  C   UNL     1     -10.639   9.673  70.499  1.00  0.00    -0.369 A  
HETATM   10  C   UNL     1     -12.101   8.791  72.220  1.00  0.00    -0.423 A  
HETATM   11  C   UNL     1     -13.151   9.569  71.732  1.00  0.00    -0.504 A  
HETATM   12  C   UNL     1     -12.947  10.394  70.623  1.00  0.00    -0.357 A  
ENDBRANCH   5   7
ENDBRANCH   4   5
ENDBRANCH   3   4
ENDBRANCH   2   3
BRANCH   2  13
HETATM   13  C   UNL     1     -11.617  14.096  66.749  1.00  0.00    -0.409 A  
HETATM   14  C   UNL     1     -12.647  13.457  64.645  1.00  0.00    -0.322 A  
HETATM   15  C   UNL     1     -10.355  13.939  66.154  1.00  0.00    -0.303 A  
HETATM   16  C   UNL     1     -12.765  13.853  65.982  1.00  0.00    -0.410 A  
HETATM   17  C   UNL     1     -10.240  13.547  64.818  1.00  0.00    -0.355 A  
HETATM   18  C   UNL     1     -11.388  13.305  64.065  1.00  0.00    -0.403 A  
ENDBRANCH   2  13
TORSDOF 5
ENDMDL
MODEL       90
REMARK 921   NORMALIZED FREE ENERGY PREDICTED BY IDOCK:   -3.93 KCAL/MOL
REMARK 922        TOTAL FREE ENERGY PREDICTED BY IDOCK:   -7.08 KCAL/MOL
REMARK 923 INTER-LIGAND FREE ENERGY PREDICTED BY IDOCK:   -6.74 KCAL/MOL
REMARK 924 INTRA-LIGAND FREE ENERGY PREDICTED BY IDOCK:   -0.34 KCAL/MOL
REMARK 927      BINDING AFFINITY PREDICTED BY RF-SCORE:    0.00 PKD
ROOT
HETATM    1  O   UNL     1      -9.267   9.489  69.445  1.00  0.00    -0.156 OA 
HETATM    2  C   UNL     1     -10.281  10.172  69.490  1.00  0.00    -0.236 C  
ENDROOT
BRANCH   2   3
HETATM    3  O   UNL     1     -10.578  11.217  68.673  1.00  0.00    -0.184 OA 
BRANCH   3   4
HETATM    4  O   UNL     1     -11.461  10.693  67.622  1.00  0.00    -0.474 OA 
BRANCH   4   5
HETATM    5  C   UNL     1     -10.778  10.791  66.449  1.00  0.00    -0.163 C  
HETATM    6  O   UNL     1      -9.802  10.136  66.118  1.00  0.00    -0.209 OA 
BRANCH   5   7
HETATM    7  C   UNL     1     -11.344  11.885  65.613  1.00  0.00    -0.339 A  
HETATM    8  C   UNL     1     -11.734  12.978  63.484  1.00  0.00    -0.532 A  
HETATM    9  C   UNL     1     -11.209  11.908  64.219  1.00  0.00    -0.424 A  
HETATM   10  C   UNL     1     -12.399  14.018  64.134  1.00  0.00    -0.374 A  
HETATM   11  C   UNL     1     -12.541  13.998  65.521  1.00  0.00    -0.543 A  
HETATM   12  C   UNL     1     -12.012  12.937  66.259  1.00  0.00    -0.472 A  
ENDBRANCH   5   7
ENDBRANCH   4   5
ENDBRANCH   3   4
ENDBRANCH   2   3
BRANCH   2  13
HETATM   13  C   UNL     1     -11.383   9.921  70.465  1.00  0.00    -0.399 A  
HETATM   14  C   UNL     1     -12.733   8.476  71.873  1.00  0.00    -0.401 A  
HETATM   15  C   UNL     1     -12.161  11.014  70.876  1.00  0.00    -0.471 A  
HETATM   16  C   UNL     1     -11.676   8.647  70.972  1.00  0.00    -0.319 A  
HETATM   17  C   UNL     1     -13.215  10.840  71.778  1.00  0.00    -0.523 A  
HETATM   18  C   UNL     1     -13.500   9.570  72.275  1.00  0.00    -0.521 A  
ENDBRANCH   2  13
TORSDOF 5
ENDMDL
MODEL       91
REMARK 921   NORMALIZED FREE ENERGY PREDICTED BY IDOCK:   -3.93 KCAL/MOL
REMARK 922        TOTAL FREE ENERGY PREDICTED BY IDOCK:   -7.08 KCAL/MOL
REMARK 923 INTER-LIGAND FREE ENERGY PREDICTED BY IDOCK:   -6.66 KCAL/MOL
REMARK 924 INTRA-LIGAND FREE ENERGY PREDICTED BY IDOCK:   -0.42 KCAL/MOL
REMARK 927      BINDING AFFINITY PREDICTED BY RF-SCORE:    0.00 PKD
ROOT
HETATM    1  O   UNL     1     -11.261  16.509  69.526  1.00  0.00    -0.283 OA 
HETATM    2  C   UNL     1     -10.411  16.620  68.653  1.00  0.00    -0.323 C  
ENDROOT
BRANCH   2   3
HETATM    3  O   UNL     1      -9.789  15.596  68.009  1.00  0.00    -0.209 OA 
BRANCH   3   4
HETATM    4  O   UNL     1     -10.685  15.175  66.923  1.00  0.00    -0.296 OA 
BRANCH   4   5
HETATM    5  C   UNL     1     -10.853  13.831  67.051  1.00  0.00    -0.284 C  
HETATM    6  O   UNL     1     -10.703  13.172  68.068  1.00  0.00    -0.223 OA 
BRANCH   5   7
HETATM    7  C   UNL     1     -11.189  13.226  65.733  1.00  0.00    -0.313 A  
HETATM    8  C   UNL     1     -12.771  12.447  64.068  1.00  0.00    -0.450 A  
HETATM    9  C   UNL     1     -12.510  13.051  65.304  1.00  0.00    -0.555 A  
HETATM   10  C   UNL     1     -11.716  12.024  63.257  1.00  0.00    -0.425 A  
HETATM   11  C   UNL     1     -10.398  12.199  63.676  1.00  0.00    -0.482 A  
HETATM   12  C   UNL     1     -10.135  12.794  64.913  1.00  0.00    -0.235 A  
ENDBRANCH   5   7
ENDBRANCH   4   5
ENDBRANCH   3   4
ENDBRANCH   2   3
BRANCH   2  13
HETATM   13  C   UNL     1      -9.948  17.941  68.137  1.00  0.00    -0.350 A  
HETATM   14  C   UNL     1     -10.236  19.979  66.850  1.00  0.00    -0.595 A  
HETATM   15  C   UNL     1      -8.659  18.371  68.490  1.00  0.00    -0.341 A  
HETATM   16  C   UNL     1     -10.735  18.756  67.312  1.00  0.00    -0.490 A  
HETATM   17  C   UNL     1      -8.164  19.594  68.028  1.00  0.00    -0.347 A  
HETATM   18  C   UNL     1      -8.954  20.397  67.208  1.00  0.00    -0.460 A  
ENDBRANCH   2  13
TORSDOF 5
ENDMDL
MODEL       92
REMARK 921   NORMALIZED FREE ENERGY PREDICTED BY IDOCK:   -3.90 KCAL/MOL
REMARK 922        TOTAL FREE ENERGY PREDICTED BY IDOCK:   -7.04 KCAL/MOL
REMARK 923 INTER-LIGAND FREE ENERGY PREDICTED BY IDOCK:   -6.60 KCAL/MOL
REMARK 924 INTRA-LIGAND FREE ENERGY PREDICTED BY IDOCK:   -0.44 KCAL/MOL
REMARK 927      BINDING AFFINITY PREDICTED BY RF-SCORE:    0.00 PKD
ROOT
HETATM    1  O   UNL     1      -9.200   9.041  69.845  1.00  0.00    -0.156 OA 
HETATM    2  C   UNL     1     -10.141   9.821  69.788  1.00  0.00    -0.239 C  
ENDROOT
BRANCH   2   3
HETATM    3  O   UNL     1     -10.251  10.880  68.942  1.00  0.00    -0.185 OA 
BRANCH   3   4
HETATM    4  O   UNL     1     -11.028  10.416  67.784  1.00  0.00    -0.273 OA 
BRANCH   4   5
HETATM    5  C   UNL     1     -10.231  10.565  66.691  1.00  0.00    -0.233 C  
HETATM    6  O   UNL     1      -9.104  10.117  66.545  1.00  0.00    -0.142 OA 
BRANCH   5   7
HETATM    7  C   UNL     1     -10.898  11.431  65.681  1.00  0.00    -0.280 A  
HETATM    8  C   UNL     1     -12.497  13.136  65.035  1.00  0.00    -0.516 A  
HETATM    9  C   UNL     1     -11.878  12.369  66.030  1.00  0.00    -0.459 A  
HETATM   10  C   UNL     1     -12.136  12.975  63.697  1.00  0.00    -0.604 A  
HETATM   11  C   UNL     1     -11.157  12.046  63.344  1.00  0.00    -0.476 A  
HETATM   12  C   UNL     1     -10.543  11.273  64.333  1.00  0.00    -0.410 A  
ENDBRANCH   5   7
ENDBRANCH   4   5
ENDBRANCH   3   4
ENDBRANCH   2   3
BRANCH   2  13
HETATM   13  C   UNL     1     -11.351   9.694  70.651  1.00  0.00    -0.379 A  
HETATM   14  C   UNL     1     -13.284  10.598  71.809  1.00  0.00    -0.526 A  
HETATM   15  C   UNL     1     -11.668   8.424  71.159  1.00  0.00    -0.315 A  
HETATM   16  C   UNL     1     -12.170  10.782  70.982  1.00  0.00    -0.485 A  
HETATM   17  C   UNL     1     -12.782   8.243  71.983  1.00  0.00    -0.376 A  
HETATM   18  C   UNL     1     -13.590   9.332  72.307  1.00  0.00    -0.544 A  
ENDBRANCH   2  13
TORSDOF 5
ENDMDL
MODEL       93
REMARK 921   NORMALIZED FREE ENERGY PREDICTED BY IDOCK:   -3.89 KCAL/MOL
REMARK 922        TOTAL FREE ENERGY PREDICTED BY IDOCK:   -7.03 KCAL/MOL
REMARK 923 INTER-LIGAND FREE ENERGY PREDICTED BY IDOCK:   -6.14 KCAL/MOL
REMARK 924 INTRA-LIGAND FREE ENERGY PREDICTED BY IDOCK:   -0.89 KCAL/MOL
REMARK 927      BINDING AFFINITY PREDICTED BY RF-SCORE:    0.00 PKD
ROOT
HETATM    1  O   UNL     1     -11.893  13.234  68.668  1.00  0.00    -0.318 OA 
HETATM    2  C   UNL     1     -11.622  13.953  67.716  1.00  0.00    -0.347 C  
ENDROOT
BRANCH   2   3
HETATM    3  O   UNL     1     -12.433  14.216  66.656  1.00  0.00    -0.426 OA 
BRANCH   3   4
HETATM    4  O   UNL     1     -12.633  12.943  65.951  1.00  0.00    -0.509 OA 
BRANCH   4   5
HETATM    5  C   UNL     1     -12.050  13.074  64.729  1.00  0.00    -0.415 C  
HETATM    6  O   UNL     1     -12.300  13.925  63.891  1.00  0.00    -0.662 OA 
BRANCH   5   7
HETATM    7  C   UNL     1     -11.079  11.969  64.500  1.00  0.00    -0.384 A  
HETATM    8  C   UNL     1      -9.742  10.093  65.259  1.00  0.00    -0.365 A  
HETATM    9  C   UNL     1     -10.683  11.096  65.521  1.00  0.00    -0.251 A  
HETATM   10  C   UNL     1      -9.202   9.955  63.980  1.00  0.00    -0.302 A  
HETATM   11  C   UNL     1      -9.595  10.818  62.957  1.00  0.00    -0.381 A  
HETATM   12  C   UNL     1     -10.528  11.825  63.217  1.00  0.00    -0.439 A  
ENDBRANCH   5   7
ENDBRANCH   4   5
ENDBRANCH   3   4
ENDBRANCH   2   3
BRANCH   2  13
HETATM   13  C   UNL     1     -10.329  14.689  67.600  1.00  0.00    -0.233 A  
HETATM   14  C   UNL     1      -8.976  16.703  67.677  1.00  0.00    -0.206 A  
HETATM   15  C   UNL     1      -9.183  13.958  67.247  1.00  0.00    -0.235 A  
HETATM   16  C   UNL     1     -10.216  16.070  67.816  1.00  0.00    -0.260 A  
HETATM   17  C   UNL     1      -7.947  14.594  67.111  1.00  0.00    -0.184 A  
HETATM   18  C   UNL     1      -7.844  15.967  67.326  1.00  0.00    -0.218 A  
ENDBRANCH   2  13
TORSDOF 5
ENDMDL
MODEL       94
REMARK 921   NORMALIZED FREE ENERGY PREDICTED BY IDOCK:   -3.89 KCAL/MOL
REMARK 922        TOTAL FREE ENERGY PREDICTED BY IDOCK:   -7.03 KCAL/MOL
REMARK 923 INTER-LIGAND FREE ENERGY PREDICTED BY IDOCK:   -5.89 KCAL/MOL
REMARK 924 INTRA-LIGAND FREE ENERGY PREDICTED BY IDOCK:   -1.13 KCAL/MOL
REMARK 927      BINDING AFFINITY PREDICTED BY RF-SCORE:    0.00 PKD
ROOT
HETATM    1  O   UNL     1     -11.347   9.323  70.392  1.00  0.00    -0.258 OA 
HETATM    2  C   UNL     1     -11.026  10.096  69.500  1.00  0.00    -0.256 C  
ENDROOT
BRANCH   2   3
HETATM    3  O   UNL     1     -11.360  11.412  69.423  1.00  0.00    -0.253 OA 
BRANCH   3   4
HETATM    4  O   UNL     1     -12.193  11.567  68.223  1.00  0.00    -0.561 OA 
BRANCH   4   5
HETATM    5  C   UNL     1     -11.973  12.824  67.751  1.00  0.00    -0.260 C  
HETATM    6  O   UNL     1     -11.904  13.848  68.412  1.00  0.00    -0.340 OA 
BRANCH   5   7
HETATM    7  C   UNL     1     -11.891  12.809  66.265  1.00  0.00    -0.485 A  
HETATM    8  C   UNL     1     -11.265  11.783  64.159  1.00  0.00    -0.437 A  
HETATM    9  C   UNL     1     -11.347  11.731  65.555  1.00  0.00    -0.283 A  
HETATM   10  C   UNL     1     -11.731  12.904  63.469  1.00  0.00    -0.576 A  
HETATM   11  C   UNL     1     -12.279  13.978  64.169  1.00  0.00    -0.433 A  
HETATM   12  C   UNL     1     -12.355  13.933  65.564  1.00  0.00    -0.506 A  
ENDBRANCH   5   7
ENDBRANCH   4   5
ENDBRANCH   3   4
ENDBRANCH   2   3
BRANCH   2  13
HETATM   13  C   UNL     1     -10.166   9.692  68.350  1.00  0.00    -0.214 A  
HETATM   14  C   UNL     1      -9.663   8.333  66.401  1.00  0.00    -0.300 A  
HETATM   15  C   UNL     1      -8.942  10.357  68.175  1.00  0.00    -0.132 A  
HETATM   16  C   UNL     1     -10.521   8.675  67.452  1.00  0.00    -0.351 A  
HETATM   17  C   UNL     1      -8.088  10.015  67.124  1.00  0.00    -0.117 A  
HETATM   18  C   UNL     1      -8.449   9.002  66.237  1.00  0.00    -0.132 A  
ENDBRANCH   2  13
TORSDOF 5
ENDMDL
MODEL       95
REMARK 921   NORMALIZED FREE ENERGY PREDICTED BY IDOCK:   -3.89 KCAL/MOL
REMARK 922        TOTAL FREE ENERGY PREDICTED BY IDOCK:   -7.03 KCAL/MOL
REMARK 923 INTER-LIGAND FREE ENERGY PREDICTED BY IDOCK:   -6.34 KCAL/MOL
REMARK 924 INTRA-LIGAND FREE ENERGY PREDICTED BY IDOCK:   -0.69 KCAL/MOL
REMARK 927      BINDING AFFINITY PREDICTED BY RF-SCORE:    0.00 PKD
ROOT
HETATM    1  O   UNL     1      -8.808  10.658  68.132  1.00  0.00    -0.127 OA 
HETATM    2  C   UNL     1      -9.854  10.248  68.617  1.00  0.00    -0.173 C  
ENDROOT
BRANCH   2   3
HETATM    3  O   UNL     1     -10.809  11.009  69.216  1.00  0.00    -0.219 OA 
BRANCH   3   4
HETATM    4  O   UNL     1     -11.829  11.287  68.195  1.00  0.00    -0.553 OA 
BRANCH   4   5
HETATM    5  C   UNL     1     -11.661  12.582  67.815  1.00  0.00    -0.359 C  
HETATM    6  O   UNL     1     -11.558  13.550  68.553  1.00  0.00    -0.287 OA 
BRANCH   5   7
HETATM    7  C   UNL     1     -11.689  12.691  66.331  1.00  0.00    -0.466 A  
HETATM    8  C   UNL     1     -12.372  13.769  64.269  1.00  0.00    -0.384 A  
HETATM    9  C   UNL     1     -12.351  13.732  65.669  1.00  0.00    -0.517 A  
HETATM   10  C   UNL     1     -11.729  12.775  63.530  1.00  0.00    -0.597 A  
HETATM   11  C   UNL     1     -11.064  11.738  64.184  1.00  0.00    -0.442 A  
HETATM   12  C   UNL     1     -11.047  11.693  65.580  1.00  0.00    -0.308 A  
ENDBRANCH   5   7
ENDBRANCH   4   5
ENDBRANCH   3   4
ENDBRANCH   2   3
BRANCH   2  13
HETATM   13  C   UNL     1     -10.250   8.810  68.589  1.00  0.00    -0.214 A  
HETATM   14  C   UNL     1     -10.893   6.768  67.444  1.00  0.00    -0.417 A  
HETATM   15  C   UNL     1     -10.378   8.137  69.815  1.00  0.00    -0.216 A  
HETATM   16  C   UNL     1     -10.511   8.113  67.401  1.00  0.00    -0.356 A  
HETATM   17  C   UNL     1     -10.757   6.793  69.854  1.00  0.00    -0.290 A  
HETATM   18  C   UNL     1     -11.016   6.109  68.668  1.00  0.00    -0.415 A  
ENDBRANCH   2  13
TORSDOF 5
ENDMDL
MODEL       96
REMARK 921   NORMALIZED FREE ENERGY PREDICTED BY IDOCK:   -3.89 KCAL/MOL
REMARK 922        TOTAL FREE ENERGY PREDICTED BY IDOCK:   -7.03 KCAL/MOL
REMARK 923 INTER-LIGAND FREE ENERGY PREDICTED BY IDOCK:   -6.55 KCAL/MOL
REMARK 924 INTRA-LIGAND FREE ENERGY PREDICTED BY IDOCK:   -0.47 KCAL/MOL
REMARK 927      BINDING AFFINITY PREDICTED BY RF-SCORE:    0.00 PKD
ROOT
HETATM    1  O   UNL     1     -10.218  10.533  69.120  1.00  0.00    -0.203 OA 
HETATM    2  C   UNL     1     -11.156  10.123  69.790  1.00  0.00    -0.279 C  
ENDROOT
BRANCH   2   3
HETATM    3  O   UNL     1     -12.396  10.680  69.853  1.00  0.00    -0.309 OA 
BRANCH   3   4
HETATM    4  O   UNL     1     -12.202  12.115  70.101  1.00  0.00    -0.292 OA 
BRANCH   4   5
HETATM    5  C   UNL     1     -12.781  12.389  71.301  1.00  0.00    -0.248 C  
HETATM    6  O   UNL     1     -13.472  11.632  71.966  1.00  0.00    -0.411 OA 
BRANCH   5   7
HETATM    7  C   UNL     1     -12.517  13.800  71.691  1.00  0.00    -0.309 A  
HETATM    8  C   UNL     1     -11.519  15.980  71.320  1.00  0.00    -0.475 A  
HETATM    9  C   UNL     1     -11.765  14.670  70.890  1.00  0.00    -0.335 A  
HETATM   10  C   UNL     1     -12.028  16.426  72.541  1.00  0.00    -0.579 A  
HETATM   11  C   UNL     1     -12.781  15.567  73.340  1.00  0.00    -0.653 A  
HETATM   12  C   UNL     1     -13.021  14.256  72.918  1.00  0.00    -0.548 A  
ENDBRANCH   5   7
ENDBRANCH   4   5
ENDBRANCH   3   4
ENDBRANCH   2   3
BRANCH   2  13
HETATM   13  C   UNL     1     -11.073   8.896  70.634  1.00  0.00    -0.306 A  
HETATM   14  C   UNL     1     -11.379   7.679  72.712  1.00  0.00    -0.419 A  
HETATM   15  C   UNL     1     -10.531   7.736  70.059  1.00  0.00    -0.230 A  
HETATM   16  C   UNL     1     -11.498   8.859  71.969  1.00  0.00    -0.431 A  
HETATM   17  C   UNL     1     -10.416   6.559  70.803  1.00  0.00    -0.262 A  
HETATM   18  C   UNL     1     -10.840   6.532  72.130  1.00  0.00    -0.264 A  
ENDBRANCH   2  13
TORSDOF 5
ENDMDL
MODEL       97
REMARK 921   NORMALIZED FREE ENERGY PREDICTED BY IDOCK:   -3.89 KCAL/MOL
REMARK 922        TOTAL FREE ENERGY PREDICTED BY IDOCK:   -7.02 KCAL/MOL
REMARK 923 INTER-LIGAND FREE ENERGY PREDICTED BY IDOCK:   -6.60 KCAL/MOL
REMARK 924 INTRA-LIGAND FREE ENERGY PREDICTED BY IDOCK:   -0.43 KCAL/MOL
REMARK 927      BINDING AFFINITY PREDICTED BY RF-SCORE:    0.00 PKD
ROOT
HETATM    1  O   UNL     1     -11.554  10.396  71.102  1.00  0.00    -0.333 OA 
HETATM    2  C   UNL     1     -12.130  11.200  70.382  1.00  0.00    -0.385 C  
ENDROOT
BRANCH   2   3
HETATM    3  O   UNL     1     -12.503  10.993  69.091  1.00  0.00    -0.432 OA 
BRANCH   3   4
HETATM    4  O   UNL     1     -11.392  10.285  68.439  1.00  0.00    -0.256 OA 
BRANCH   4   5
HETATM    5  C   UNL     1     -11.270  10.810  67.190  1.00  0.00    -0.147 C  
HETATM    6  O   UNL     1     -11.877  11.771  66.742  1.00  0.00    -0.586 OA 
BRANCH   5   7
HETATM    7  C   UNL     1     -10.321   9.999  66.381  1.00  0.00    -0.249 A  
HETATM    8  C   UNL     1      -8.924   9.640  64.431  1.00  0.00    -0.276 A  
HETATM    9  C   UNL     1      -9.789  10.457  65.169  1.00  0.00    -0.378 A  
HETATM   10  C   UNL     1      -8.584   8.371  64.903  1.00  0.00    -0.108 A  
HETATM   11  C   UNL     1      -9.106   7.911  66.111  1.00  0.00    -0.210 A  
HETATM   12  C   UNL     1      -9.976   8.721  66.846  1.00  0.00    -0.327 A  
ENDBRANCH   5   7
ENDBRANCH   4   5
ENDBRANCH   3   4
ENDBRANCH   2   3
BRANCH   2  13
HETATM   13  C   UNL     1     -12.545  12.554  70.851  1.00  0.00    -0.331 A  
HETATM   14  C   UNL     1     -13.696  14.055  72.374  1.00  0.00    -0.669 A  
HETATM   15  C   UNL     1     -12.137  13.667  70.098  1.00  0.00    -0.431 A  
HETATM   16  C   UNL     1     -13.329  12.758  71.995  1.00  0.00    -0.565 A  
HETATM   17  C   UNL     1     -12.503  14.960  70.480  1.00  0.00    -0.419 A  
HETATM   18  C   UNL     1     -13.284  15.152  71.618  1.00  0.00    -0.496 A  
ENDBRANCH   2  13
TORSDOF 5
ENDMDL
MODEL       98
REMARK 921   NORMALIZED FREE ENERGY PREDICTED BY IDOCK:   -3.88 KCAL/MOL
REMARK 922        TOTAL FREE ENERGY PREDICTED BY IDOCK:   -7.02 KCAL/MOL
REMARK 923 INTER-LIGAND FREE ENERGY PREDICTED BY IDOCK:   -6.56 KCAL/MOL
REMARK 924 INTRA-LIGAND FREE ENERGY PREDICTED BY IDOCK:   -0.46 KCAL/MOL
REMARK 927      BINDING AFFINITY PREDICTED BY RF-SCORE:    0.00 PKD
ROOT
HETATM    1  O   UNL     1      -6.588  18.126  65.375  1.00  0.00    -0.382 OA 
HETATM    2  C   UNL     1      -7.391  17.642  66.161  1.00  0.00    -0.309 C  
ENDROOT
BRANCH   2   3
HETATM    3  O   UNL     1      -7.496  16.326  66.488  1.00  0.00    -0.231 OA 
BRANCH   3   4
HETATM    4  O   UNL     1      -8.735  15.834  65.869  1.00  0.00    -0.260 OA 
BRANCH   4   5
HETATM    5  C   UNL     1      -9.180  14.807  66.643  1.00  0.00    -0.275 C  
HETATM    6  O   UNL     1      -8.699  14.430  67.700  1.00  0.00    -0.170 OA 
BRANCH   5   7
HETATM    7  C   UNL     1     -10.330  14.128  65.986  1.00  0.00    -0.316 A  
HETATM    8  C   UNL     1     -11.841  12.253  65.705  1.00  0.00    -0.423 A  
HETATM    9  C   UNL     1     -10.775  12.860  66.379  1.00  0.00    -0.286 A  
HETATM   10  C   UNL     1     -12.468  12.910  64.646  1.00  0.00    -0.499 A  
HETATM   11  C   UNL     1     -12.033  14.175  64.252  1.00  0.00    -0.460 A  
HETATM   12  C   UNL     1     -10.964  14.781  64.917  1.00  0.00    -0.425 A  
ENDBRANCH   5   7
ENDBRANCH   4   5
ENDBRANCH   3   4
ENDBRANCH   2   3
BRANCH   2  13
HETATM   13  C   UNL     1      -8.380  18.464  66.917  1.00  0.00    -0.261 A  
HETATM   14  C   UNL     1      -9.794  18.917  68.839  1.00  0.00    -0.447 A  
HETATM   15  C   UNL     1      -8.860  19.638  66.314  1.00  0.00    -0.410 A  
HETATM   16  C   UNL     1      -8.854  18.109  68.188  1.00  0.00    -0.289 A  
HETATM   17  C   UNL     1      -9.796  20.444  66.968  1.00  0.00    -0.594 A  
HETATM   18  C   UNL     1     -10.263  20.082  68.230  1.00  0.00    -0.527 A  
ENDBRANCH   2  13
TORSDOF 5
ENDMDL
MODEL       99
REMARK 921   NORMALIZED FREE ENERGY PREDICTED BY IDOCK:   -3.88 KCAL/MOL
REMARK 922        TOTAL FREE ENERGY PREDICTED BY IDOCK:   -7.02 KCAL/MOL
REMARK 923 INTER-LIGAND FREE ENERGY PREDICTED BY IDOCK:   -5.75 KCAL/MOL
REMARK 924 INTRA-LIGAND FREE ENERGY PREDICTED BY IDOCK:   -1.26 KCAL/MOL
REMARK 927      BINDING AFFINITY PREDICTED BY RF-SCORE:    0.00 PKD
ROOT
HETATM    1  O   UNL     1     -10.697  11.065  65.469  1.00  0.00    -0.232 OA 
HETATM    2  C   UNL     1     -10.545  10.923  66.675  1.00  0.00    -0.249 C  
ENDROOT
BRANCH   2   3
HETATM    3  O   UNL     1     -10.904  11.815  67.637  1.00  0.00    -0.199 OA 
BRANCH   3   4
HETATM    4  O   UNL     1     -12.072  11.247  68.325  1.00  0.00    -0.619 OA 
BRANCH   4   5
HETATM    5  C   UNL     1     -12.030  11.699  69.608  1.00  0.00    -0.324 C  
HETATM    6  O   UNL     1     -11.963  12.863  69.968  1.00  0.00    -0.334 OA 
BRANCH   5   7
HETATM    7  C   UNL     1     -12.005  10.552  70.556  1.00  0.00    -0.436 A  
HETATM    8  C   UNL     1     -10.885   8.715  71.675  1.00  0.00    -0.374 A  
HETATM    9  C   UNL     1     -10.845   9.804  70.797  1.00  0.00    -0.403 A  
HETATM   10  C   UNL     1     -12.076   8.376  72.320  1.00  0.00    -0.456 A  
HETATM   11  C   UNL     1     -13.233   9.120  72.089  1.00  0.00    -0.524 A  
HETATM   12  C   UNL     1     -13.198  10.202  71.206  1.00  0.00    -0.453 A  
ENDBRANCH   5   7
ENDBRANCH   4   5
ENDBRANCH   3   4
ENDBRANCH   2   3
BRANCH   2  13
HETATM   13  C   UNL     1      -9.953   9.692  67.276  1.00  0.00    -0.250 A  
HETATM   14  C   UNL     1     -10.014   7.345  67.894  1.00  0.00    -0.201 A  
HETATM   15  C   UNL     1      -8.676   9.789  67.853  1.00  0.00    -0.125 A  
HETATM   16  C   UNL     1     -10.618   8.459  67.300  1.00  0.00    -0.328 A  
HETATM   17  C   UNL     1      -8.074   8.675  68.442  1.00  0.00    -0.118 A  
HETATM   18  C   UNL     1      -8.744   7.453  68.462  1.00  0.00    -0.127 A  
ENDBRANCH   2  13
TORSDOF 5
ENDMDL
MODEL      100
REMARK 921   NORMALIZED FREE ENERGY PREDICTED BY IDOCK:   -3.86 KCAL/MOL
REMARK 922        TOTAL FREE ENERGY PREDICTED BY IDOCK:   -6.99 KCAL/MOL
REMARK 923 INTER-LIGAND FREE ENERGY PREDICTED BY IDOCK:   -6.58 KCAL/MOL
REMARK 924 INTRA-LIGAND FREE ENERGY PREDICTED BY IDOCK:   -0.40 KCAL/MOL
REMARK 927      BINDING AFFINITY PREDICTED BY RF-SCORE:    0.00 PKD
ROOT
HETATM    1  O   UNL     1     -10.969  19.378  67.434  1.00  0.00    -0.490 OA 
HETATM    2  C   UNL     1      -9.944  18.720  67.545  1.00  0.00    -0.338 C  
ENDROOT
BRANCH   2   3
HETATM    3  O   UNL     1      -9.854  17.364  67.484  1.00  0.00    -0.264 OA 
BRANCH   3   4
HETATM    4  O   UNL     1     -11.036  16.831  68.175  1.00  0.00    -0.356 OA 
BRANCH   4   5
HETATM    5  C   UNL     1     -10.730  15.561  68.554  1.00  0.00    -0.259 C  
HETATM    6  O   UNL     1     -10.015  14.774  67.954  1.00  0.00    -0.211 OA 
BRANCH   5   7
HETATM    7  C   UNL     1     -11.457  15.208  69.805  1.00  0.00    -0.321 A  
HETATM    8  C   UNL     1     -12.820  13.719  71.149  1.00  0.00    -0.409 A  
HETATM    9  C   UNL     1     -12.125  13.987  69.964  1.00  0.00    -0.412 A  
HETATM   10  C   UNL     1     -12.843  14.662  72.178  1.00  0.00    -0.408 A  
HETATM   11  C   UNL     1     -12.176  15.878  72.028  1.00  0.00    -0.570 A  
HETATM   12  C   UNL     1     -11.488  16.152  70.843  1.00  0.00    -0.421 A  
ENDBRANCH   5   7
ENDBRANCH   4   5
ENDBRANCH   3   4
ENDBRANCH   2   3
BRANCH   2  13
HETATM   13  C   UNL     1      -8.601  19.341  67.737  1.00  0.00    -0.341 A  
HETATM   14  C   UNL     1      -6.805  20.845  67.098  1.00  0.00    -0.417 A  
HETATM   15  C   UNL     1      -7.828  18.916  68.829  1.00  0.00    -0.359 A  
HETATM   16  C   UNL     1      -8.079  20.313  66.871  1.00  0.00    -0.346 A  
HETATM   17  C   UNL     1      -6.558  19.452  69.055  1.00  0.00    -0.347 A  
HETATM   18  C   UNL     1      -6.047  20.416  68.188  1.00  0.00    -0.313 A  
ENDBRANCH   2  13
TORSDOF 5
ENDMDL
MODEL      101
REMARK 921   NORMALIZED FREE ENERGY PREDICTED BY IDOCK:   -3.85 KCAL/MOL
REMARK 922        TOTAL FREE ENERGY PREDICTED BY IDOCK:   -6.97 KCAL/MOL
REMARK 923 INTER-LIGAND FREE ENERGY PREDICTED BY IDOCK:   -6.58 KCAL/MOL
REMARK 924 INTRA-LIGAND FREE ENERGY PREDICTED BY IDOCK:   -0.40 KCAL/MOL
REMARK 927      BINDING AFFINITY PREDICTED BY RF-SCORE:    0.00 PKD
ROOT
HETATM    1  O   UNL     1     -11.494   6.465  69.239  1.00  0.00    -0.381 OA 
HETATM    2  C   UNL     1     -11.694   6.499  70.446  1.00  0.00    -0.375 C  
ENDROOT
BRANCH   2   3
HETATM    3  O   UNL     1     -12.576   7.311  71.088  1.00  0.00    -0.351 OA 
BRANCH   3   4
HETATM    4  O   UNL     1     -12.002   8.663  71.060  1.00  0.00    -0.290 OA 
BRANCH   4   5
HETATM    5  C   UNL     1     -12.867   9.471  71.730  1.00  0.00    -0.406 C  
HETATM    6  O   UNL     1     -13.708   9.122  72.544  1.00  0.00    -0.474 OA 
BRANCH   5   7
HETATM    7  C   UNL     1     -12.705  10.882  71.284  1.00  0.00    -0.542 A  
HETATM    8  C   UNL     1     -11.845  12.570  69.770  1.00  0.00    -0.380 A  
HETATM    9  C   UNL     1     -11.994  11.225  70.127  1.00  0.00    -0.452 A  
HETATM   10  C   UNL     1     -12.410  13.573  70.560  1.00  0.00    -0.412 A  
HETATM   11  C   UNL     1     -13.124  13.238  71.710  1.00  0.00    -0.472 A  
HETATM   12  C   UNL     1     -13.267  11.897  72.074  1.00  0.00    -0.461 A  
ENDBRANCH   5   7
ENDBRANCH   4   5
ENDBRANCH   3   4
ENDBRANCH   2   3
BRANCH   2  13
HETATM   13  C   UNL     1     -10.993   5.599  71.407  1.00  0.00    -0.260 A  
HETATM   14  C   UNL     1      -9.303   3.954  71.989  1.00  0.00    -0.186 A  
HETATM   15  C   UNL     1     -11.456   5.560  72.732  1.00  0.00    -0.339 A  
HETATM   16  C   UNL     1      -9.909   4.789  71.042  1.00  0.00    -0.267 A  
HETATM   17  C   UNL     1     -10.848   4.728  73.675  1.00  0.00    -0.377 A  
HETATM   18  C   UNL     1      -9.772   3.925  73.302  1.00  0.00    -0.151 A  
ENDBRANCH   2  13
TORSDOF 5
ENDMDL
MODEL      102
REMARK 921   NORMALIZED FREE ENERGY PREDICTED BY IDOCK:   -3.84 KCAL/MOL
REMARK 922        TOTAL FREE ENERGY PREDICTED BY IDOCK:   -6.97 KCAL/MOL
REMARK 923 INTER-LIGAND FREE ENERGY PREDICTED BY IDOCK:   -6.08 KCAL/MOL
REMARK 924 INTRA-LIGAND FREE ENERGY PREDICTED BY IDOCK:   -0.89 KCAL/MOL
REMARK 927      BINDING AFFINITY PREDICTED BY RF-SCORE:    0.00 PKD
ROOT
HETATM    1  O   UNL     1      -8.290  13.604  68.496  1.00  0.00    -0.157 OA 
HETATM    2  C   UNL     1      -9.138  13.189  67.718  1.00  0.00    -0.200 C  
ENDROOT
BRANCH   2   3
HETATM    3  O   UNL     1      -9.595  11.910  67.641  1.00  0.00    -0.179 OA 
BRANCH   3   4
HETATM    4  O   UNL     1     -10.157  11.583  68.958  1.00  0.00    -0.163 OA 
BRANCH   4   5
HETATM    5  C   UNL     1     -11.511  11.587  68.820  1.00  0.00    -0.287 C  
HETATM    6  O   UNL     1     -12.156  11.013  67.957  1.00  0.00    -0.615 OA 
BRANCH   5   7
HETATM    7  C   UNL     1     -12.130  12.467  69.848  1.00  0.00    -0.317 A  
HETATM    8  C   UNL     1     -12.737  14.644  70.729  1.00  0.00    -0.422 A  
HETATM    9  C   UNL     1     -12.170  13.861  69.716  1.00  0.00    -0.388 A  
HETATM   10  C   UNL     1     -13.270  14.039  71.869  1.00  0.00    -0.477 A  
HETATM   11  C   UNL     1     -13.238  12.652  72.005  1.00  0.00    -0.531 A  
HETATM   12  C   UNL     1     -12.665  11.868  70.999  1.00  0.00    -0.354 A  
ENDBRANCH   5   7
ENDBRANCH   4   5
ENDBRANCH   3   4
ENDBRANCH   2   3
BRANCH   2  13
HETATM   13  C   UNL     1      -9.834  14.069  66.734  1.00  0.00    -0.275 A  
HETATM   14  C   UNL     1     -11.318  14.453  64.851  1.00  0.00    -0.380 A  
HETATM   15  C   UNL     1      -9.585  15.449  66.792  1.00  0.00    -0.257 A  
HETATM   16  C   UNL     1     -10.708  13.576  65.755  1.00  0.00    -0.278 A  
HETATM   17  C   UNL     1     -10.197  16.323  65.890  1.00  0.00    -0.384 A  
HETATM   18  C   UNL     1     -11.064  15.823  64.919  1.00  0.00    -0.411 A  
ENDBRANCH   2  13
TORSDOF 5
ENDMDL
MODEL      103
REMARK 921   NORMALIZED FREE ENERGY PREDICTED BY IDOCK:   -3.84 KCAL/MOL
REMARK 922        TOTAL FREE ENERGY PREDICTED BY IDOCK:   -6.97 KCAL/MOL
REMARK 923 INTER-LIGAND FREE ENERGY PREDICTED BY IDOCK:   -4.91 KCAL/MOL
REMARK 924 INTRA-LIGAND FREE ENERGY PREDICTED BY IDOCK:   -2.06 KCAL/MOL
REMARK 927      BINDING AFFINITY PREDICTED BY RF-SCORE:    0.00 PKD
ROOT
HETATM    1  O   UNL     1      -6.292  17.807  65.704  1.00  0.00    -0.207 OA 
HETATM    2  C   UNL     1      -6.909  17.587  66.737  1.00  0.00    -0.201 C  
ENDROOT
BRANCH   2   3
HETATM    3  O   UNL     1      -6.514  16.761  67.743  1.00  0.00    -0.132 OA 
BRANCH   3   4
HETATM    4  O   UNL     1      -6.835  15.392  67.316  1.00  0.00    -0.192 OA 
BRANCH   4   5
HETATM    5  C   UNL     1      -7.426  14.777  68.376  1.00  0.00    -0.114 C  
HETATM    6  O   UNL     1      -6.885  14.034  69.181  1.00  0.00    -0.108 OA 
BRANCH   5   7
HETATM    7  C   UNL     1      -8.883  15.077  68.400  1.00  0.00    -0.178 A  
HETATM    8  C   UNL     1     -11.085  15.111  67.385  1.00  0.00    -0.325 A  
HETATM    9  C   UNL     1      -9.727  14.778  67.323  1.00  0.00    -0.230 A  
HETATM   10  C   UNL     1     -11.605  15.734  68.521  1.00  0.00    -0.367 A  
HETATM   11  C   UNL     1     -10.771  16.031  69.599  1.00  0.00    -0.316 A  
HETATM   12  C   UNL     1      -9.413  15.708  69.537  1.00  0.00    -0.275 A  
ENDBRANCH   5   7
ENDBRANCH   4   5
ENDBRANCH   3   4
ENDBRANCH   2   3
BRANCH   2  13
HETATM   13  C   UNL     1      -8.211  18.242  67.058  1.00  0.00    -0.248 A  
HETATM   14  C   UNL     1     -10.483  18.908  66.525  1.00  0.00    -0.500 A  
HETATM   15  C   UNL     1      -8.341  18.873  68.306  1.00  0.00    -0.364 A  
HETATM   16  C   UNL     1      -9.294  18.263  66.168  1.00  0.00    -0.146 A  
HETATM   17  C   UNL     1      -9.531  19.514  68.659  1.00  0.00    -0.462 A  
HETATM   18  C   UNL     1     -10.602  19.531  67.767  1.00  0.00    -0.542 A  
ENDBRANCH   2  13
TORSDOF 5
ENDMDL
MODEL      104
REMARK 921   NORMALIZED FREE ENERGY PREDICTED BY IDOCK:   -3.84 KCAL/MOL
REMARK 922        TOTAL FREE ENERGY PREDICTED BY IDOCK:   -6.96 KCAL/MOL
REMARK 923 INTER-LIGAND FREE ENERGY PREDICTED BY IDOCK:   -5.09 KCAL/MOL
REMARK 924 INTRA-LIGAND FREE ENERGY PREDICTED BY IDOCK:   -1.87 KCAL/MOL
REMARK 927      BINDING AFFINITY PREDICTED BY RF-SCORE:    0.00 PKD
ROOT
HETATM    1  O   UNL     1     -11.354  19.937  66.964  1.00  0.00    -0.053 OA 
HETATM    2  C   UNL     1     -10.583  19.121  67.449  1.00  0.00    -0.481 C  
ENDROOT
BRANCH   2   3
HETATM    3  O   UNL     1     -10.890  17.846  67.807  1.00  0.00    -0.374 OA 
BRANCH   3   4
HETATM    4  O   UNL     1     -10.766  17.025  66.594  1.00  0.00    -0.228 OA 
BRANCH   4   5
HETATM    5  C   UNL     1     -10.435  15.770  67.001  1.00  0.00    -0.309 C  
HETATM    6  O   UNL     1     -11.161  14.789  67.000  1.00  0.00    -0.328 OA 
BRANCH   5   7
HETATM    7  C   UNL     1      -9.045  15.751  67.533  1.00  0.00    -0.201 A  
HETATM    8  C   UNL     1      -7.429  15.396  69.306  1.00  0.00    -0.207 A  
HETATM    9  C   UNL     1      -8.751  15.365  68.847  1.00  0.00    -0.208 A  
HETATM   10  C   UNL     1      -6.399  15.803  68.455  1.00  0.00    -0.108 A  
HETATM   11  C   UNL     1      -6.684  16.183  67.144  1.00  0.00    -0.227 A  
HETATM   12  C   UNL     1      -8.004  16.162  66.685  1.00  0.00    -0.305 A  
ENDBRANCH   5   7
ENDBRANCH   4   5
ENDBRANCH   3   4
ENDBRANCH   2   3
BRANCH   2  13
HETATM   13  C   UNL     1      -9.140  19.416  67.693  1.00  0.00    -0.362 A  
HETATM   14  C   UNL     1      -7.138  19.416  69.066  1.00  0.00    -0.397 A  
HETATM   15  C   UNL     1      -8.415  20.050  66.672  1.00  0.00    -0.370 A  
HETATM   16  C   UNL     1      -8.490  19.099  68.894  1.00  0.00    -0.318 A  
HETATM   17  C   UNL     1      -7.064  20.363  66.846  1.00  0.00    -0.328 A  
HETATM   18  C   UNL     1      -6.427  20.045  68.044  1.00  0.00    -0.291 A  
ENDBRANCH   2  13
TORSDOF 5
ENDMDL
MODEL      105
REMARK 921   NORMALIZED FREE ENERGY PREDICTED BY IDOCK:   -3.83 KCAL/MOL
REMARK 922        TOTAL FREE ENERGY PREDICTED BY IDOCK:   -6.96 KCAL/MOL
REMARK 923 INTER-LIGAND FREE ENERGY PREDICTED BY IDOCK:   -4.84 KCAL/MOL
REMARK 924 INTRA-LIGAND FREE ENERGY PREDICTED BY IDOCK:   -2.11 KCAL/MOL
REMARK 927      BINDING AFFINITY PREDICTED BY RF-SCORE:    0.00 PKD
ROOT
HETATM    1  O   UNL     1     -11.148   6.286  68.339  1.00  0.00    -0.323 OA 
HETATM    2  C   UNL     1     -11.099   6.225  69.560  1.00  0.00    -0.408 C  
ENDROOT
BRANCH   2   3
HETATM    3  O   UNL     1     -12.033   6.709  70.422  1.00  0.00    -0.396 OA 
BRANCH   3   4
HETATM    4  O   UNL     1     -11.655   8.098  70.718  1.00  0.00    -0.283 OA 
BRANCH   4   5
HETATM    5  C   UNL     1     -11.840   8.279  72.054  1.00  0.00    -0.347 C  
HETATM    6  O   UNL     1     -12.826   8.757  72.594  1.00  0.00    -0.383 OA 
BRANCH   5   7
HETATM    7  C   UNL     1     -10.620   7.873  72.803  1.00  0.00    -0.418 A  
HETATM    8  C   UNL     1      -9.470   6.547  74.476  1.00  0.00    -0.281 A  
HETATM    9  C   UNL     1     -10.641   6.868  73.779  1.00  0.00    -0.333 A  
HETATM   10  C   UNL     1      -8.279   7.219  74.198  1.00  0.00    -0.188 A  
HETATM   11  C   UNL     1      -8.251   8.217  73.224  1.00  0.00    -0.238 A  
HETATM   12  C   UNL     1      -9.419   8.546  72.531  1.00  0.00    -0.328 A  
ENDBRANCH   5   7
ENDBRANCH   4   5
ENDBRANCH   3   4
ENDBRANCH   2   3
BRANCH   2  13
HETATM   13  C   UNL     1      -9.983   5.561  70.293  1.00  0.00    -0.281 A  
HETATM   14  C   UNL     1      -9.092   3.921  71.846  1.00  0.00    -0.165 A  
HETATM   15  C   UNL     1      -8.680   6.045  70.090  1.00  0.00    -0.139 A  
HETATM   16  C   UNL     1     -10.181   4.491  71.177  1.00  0.00    -0.163 A  
HETATM   17  C   UNL     1      -7.595   5.472  70.758  1.00  0.00    -0.090 A  
HETATM   18  C   UNL     1      -7.802   4.410  71.636  1.00  0.00    -0.080 A  
ENDBRANCH   2  13
TORSDOF 5
ENDMDL
MODEL      106
REMARK 921   NORMALIZED FREE ENERGY PREDICTED BY IDOCK:   -3.83 KCAL/MOL
REMARK 922        TOTAL FREE ENERGY PREDICTED BY IDOCK:   -6.95 KCAL/MOL
REMARK 923 INTER-LIGAND FREE ENERGY PREDICTED BY IDOCK:   -6.53 KCAL/MOL
REMARK 924 INTRA-LIGAND FREE ENERGY PREDICTED BY IDOCK:   -0.42 KCAL/MOL
REMARK 927      BINDING AFFINITY PREDICTED BY RF-SCORE:    0.00 PKD
ROOT
HETATM    1  O   UNL     1     -11.665  10.716  69.231  1.00  0.00    -0.281 OA 
HETATM    2  C   UNL     1     -11.896  10.943  70.410  1.00  0.00    -0.357 C  
ENDROOT
BRANCH   2   3
HETATM    3  O   UNL     1     -11.661  10.096  71.448  1.00  0.00    -0.360 OA 
BRANCH   3   4
HETATM    4  O   UNL     1     -12.260   8.805  71.082  1.00  0.00    -0.291 OA 
BRANCH   4   5
HETATM    5  C   UNL     1     -11.691   7.866  71.885  1.00  0.00    -0.297 C  
HETATM    6  O   UNL     1     -11.592   7.912  73.101  1.00  0.00    -0.292 OA 
BRANCH   5   7
HETATM    7  C   UNL     1     -11.121   6.763  71.065  1.00  0.00    -0.317 A  
HETATM    8  C   UNL     1      -9.920   4.671  70.817  1.00  0.00    -0.284 A  
HETATM    9  C   UNL     1     -10.466   5.665  71.637  1.00  0.00    -0.286 A  
HETATM   10  C   UNL     1     -10.032   4.765  69.429  1.00  0.00    -0.269 A  
HETATM   11  C   UNL     1     -10.688   5.853  68.852  1.00  0.00    -0.370 A  
HETATM   12  C   UNL     1     -11.227   6.851  69.668  1.00  0.00    -0.289 A  
ENDBRANCH   5   7
ENDBRANCH   4   5
ENDBRANCH   3   4
ENDBRANCH   2   3
BRANCH   2  13
HETATM   13  C   UNL     1     -12.456  12.240  70.891  1.00  0.00    -0.371 A  
HETATM   14  C   UNL     1     -13.807  13.585  72.395  1.00  0.00    -0.687 A  
HETATM   15  C   UNL     1     -12.126  13.405  70.180  1.00  0.00    -0.415 A  
HETATM   16  C   UNL     1     -13.302  12.339  72.004  1.00  0.00    -0.491 A  
HETATM   17  C   UNL     1     -12.630  14.647  70.574  1.00  0.00    -0.409 A  
HETATM   18  C   UNL     1     -13.471  14.736  71.682  1.00  0.00    -0.468 A  
ENDBRANCH   2  13
TORSDOF 5
ENDMDL
MODEL      107
REMARK 921   NORMALIZED FREE ENERGY PREDICTED BY IDOCK:   -3.82 KCAL/MOL
REMARK 922        TOTAL FREE ENERGY PREDICTED BY IDOCK:   -6.94 KCAL/MOL
REMARK 923 INTER-LIGAND FREE ENERGY PREDICTED BY IDOCK:   -6.08 KCAL/MOL
REMARK 924 INTRA-LIGAND FREE ENERGY PREDICTED BY IDOCK:   -0.85 KCAL/MOL
REMARK 927      BINDING AFFINITY PREDICTED BY RF-SCORE:    0.00 PKD
ROOT
HETATM    1  O   UNL     1      -9.400  10.875  67.555  1.00  0.00    -0.153 OA 
HETATM    2  C   UNL     1     -10.341  11.639  67.389  1.00  0.00    -0.205 C  
ENDROOT
BRANCH   2   3
HETATM    3  O   UNL     1     -10.954  12.374  68.355  1.00  0.00    -0.217 OA 
BRANCH   3   4
HETATM    4  O   UNL     1     -10.081  13.523  68.628  1.00  0.00    -0.226 OA 
BRANCH   4   5
HETATM    5  C   UNL     1     -10.894  14.581  68.894  1.00  0.00    -0.253 C  
HETATM    6  O   UNL     1     -11.846  14.593  69.659  1.00  0.00    -0.284 OA 
BRANCH   5   7
HETATM    7  C   UNL     1     -10.511  15.749  68.054  1.00  0.00    -0.270 A  
HETATM    8  C   UNL     1     -10.180  18.126  67.705  1.00  0.00    -0.395 A  
HETATM    9  C   UNL     1     -10.519  17.060  68.547  1.00  0.00    -0.373 A  
HETATM   10  C   UNL     1      -9.827  17.886  66.376  1.00  0.00    -0.339 A  
HETATM   11  C   UNL     1      -9.813  16.583  65.880  1.00  0.00    -0.324 A  
HETATM   12  C   UNL     1     -10.159  15.517  66.716  1.00  0.00    -0.268 A  
ENDBRANCH   5   7
ENDBRANCH   4   5
ENDBRANCH   3   4
ENDBRANCH   2   3
BRANCH   2  13
HETATM   13  C   UNL     1     -10.945  11.900  66.049  1.00  0.00    -0.355 A  
HETATM   14  C   UNL     1     -12.594  12.913  64.584  1.00  0.00    -0.459 A  
HETATM   15  C   UNL     1     -10.363  11.281  64.931  1.00  0.00    -0.362 A  
HETATM   16  C   UNL     1     -12.066  12.720  65.866  1.00  0.00    -0.485 A  
HETATM   17  C   UNL     1     -10.890  11.478  63.653  1.00  0.00    -0.488 A  
HETATM   18  C   UNL     1     -12.007  12.294  63.480  1.00  0.00    -0.625 A  
ENDBRANCH   2  13
TORSDOF 5
ENDMDL
MODEL      108
REMARK 921   NORMALIZED FREE ENERGY PREDICTED BY IDOCK:   -3.79 KCAL/MOL
REMARK 922        TOTAL FREE ENERGY PREDICTED BY IDOCK:   -6.90 KCAL/MOL
REMARK 923 INTER-LIGAND FREE ENERGY PREDICTED BY IDOCK:   -5.29 KCAL/MOL
REMARK 924 INTRA-LIGAND FREE ENERGY PREDICTED BY IDOCK:   -1.62 KCAL/MOL
REMARK 927      BINDING AFFINITY PREDICTED BY RF-SCORE:    0.00 PKD
ROOT
HETATM    1  O   UNL     1     -11.946   4.914  73.111  1.00  0.00    -0.223 OA 
HETATM    2  C   UNL     1     -10.971   5.521  72.689  1.00  0.00    -0.270 C  
ENDROOT
BRANCH   2   3
HETATM    3  O   UNL     1     -10.034   6.153  73.444  1.00  0.00    -0.167 OA 
BRANCH   3   4
HETATM    4  O   UNL     1     -10.478   7.546  73.589  1.00  0.00    -0.349 OA 
BRANCH   4   5
HETATM    5  C   UNL     1      -9.489   8.329  73.080  1.00  0.00    -0.228 C  
HETATM    6  O   UNL     1      -8.409   8.567  73.598  1.00  0.00    -0.373 OA 
BRANCH   5   7
HETATM    7  C   UNL     1      -9.925   8.941  71.795  1.00  0.00    -0.397 A  
HETATM    8  C   UNL     1      -9.528   9.655  69.512  1.00  0.00    -0.211 A  
HETATM    9  C   UNL     1      -9.076   9.041  70.686  1.00  0.00    -0.280 A  
HETATM   10  C   UNL     1     -10.826  10.161  69.439  1.00  0.00    -0.274 A  
HETATM   11  C   UNL     1     -11.679  10.060  70.538  1.00  0.00    -0.400 A  
HETATM   12  C   UNL     1     -11.229   9.456  71.715  1.00  0.00    -0.359 A  
ENDBRANCH   5   7
ENDBRANCH   4   5
ENDBRANCH   3   4
ENDBRANCH   2   3
BRANCH   2  13
HETATM   13  C   UNL     1     -10.652   5.627  71.235  1.00  0.00    -0.321 A  
HETATM   14  C   UNL     1     -11.158   6.291  68.955  1.00  0.00    -0.434 A  
HETATM   15  C   UNL     1      -9.442   5.078  70.784  1.00  0.00    -0.230 A  
HETATM   16  C   UNL     1     -11.510   6.237  70.308  1.00  0.00    -0.428 A  
HETATM   17  C   UNL     1      -9.092   5.136  69.432  1.00  0.00    -0.144 A  
HETATM   18  C   UNL     1      -9.952   5.742  68.518  1.00  0.00    -0.197 A  
ENDBRANCH   2  13
TORSDOF 5
ENDMDL
MODEL      109
REMARK 921   NORMALIZED FREE ENERGY PREDICTED BY IDOCK:   -3.78 KCAL/MOL
REMARK 922        TOTAL FREE ENERGY PREDICTED BY IDOCK:   -6.89 KCAL/MOL
REMARK 923 INTER-LIGAND FREE ENERGY PREDICTED BY IDOCK:   -6.45 KCAL/MOL
REMARK 924 INTRA-LIGAND FREE ENERGY PREDICTED BY IDOCK:   -0.44 KCAL/MOL
REMARK 927      BINDING AFFINITY PREDICTED BY RF-SCORE:    0.00 PKD
ROOT
HETATM    1  O   UNL     1      -8.440  11.554  66.806  1.00  0.00    -0.159 OA 
HETATM    2  C   UNL     1      -9.636  11.796  66.899  1.00  0.00    -0.193 C  
ENDROOT
BRANCH   2   3
HETATM    3  O   UNL     1     -10.360  11.815  68.049  1.00  0.00    -0.187 OA 
BRANCH   3   4
HETATM    4  O   UNL     1     -10.716  10.421  68.347  1.00  0.00    -0.196 OA 
BRANCH   4   5
HETATM    5  C   UNL     1     -10.165  10.123  69.555  1.00  0.00    -0.236 C  
HETATM    6  O   UNL     1      -8.974  10.063  69.817  1.00  0.00    -0.207 OA 
BRANCH   5   7
HETATM    7  C   UNL     1     -11.231   9.800  70.542  1.00  0.00    -0.381 A  
HETATM    8  C   UNL     1     -12.363   8.287  72.062  1.00  0.00    -0.395 A  
HETATM    9  C   UNL     1     -11.321   8.549  71.165  1.00  0.00    -0.319 A  
HETATM   10  C   UNL     1     -13.311   9.272  72.345  1.00  0.00    -0.521 A  
HETATM   11  C   UNL     1     -13.225  10.522  71.732  1.00  0.00    -0.522 A  
HETATM   12  C   UNL     1     -12.191  10.784  70.829  1.00  0.00    -0.480 A  
ENDBRANCH   5   7
ENDBRANCH   4   5
ENDBRANCH   3   4
ENDBRANCH   2   3
BRANCH   2  13
HETATM   13  C   UNL     1     -10.484  12.145  65.722  1.00  0.00    -0.287 A  
HETATM   14  C   UNL     1     -10.956  12.208  63.341  1.00  0.00    -0.480 A  
HETATM   15  C   UNL     1     -11.693  12.820  65.958  1.00  0.00    -0.470 A  
HETATM   16  C   UNL     1     -10.122  11.840  64.403  1.00  0.00    -0.319 A  
HETATM   17  C   UNL     1     -12.525  13.184  64.896  1.00  0.00    -0.490 A  
HETATM   18  C   UNL     1     -12.155  12.878  63.588  1.00  0.00    -0.611 A  
ENDBRANCH   2  13
TORSDOF 5
ENDMDL
MODEL      110
REMARK 921   NORMALIZED FREE ENERGY PREDICTED BY IDOCK:   -3.77 KCAL/MOL
REMARK 922        TOTAL FREE ENERGY PREDICTED BY IDOCK:   -6.87 KCAL/MOL
REMARK 923 INTER-LIGAND FREE ENERGY PREDICTED BY IDOCK:   -6.11 KCAL/MOL
REMARK 924 INTRA-LIGAND FREE ENERGY PREDICTED BY IDOCK:   -0.76 KCAL/MOL
REMARK 927      BINDING AFFINITY PREDICTED BY RF-SCORE:    0.00 PKD
ROOT
HETATM    1  O   UNL     1     -11.654  10.690  71.047  1.00  0.00    -0.299 OA 
HETATM    2  C   UNL     1     -12.250  11.511  70.364  1.00  0.00    -0.355 C  
ENDROOT
BRANCH   2   3
HETATM    3  O   UNL     1     -12.657  11.336  69.078  1.00  0.00    -0.332 OA 
BRANCH   3   4
HETATM    4  O   UNL     1     -11.501  10.812  68.337  1.00  0.00    -0.289 OA 
BRANCH   4   5
HETATM    5  C   UNL     1     -11.203  11.726  67.375  1.00  0.00    -0.297 C  
HETATM    6  O   UNL     1     -11.976  12.197  66.555  1.00  0.00    -0.618 OA 
BRANCH   5   7
HETATM    7  C   UNL     1      -9.750  12.044  67.398  1.00  0.00    -0.185 A  
HETATM    8  C   UNL     1      -7.441  11.586  66.814  1.00  0.00    -0.118 A  
HETATM    9  C   UNL     1      -8.800  11.259  66.733  1.00  0.00    -0.170 A  
HETATM   10  C   UNL     1      -7.029  12.697  67.551  1.00  0.00    -0.150 A  
HETATM   11  C   UNL     1      -7.970  13.486  68.213  1.00  0.00    -0.147 A  
HETATM   12  C   UNL     1      -9.326  13.158  68.140  1.00  0.00    -0.217 A  
ENDBRANCH   5   7
ENDBRANCH   4   5
ENDBRANCH   3   4
ENDBRANCH   2   3
BRANCH   2  13
HETATM   13  C   UNL     1     -12.653  12.853  70.878  1.00  0.00    -0.355 A  
HETATM   14  C   UNL     1     -13.640  14.322  72.540  1.00  0.00    -0.620 A  
HETATM   15  C   UNL     1     -12.408  13.971  70.065  1.00  0.00    -0.397 A  
HETATM   16  C   UNL     1     -13.272  13.038  72.122  1.00  0.00    -0.558 A  
HETATM   17  C   UNL     1     -12.774  15.252  70.487  1.00  0.00    -0.440 A  
HETATM   18  C   UNL     1     -13.390  15.426  71.724  1.00  0.00    -0.567 A  
ENDBRANCH   2  13
TORSDOF 5
ENDMDL
MODEL      111
REMARK 921   NORMALIZED FREE ENERGY PREDICTED BY IDOCK:   -3.75 KCAL/MOL
REMARK 922        TOTAL FREE ENERGY PREDICTED BY IDOCK:   -6.84 KCAL/MOL
REMARK 923 INTER-LIGAND FREE ENERGY PREDICTED BY IDOCK:   -4.88 KCAL/MOL
REMARK 924 INTRA-LIGAND FREE ENERGY PREDICTED BY IDOCK:   -1.96 KCAL/MOL
REMARK 927      BINDING AFFINITY PREDICTED BY RF-SCORE:    0.00 PKD
ROOT
HETATM    1  O   UNL     1      -8.467   8.532  66.749  1.00  0.00    -0.107 OA 
HETATM    2  C   UNL     1      -9.326   8.482  67.618  1.00  0.00    -0.137 C  
ENDROOT
BRANCH   2   3
HETATM    3  O   UNL     1     -10.260   9.436  67.876  1.00  0.00    -0.186 OA 
BRANCH   3   4
HETATM    4  O   UNL     1      -9.739  10.250  68.982  1.00  0.00    -0.184 OA 
BRANCH   4   5
HETATM    5  C   UNL     1     -10.792  10.523  69.799  1.00  0.00    -0.281 C  
HETATM    6  O   UNL     1     -11.560  11.468  69.706  1.00  0.00    -0.291 OA 
BRANCH   5   7
HETATM    7  C   UNL     1     -10.856   9.530  70.906  1.00  0.00    -0.407 A  
HETATM    8  C   UNL     1      -9.825   8.114  72.583  1.00  0.00    -0.364 A  
HETATM    9  C   UNL     1      -9.710   9.073  71.570  1.00  0.00    -0.365 A  
HETATM   10  C   UNL     1     -11.079   7.616  72.941  1.00  0.00    -0.448 A  
HETATM   11  C   UNL     1     -12.224   8.071  72.288  1.00  0.00    -0.366 A  
HETATM   12  C   UNL     1     -12.113   9.022  71.270  1.00  0.00    -0.375 A  
ENDBRANCH   5   7
ENDBRANCH   4   5
ENDBRANCH   3   4
ENDBRANCH   2   3
BRANCH   2  13
HETATM   13  C   UNL     1      -9.490   7.309  68.527  1.00  0.00    -0.140 A  
HETATM   14  C   UNL     1      -8.629   5.561  69.974  1.00  0.00    -0.120 A  
HETATM   15  C   UNL     1     -10.790   6.830  68.757  1.00  0.00    -0.280 A  
HETATM   16  C   UNL     1      -8.409   6.665  69.144  1.00  0.00    -0.124 A  
HETATM   17  C   UNL     1     -11.006   5.728  69.588  1.00  0.00    -0.385 A  
HETATM   18  C   UNL     1      -9.924   5.094  70.196  1.00  0.00    -0.324 A  
ENDBRANCH   2  13
TORSDOF 5
ENDMDL
MODEL      112
REMARK 921   NORMALIZED FREE ENERGY PREDICTED BY IDOCK:   -3.72 KCAL/MOL
REMARK 922        TOTAL FREE ENERGY PREDICTED BY IDOCK:   -6.81 KCAL/MOL
REMARK 923 INTER-LIGAND FREE ENERGY PREDICTED BY IDOCK:   -6.52 KCAL/MOL
REMARK 924 INTRA-LIGAND FREE ENERGY PREDICTED BY IDOCK:   -0.30 KCAL/MOL
REMARK 927      BINDING AFFINITY PREDICTED BY RF-SCORE:    0.00 PKD
ROOT
HETATM    1  O   UNL     1     -12.238  11.689  70.241  1.00  0.00    -0.331 OA 
HETATM    2  C   UNL     1     -11.602  10.684  69.953  1.00  0.00    -0.316 C  
ENDROOT
BRANCH   2   3
HETATM    3  O   UNL     1     -11.077  10.394  68.732  1.00  0.00    -0.231 OA 
BRANCH   3   4
HETATM    4  O   UNL     1     -11.792  11.227  67.756  1.00  0.00    -0.610 OA 
BRANCH   4   5
HETATM    5  C   UNL     1     -10.991  11.324  66.660  1.00  0.00    -0.268 C  
HETATM    6  O   UNL     1     -10.090  10.562  66.347  1.00  0.00    -0.213 OA 
BRANCH   5   7
HETATM    7  C   UNL     1     -11.314  12.559  65.894  1.00  0.00    -0.380 A  
HETATM    8  C   UNL     1     -11.226  14.958  65.552  1.00  0.00    -0.348 A  
HETATM    9  C   UNL     1     -10.866  13.825  66.292  1.00  0.00    -0.283 A  
HETATM   10  C   UNL     1     -12.023  14.830  64.413  1.00  0.00    -0.433 A  
HETATM   11  C   UNL     1     -12.467  13.571  64.009  1.00  0.00    -0.294 A  
HETATM   12  C   UNL     1     -12.117  12.439  64.750  1.00  0.00    -0.483 A  
ENDBRANCH   5   7
ENDBRANCH   4   5
ENDBRANCH   3   4
ENDBRANCH   2   3
BRANCH   2  13
HETATM   13  C   UNL     1     -11.281   9.617  70.945  1.00  0.00    -0.422 A  
HETATM   14  C   UNL     1     -11.896   7.920  72.568  1.00  0.00    -0.390 A  
HETATM   15  C   UNL     1      -9.928   9.337  71.196  1.00  0.00    -0.356 A  
HETATM   16  C   UNL     1     -12.265   8.899  71.639  1.00  0.00    -0.409 A  
HETATM   17  C   UNL     1      -9.564   8.357  72.123  1.00  0.00    -0.367 A  
HETATM   18  C   UNL     1     -10.549   7.649  72.809  1.00  0.00    -0.381 A  
ENDBRANCH   2  13
TORSDOF 5
ENDMDL
MODEL      113
REMARK 921   NORMALIZED FREE ENERGY PREDICTED BY IDOCK:   -3.70 KCAL/MOL
REMARK 922        TOTAL FREE ENERGY PREDICTED BY IDOCK:   -6.79 KCAL/MOL
REMARK 923 INTER-LIGAND FREE ENERGY PREDICTED BY IDOCK:   -6.40 KCAL/MOL
REMARK 924 INTRA-LIGAND FREE ENERGY PREDICTED BY IDOCK:   -0.39 KCAL/MOL
REMARK 927      BINDING AFFINITY PREDICTED BY RF-SCORE:    0.00 PKD
ROOT
HETATM    1  O   UNL     1     -13.901   9.567  72.081  1.00  0.00    -0.390 OA 
HETATM    2  C   UNL     1     -12.873  10.131  71.732  1.00  0.00    -0.452 C  
ENDROOT
BRANCH   2   3
HETATM    3  O   UNL     1     -11.650   9.551  71.595  1.00  0.00    -0.377 OA 
BRANCH   3   4
HETATM    4  O   UNL     1     -11.885   8.121  71.356  1.00  0.00    -0.283 OA 
BRANCH   4   5
HETATM    5  C   UNL     1     -11.061   7.751  70.339  1.00  0.00    -0.251 C  
HETATM    6  O   UNL     1     -10.783   8.412  69.350  1.00  0.00    -0.221 OA 
BRANCH   5   7
HETATM    7  C   UNL     1     -10.573   6.361  70.550  1.00  0.00    -0.291 A  
HETATM    8  C   UNL     1      -9.752   4.227  69.742  1.00  0.00    -0.290 A  
HETATM    9  C   UNL     1     -10.173   5.538  69.490  1.00  0.00    -0.331 A  
HETATM   10  C   UNL     1      -9.722   3.738  71.049  1.00  0.00    -0.248 A  
HETATM   11  C   UNL     1     -10.114   4.554  72.110  1.00  0.00    -0.260 A  
HETATM   12  C   UNL     1     -10.542   5.861  71.861  1.00  0.00    -0.280 A  
ENDBRANCH   5   7
ENDBRANCH   4   5
ENDBRANCH   3   4
ENDBRANCH   2   3
BRANCH   2  13
HETATM   13  C   UNL     1     -12.827  11.577  71.366  1.00  0.00    -0.489 A  
HETATM   14  C   UNL     1     -12.131  13.427  69.957  1.00  0.00    -0.404 A  
HETATM   15  C   UNL     1     -13.487  12.490  72.203  1.00  0.00    -0.523 A  
HETATM   16  C   UNL     1     -12.148  12.056  70.237  1.00  0.00    -0.395 A  
HETATM   17  C   UNL     1     -13.470  13.858  71.919  1.00  0.00    -0.511 A  
HETATM   18  C   UNL     1     -12.791  14.326  70.796  1.00  0.00    -0.404 A  
ENDBRANCH   2  13
TORSDOF 5
ENDMDL
MODEL      114
REMARK 921   NORMALIZED FREE ENERGY PREDICTED BY IDOCK:   -3.70 KCAL/MOL
REMARK 922        TOTAL FREE ENERGY PREDICTED BY IDOCK:   -6.78 KCAL/MOL
REMARK 923 INTER-LIGAND FREE ENERGY PREDICTED BY IDOCK:   -5.95 KCAL/MOL
REMARK 924 INTRA-LIGAND FREE ENERGY PREDICTED BY IDOCK:   -0.83 KCAL/MOL
REMARK 927      BINDING AFFINITY PREDICTED BY RF-SCORE:    0.00 PKD
ROOT
HETATM    1  O   UNL     1     -13.018  13.970  65.266  1.00  0.00    -0.743 OA 
HETATM    2  C   UNL     1     -12.310  13.856  66.257  1.00  0.00    -0.449 C  
ENDROOT
BRANCH   2   3
HETATM    3  O   UNL     1     -12.360  12.843  67.163  1.00  0.00    -0.339 OA 
BRANCH   3   4
HETATM    4  O   UNL     1     -12.035  11.608  66.435  1.00  0.00    -0.433 OA 
BRANCH   4   5
HETATM    5  C   UNL     1     -10.741  11.308  66.728  1.00  0.00    -0.275 C  
HETATM    6  O   UNL     1     -10.202  11.399  67.820  1.00  0.00    -0.176 OA 
BRANCH   5   7
HETATM    7  C   UNL     1     -10.013  10.904  65.495  1.00  0.00    -0.315 A  
HETATM    8  C   UNL     1      -8.316   9.629  64.323  1.00  0.00    -0.169 A  
HETATM    9  C   UNL     1      -8.990   9.948  65.508  1.00  0.00    -0.209 A  
HETATM   10  C   UNL     1      -8.666  10.255  63.125  1.00  0.00    -0.207 A  
HETATM   11  C   UNL     1      -9.687  11.204  63.104  1.00  0.00    -0.401 A  
HETATM   12  C   UNL     1     -10.356  11.531  64.286  1.00  0.00    -0.376 A  
ENDBRANCH   5   7
ENDBRANCH   4   5
ENDBRANCH   3   4
ENDBRANCH   2   3
BRANCH   2  13
HETATM   13  C   UNL     1     -11.234  14.831  66.600  1.00  0.00    -0.346 A  
HETATM   14  C   UNL     1     -10.172  16.449  68.066  1.00  0.00    -0.264 A  
HETATM   15  C   UNL     1     -10.220  15.054  65.654  1.00  0.00    -0.386 A  
HETATM   16  C   UNL     1     -11.202  15.536  67.811  1.00  0.00    -0.302 A  
HETATM   17  C   UNL     1      -9.192  15.964  65.913  1.00  0.00    -0.332 A  
HETATM   18  C   UNL     1      -9.169  16.662  67.119  1.00  0.00    -0.233 A  
ENDBRANCH   2  13
TORSDOF 5
ENDMDL
MODEL      115
REMARK 921   NORMALIZED FREE ENERGY PREDICTED BY IDOCK:   -3.69 KCAL/MOL
REMARK 922        TOTAL FREE ENERGY PREDICTED BY IDOCK:   -6.77 KCAL/MOL
REMARK 923 INTER-LIGAND FREE ENERGY PREDICTED BY IDOCK:   -5.59 KCAL/MOL
REMARK 924 INTRA-LIGAND FREE ENERGY PREDICTED BY IDOCK:   -1.18 KCAL/MOL
REMARK 927      BINDING AFFINITY PREDICTED BY RF-SCORE:    0.00 PKD
ROOT
HETATM    1  O   UNL     1      -9.509   9.334  68.424  1.00  0.00    -0.138 OA 
HETATM    2  C   UNL     1      -9.851  10.429  67.999  1.00  0.00    -0.150 C  
ENDROOT
BRANCH   2   3
HETATM    3  O   UNL     1      -9.562  10.935  66.771  1.00  0.00    -0.178 OA 
BRANCH   3   4
HETATM    4  O   UNL     1     -10.472  10.281  65.820  1.00  0.00    -0.196 OA 
BRANCH   4   5
HETATM    5  C   UNL     1     -10.397  10.983  64.657  1.00  0.00    -0.345 C  
HETATM    6  O   UNL     1      -9.920  10.596  63.602  1.00  0.00    -0.319 OA 
BRANCH   5   7
HETATM    7  C   UNL     1     -10.925  12.361  64.852  1.00  0.00    -0.341 A  
HETATM    8  C   UNL     1     -10.663  14.770  64.932  1.00  0.00    -0.438 A  
HETATM    9  C   UNL     1     -10.122  13.499  64.705  1.00  0.00    -0.267 A  
HETATM   10  C   UNL     1     -12.002  14.909  65.297  1.00  0.00    -0.168 A  
HETATM   11  C   UNL     1     -12.809  13.781  65.441  1.00  0.00    -0.455 A  
HETATM   12  C   UNL     1     -12.271  12.510  65.223  1.00  0.00    -0.493 A  
ENDBRANCH   5   7
ENDBRANCH   4   5
ENDBRANCH   3   4
ENDBRANCH   2   3
BRANCH   2  13
HETATM   13  C   UNL     1     -10.689  11.378  68.789  1.00  0.00    -0.240 A  
HETATM   14  C   UNL     1     -11.594  13.580  69.264  1.00  0.00    -0.369 A  
HETATM   15  C   UNL     1     -11.381  10.877  69.903  1.00  0.00    -0.381 A  
HETATM   16  C   UNL     1     -10.803  12.739  68.474  1.00  0.00    -0.279 A  
HETATM   17  C   UNL     1     -12.172  11.719  70.689  1.00  0.00    -0.443 A  
HETATM   18  C   UNL     1     -12.278  13.071  70.368  1.00  0.00    -0.386 A  
ENDBRANCH   2  13
TORSDOF 5
ENDMDL
MODEL      116
REMARK 921   NORMALIZED FREE ENERGY PREDICTED BY IDOCK:   -3.66 KCAL/MOL
REMARK 922        TOTAL FREE ENERGY PREDICTED BY IDOCK:   -6.73 KCAL/MOL
REMARK 923 INTER-LIGAND FREE ENERGY PREDICTED BY IDOCK:   -6.21 KCAL/MOL
REMARK 924 INTRA-LIGAND FREE ENERGY PREDICTED BY IDOCK:   -0.52 KCAL/MOL
REMARK 927      BINDING AFFINITY PREDICTED BY RF-SCORE:    0.00 PKD
ROOT
HETATM    1  O   UNL     1      -6.880  16.960  66.323  1.00  0.00    -0.208 OA 
HETATM    2  C   UNL     1      -8.103  16.969  66.283  1.00  0.00    -0.297 C  
ENDROOT
BRANCH   2   3
HETATM    3  O   UNL     1      -8.892  16.000  65.747  1.00  0.00    -0.312 OA 
BRANCH   3   4
HETATM    4  O   UNL     1      -8.976  14.924  66.745  1.00  0.00    -0.239 OA 
BRANCH   4   5
HETATM    5  C   UNL     1     -10.279  14.537  66.798  1.00  0.00    -0.266 C  
HETATM    6  O   UNL     1     -11.063  14.744  67.711  1.00  0.00    -0.278 OA 
BRANCH   5   7
HETATM    7  C   UNL     1     -10.629  13.740  65.591  1.00  0.00    -0.302 A  
HETATM    8  C   UNL     1     -12.009  13.273  63.652  1.00  0.00    -0.547 A  
HETATM    9  C   UNL     1     -11.703  14.076  64.757  1.00  0.00    -0.403 A  
HETATM   10  C   UNL     1     -11.242  12.141  63.372  1.00  0.00    -0.494 A  
HETATM   11  C   UNL     1     -10.168  11.804  64.196  1.00  0.00    -0.363 A  
HETATM   12  C   UNL     1      -9.865  12.598  65.304  1.00  0.00    -0.136 A  
ENDBRANCH   5   7
ENDBRANCH   4   5
ENDBRANCH   3   4
ENDBRANCH   2   3
BRANCH   2  13
HETATM   13  C   UNL     1      -8.923  18.070  66.867  1.00  0.00    -0.268 A  
HETATM   14  C   UNL     1     -10.577  19.842  66.722  1.00  0.00    -0.536 A  
HETATM   15  C   UNL     1      -8.743  18.378  68.225  1.00  0.00    -0.321 A  
HETATM   16  C   UNL     1      -9.848  18.811  66.118  1.00  0.00    -0.327 A  
HETATM   17  C   UNL     1      -9.474  19.407  68.825  1.00  0.00    -0.464 A  
HETATM   18  C   UNL     1     -10.390  20.138  68.072  1.00  0.00    -0.449 A  
ENDBRANCH   2  13
TORSDOF 5
ENDMDL
MODEL      117
REMARK 921   NORMALIZED FREE ENERGY PREDICTED BY IDOCK:   -3.64 KCAL/MOL
REMARK 922        TOTAL FREE ENERGY PREDICTED BY IDOCK:   -6.70 KCAL/MOL
REMARK 923 INTER-LIGAND FREE ENERGY PREDICTED BY IDOCK:   -6.35 KCAL/MOL
REMARK 924 INTRA-LIGAND FREE ENERGY PREDICTED BY IDOCK:   -0.35 KCAL/MOL
REMARK 927      BINDING AFFINITY PREDICTED BY RF-SCORE:    0.00 PKD
ROOT
HETATM    1  O   UNL     1     -12.061  13.346  68.779  1.00  0.00    -0.337 OA 
HETATM    2  C   UNL     1     -12.037  13.100  69.977  1.00  0.00    -0.305 C  
ENDROOT
BRANCH   2   3
HETATM    3  O   UNL     1     -11.548  11.967  70.550  1.00  0.00    -0.116 OA 
BRANCH   3   4
HETATM    4  O   UNL     1     -11.709  10.891  69.564  1.00  0.00    -0.275 OA 
BRANCH   4   5
HETATM    5  C   UNL     1     -10.614  10.092  69.671  1.00  0.00    -0.252 C  
HETATM    6  O   UNL     1      -9.478  10.362  69.312  1.00  0.00    -0.201 OA 
BRANCH   5   7
HETATM    7  C   UNL     1     -10.994   8.769  70.238  1.00  0.00    -0.255 A  
HETATM    8  C   UNL     1     -11.352   6.378  70.057  1.00  0.00    -0.496 A  
HETATM    9  C   UNL     1     -10.953   7.591  69.482  1.00  0.00    -0.127 A  
HETATM   10  C   UNL     1     -11.784   6.337  71.383  1.00  0.00    -0.316 A  
HETATM   11  C   UNL     1     -11.822   7.506  72.143  1.00  0.00    -0.338 A  
HETATM   12  C   UNL     1     -11.432   8.720  71.570  1.00  0.00    -0.375 A  
ENDBRANCH   5   7
ENDBRANCH   4   5
ENDBRANCH   3   4
ENDBRANCH   2   3
BRANCH   2  13
HETATM   13  C   UNL     1     -12.532  14.056  71.010  1.00  0.00    -0.444 A  
HETATM   14  C   UNL     1     -14.261  14.996  72.432  1.00  0.00    -0.516 A  
HETATM   15  C   UNL     1     -11.626  14.995  71.527  1.00  0.00    -0.409 A  
HETATM   16  C   UNL     1     -13.856  14.062  71.471  1.00  0.00    -0.334 A  
HETATM   17  C   UNL     1     -12.033  15.924  72.488  1.00  0.00    -0.622 A  
HETATM   18  C   UNL     1     -13.351  15.924  72.939  1.00  0.00    -0.635 A  
ENDBRANCH   2  13
TORSDOF 5
ENDMDL
MODEL      118
REMARK 921   NORMALIZED FREE ENERGY PREDICTED BY IDOCK:   -3.63 KCAL/MOL
REMARK 922        TOTAL FREE ENERGY PREDICTED BY IDOCK:   -6.70 KCAL/MOL
REMARK 923 INTER-LIGAND FREE ENERGY PREDICTED BY IDOCK:   -6.33 KCAL/MOL
REMARK 924 INTRA-LIGAND FREE ENERGY PREDICTED BY IDOCK:   -0.37 KCAL/MOL
REMARK 927      BINDING AFFINITY PREDICTED BY RF-SCORE:    0.00 PKD
ROOT
HETATM    1  O   UNL     1     -10.219  13.918  68.804  1.00  0.00    -0.233 OA 
HETATM    2  C   UNL     1     -11.172  14.647  69.041  1.00  0.00    -0.269 C  
ENDROOT
BRANCH   2   3
HETATM    3  O   UNL     1     -11.548  15.733  68.314  1.00  0.00    -0.361 OA 
BRANCH   3   4
HETATM    4  O   UNL     1     -10.369  16.153  67.543  1.00  0.00    -0.273 OA 
BRANCH   4   5
HETATM    5  C   UNL     1     -10.213  17.487  67.760  1.00  0.00    -0.349 C  
HETATM    6  O   UNL     1     -11.086  18.281  68.074  1.00  0.00    -0.142 OA 
BRANCH   5   7
HETATM    7  C   UNL     1      -8.806  17.891  67.490  1.00  0.00    -0.248 A  
HETATM    8  C   UNL     1      -6.799  17.905  66.129  1.00  0.00    -0.324 A  
HETATM    9  C   UNL     1      -8.133  17.525  66.318  1.00  0.00    -0.289 A  
HETATM   10  C   UNL     1      -6.138  18.656  67.102  1.00  0.00    -0.177 A  
HETATM   11  C   UNL     1      -6.804  19.028  68.270  1.00  0.00    -0.272 A  
HETATM   12  C   UNL     1      -8.133  18.643  68.466  1.00  0.00    -0.370 A  
ENDBRANCH   5   7
ENDBRANCH   4   5
ENDBRANCH   3   4
ENDBRANCH   2   3
BRANCH   2  13
HETATM   13  C   UNL     1     -12.104  14.415  70.183  1.00  0.00    -0.397 A  
HETATM   14  C   UNL     1     -13.701  15.161  71.853  1.00  0.00    -0.577 A  
HETATM   15  C   UNL     1     -12.215  13.111  70.690  1.00  0.00    -0.402 A  
HETATM   16  C   UNL     1     -12.855  15.441  70.774  1.00  0.00    -0.524 A  
HETATM   17  C   UNL     1     -13.062  12.834  71.766  1.00  0.00    -0.455 A  
HETATM   18  C   UNL     1     -13.804  13.860  72.347  1.00  0.00    -0.668 A  
ENDBRANCH   2  13
TORSDOF 5
ENDMDL
MODEL      119
REMARK 921   NORMALIZED FREE ENERGY PREDICTED BY IDOCK:   -3.62 KCAL/MOL
REMARK 922        TOTAL FREE ENERGY PREDICTED BY IDOCK:   -6.68 KCAL/MOL
REMARK 923 INTER-LIGAND FREE ENERGY PREDICTED BY IDOCK:   -6.18 KCAL/MOL
REMARK 924 INTRA-LIGAND FREE ENERGY PREDICTED BY IDOCK:   -0.50 KCAL/MOL
REMARK 927      BINDING AFFINITY PREDICTED BY RF-SCORE:    0.00 PKD
ROOT
HETATM    1  O   UNL     1      -9.495   9.297  69.133  1.00  0.00    -0.152 OA 
HETATM    2  C   UNL     1     -10.361   9.876  68.491  1.00  0.00    -0.196 C  
ENDROOT
BRANCH   2   3
HETATM    3  O   UNL     1     -11.551  10.322  68.975  1.00  0.00    -0.187 OA 
BRANCH   3   4
HETATM    4  O   UNL     1     -11.281  10.885  70.305  1.00  0.00    -0.283 OA 
BRANCH   4   5
HETATM    5  C   UNL     1     -12.484  11.229  70.839  1.00  0.00    -0.394 C  
HETATM    6  O   UNL     1     -13.379  10.466  71.167  1.00  0.00    -0.344 OA 
BRANCH   5   7
HETATM    7  C   UNL     1     -12.610  12.709  70.915  1.00  0.00    -0.338 A  
HETATM    8  C   UNL     1     -12.057  14.953  70.177  1.00  0.00    -0.379 A  
HETATM    9  C   UNL     1     -11.928  13.565  70.041  1.00  0.00    -0.410 A  
HETATM   10  C   UNL     1     -12.871  15.487  71.177  1.00  0.00    -0.551 A  
HETATM   11  C   UNL     1     -13.557  14.641  72.048  1.00  0.00    -0.496 A  
HETATM   12  C   UNL     1     -13.424  13.256  71.920  1.00  0.00    -0.525 A  
ENDBRANCH   5   7
ENDBRANCH   4   5
ENDBRANCH   3   4
ENDBRANCH   2   3
BRANCH   2  13
HETATM   13  C   UNL     1     -10.209  10.210  67.045  1.00  0.00    -0.290 A  
HETATM   14  C   UNL     1      -9.399   9.767  64.799  1.00  0.00    -0.327 A  
HETATM   15  C   UNL     1     -10.777  11.407  66.581  1.00  0.00    -0.316 A  
HETATM   16  C   UNL     1      -9.518   9.390  66.141  1.00  0.00    -0.287 A  
HETATM   17  C   UNL     1     -10.658  11.780  65.240  1.00  0.00    -0.327 A  
HETATM   18  C   UNL     1      -9.968  10.959  64.350  1.00  0.00    -0.381 A  
ENDBRANCH   2  13
TORSDOF 5
ENDMDL
MODEL      120
REMARK 921   NORMALIZED FREE ENERGY PREDICTED BY IDOCK:   -3.60 KCAL/MOL
REMARK 922        TOTAL FREE ENERGY PREDICTED BY IDOCK:   -6.65 KCAL/MOL
REMARK 923 INTER-LIGAND FREE ENERGY PREDICTED BY IDOCK:   -6.26 KCAL/MOL
REMARK 924 INTRA-LIGAND FREE ENERGY PREDICTED BY IDOCK:   -0.39 KCAL/MOL
REMARK 927      BINDING AFFINITY PREDICTED BY RF-SCORE:    0.00 PKD
ROOT
HETATM    1  O   UNL     1     -11.993  13.950  65.809  1.00  0.00    -0.360 OA 
HETATM    2  C   UNL     1     -11.296  14.263  66.764  1.00  0.00    -0.348 C  
ENDROOT
BRANCH   2   3
HETATM    3  O   UNL     1     -10.845  13.423  67.734  1.00  0.00    -0.245 OA 
BRANCH   3   4
HETATM    4  O   UNL     1     -12.033  12.836  68.369  1.00  0.00    -0.319 OA 
BRANCH   4   5
HETATM    5  C   UNL     1     -11.856  12.949  69.714  1.00  0.00    -0.310 C  
HETATM    6  O   UNL     1     -11.606  13.972  70.331  1.00  0.00    -0.240 OA 
BRANCH   5   7
HETATM    7  C   UNL     1     -11.941  11.611  70.359  1.00  0.00    -0.448 A  
HETATM    8  C   UNL     1     -12.916  10.043  71.932  1.00  0.00    -0.547 A  
HETATM    9  C   UNL     1     -12.901  11.309  71.333  1.00  0.00    -0.515 A  
HETATM   10  C   UNL     1     -11.982   9.077  71.555  1.00  0.00    -0.414 A  
HETATM   11  C   UNL     1     -11.027   9.369  70.582  1.00  0.00    -0.352 A  
HETATM   12  C   UNL     1     -11.003  10.634  69.989  1.00  0.00    -0.325 A  
ENDBRANCH   5   7
ENDBRANCH   4   5
ENDBRANCH   3   4
ENDBRANCH   2   3
BRANCH   2  13
HETATM   13  C   UNL     1     -10.803  15.654  66.985  1.00  0.00    -0.294 A  
HETATM   14  C   UNL     1     -10.524  17.660  68.323  1.00  0.00    -0.376 A  
HETATM   15  C   UNL     1     -10.125  16.288  65.931  1.00  0.00    -0.381 A  
HETATM   16  C   UNL     1     -10.999  16.351  68.185  1.00  0.00    -0.339 A  
HETATM   17  C   UNL     1      -9.650  17.594  66.073  1.00  0.00    -0.123 A  
HETATM   18  C   UNL     1      -9.851  18.280  67.270  1.00  0.00    -0.327 A  
ENDBRANCH   2  13
TORSDOF 5
ENDMDL
MODEL      121
REMARK 921   NORMALIZED FREE ENERGY PREDICTED BY IDOCK:   -3.59 KCAL/MOL
REMARK 922        TOTAL FREE ENERGY PREDICTED BY IDOCK:   -6.64 KCAL/MOL
REMARK 923 INTER-LIGAND FREE ENERGY PREDICTED BY IDOCK:   -5.99 KCAL/MOL
REMARK 924 INTRA-LIGAND FREE ENERGY PREDICTED BY IDOCK:   -0.65 KCAL/MOL
REMARK 927      BINDING AFFINITY PREDICTED BY RF-SCORE:    0.00 PKD
ROOT
HETATM    1  O   UNL     1     -11.177  16.323  69.210  1.00  0.00    -0.322 OA 
HETATM    2  C   UNL     1     -11.622  15.195  69.047  1.00  0.00    -0.330 C  
ENDROOT
BRANCH   2   3
HETATM    3  O   UNL     1     -11.572  14.475  67.894  1.00  0.00    -0.311 OA 
BRANCH   3   4
HETATM    4  O   UNL     1     -10.490  15.050  67.083  1.00  0.00    -0.268 OA 
BRANCH   4   5
HETATM    5  C   UNL     1      -9.430  14.204  67.185  1.00  0.00    -0.236 C  
HETATM    6  O   UNL     1      -8.364  14.434  67.735  1.00  0.00    -0.147 OA 
BRANCH   5   7
HETATM    7  C   UNL     1      -9.711  12.936  66.457  1.00  0.00    -0.257 A  
HETATM    8  C   UNL     1      -9.953  10.526  66.358  1.00  0.00    -0.271 A  
HETATM    9  C   UNL     1      -9.714  11.690  67.097  1.00  0.00    -0.195 A  
HETATM   10  C   UNL     1     -10.197  10.602  64.986  1.00  0.00    -0.380 A  
HETATM   11  C   UNL     1     -10.200  11.840  64.344  1.00  0.00    -0.332 A  
HETATM   12  C   UNL     1      -9.953  13.003  65.076  1.00  0.00    -0.158 A  
ENDBRANCH   5   7
ENDBRANCH   4   5
ENDBRANCH   3   4
ENDBRANCH   2   3
BRANCH   2  13
HETATM   13  C   UNL     1     -12.276  14.417  70.139  1.00  0.00    -0.401 A  
HETATM   14  C   UNL     1     -13.718  14.215  72.082  1.00  0.00    -0.587 A  
HETATM   15  C   UNL     1     -11.989  13.046  70.236  1.00  0.00    -0.360 A  
HETATM   16  C   UNL     1     -13.148  14.997  71.071  1.00  0.00    -0.482 A  
HETATM   17  C   UNL     1     -12.561  12.268  71.245  1.00  0.00    -0.336 A  
HETATM   18  C   UNL     1     -13.426  12.853  72.168  1.00  0.00    -0.619 A  
ENDBRANCH   2  13
TORSDOF 5
ENDMDL
MODEL      122
REMARK 921   NORMALIZED FREE ENERGY PREDICTED BY IDOCK:   -3.58 KCAL/MOL
REMARK 922        TOTAL FREE ENERGY PREDICTED BY IDOCK:   -6.63 KCAL/MOL
REMARK 923 INTER-LIGAND FREE ENERGY PREDICTED BY IDOCK:   -5.88 KCAL/MOL
REMARK 924 INTRA-LIGAND FREE ENERGY PREDICTED BY IDOCK:   -0.75 KCAL/MOL
REMARK 927      BINDING AFFINITY PREDICTED BY RF-SCORE:    0.00 PKD
ROOT
HETATM    1  O   UNL     1     -10.067   4.838  72.121  1.00  0.00    -0.179 OA 
HETATM    2  C   UNL     1     -10.714   5.512  71.332  1.00  0.00    -0.221 C  
ENDROOT
BRANCH   2   3
HETATM    3  O   UNL     1     -11.671   6.423  71.656  1.00  0.00    -0.301 OA 
BRANCH   3   4
HETATM    4  O   UNL     1     -11.261   7.033  72.928  1.00  0.00    -0.276 OA 
BRANCH   4   5
HETATM    5  C   UNL     1     -10.437   8.070  72.619  1.00  0.00    -0.339 C  
HETATM    6  O   UNL     1      -9.294   8.235  73.014  1.00  0.00    -0.264 OA 
BRANCH   5   7
HETATM    7  C   UNL     1     -11.150   9.056  71.761  1.00  0.00    -0.444 A  
HETATM    8  C   UNL     1     -13.095  10.378  71.169  1.00  0.00    -0.474 A  
HETATM    9  C   UNL     1     -12.460   9.472  72.028  1.00  0.00    -0.427 A  
HETATM   10  C   UNL     1     -12.424  10.873  70.050  1.00  0.00    -0.332 A  
HETATM   11  C   UNL     1     -11.117  10.466  69.781  1.00  0.00    -0.352 A  
HETATM   12  C   UNL     1     -10.483   9.556  70.631  1.00  0.00    -0.374 A  
ENDBRANCH   5   7
ENDBRANCH   4   5
ENDBRANCH   3   4
ENDBRANCH   2   3
BRANCH   2  13
HETATM   13  C   UNL     1     -10.510   5.448  69.855  1.00  0.00    -0.378 A  
HETATM   14  C   UNL     1      -9.489   4.529  67.854  1.00  0.00    -0.200 A  
HETATM   15  C   UNL     1     -11.210   6.362  69.052  1.00  0.00    -0.402 A  
HETATM   16  C   UNL     1      -9.647   4.528  69.244  1.00  0.00    -0.258 A  
HETATM   17  C   UNL     1     -11.052   6.359  67.664  1.00  0.00    -0.388 A  
HETATM   18  C   UNL     1     -10.191   5.442  67.066  1.00  0.00    -0.274 A  
ENDBRANCH   2  13
TORSDOF 5
ENDMDL
MODEL      123
REMARK 921   NORMALIZED FREE ENERGY PREDICTED BY IDOCK:   -3.57 KCAL/MOL
REMARK 922        TOTAL FREE ENERGY PREDICTED BY IDOCK:   -6.62 KCAL/MOL
REMARK 923 INTER-LIGAND FREE ENERGY PREDICTED BY IDOCK:   -4.49 KCAL/MOL
REMARK 924 INTRA-LIGAND FREE ENERGY PREDICTED BY IDOCK:   -2.13 KCAL/MOL
REMARK 927      BINDING AFFINITY PREDICTED BY RF-SCORE:    0.00 PKD
ROOT
HETATM    1  O   UNL     1     -12.047  11.173  71.018  1.00  0.00    -0.335 OA 
HETATM    2  C   UNL     1     -11.763  10.096  70.514  1.00  0.00    -0.322 C  
ENDROOT
BRANCH   2   3
HETATM    3  O   UNL     1     -11.601   9.854  69.185  1.00  0.00    -0.050 OA 
BRANCH   3   4
HETATM    4  O   UNL     1     -10.153   9.816  68.937  1.00  0.00    -0.169 OA 
BRANCH   4   5
HETATM    5  C   UNL     1      -9.945   8.893  67.960  1.00  0.00    -0.178 C  
HETATM    6  O   UNL     1      -9.958   9.092  66.755  1.00  0.00    -0.210 OA 
BRANCH   5   7
HETATM    7  C   UNL     1      -9.761   7.543  68.558  1.00  0.00    -0.159 A  
HETATM    8  C   UNL     1     -10.468   5.258  68.962  1.00  0.00    -0.206 A  
HETATM    9  C   UNL     1     -10.673   6.500  68.349  1.00  0.00    -0.339 A  
HETATM   10  C   UNL     1      -9.353   5.052  69.775  1.00  0.00    -0.191 A  
HETATM   11  C   UNL     1      -8.438   6.084  69.983  1.00  0.00    -0.131 A  
HETATM   12  C   UNL     1      -8.644   7.327  69.379  1.00  0.00    -0.134 A  
ENDBRANCH   5   7
ENDBRANCH   4   5
ENDBRANCH   3   4
ENDBRANCH   2   3
BRANCH   2  13
HETATM   13  C   UNL     1     -11.519   8.864  71.319  1.00  0.00    -0.368 A  
HETATM   14  C   UNL     1     -10.226   7.522  72.875  1.00  0.00    -0.331 A  
HETATM   15  C   UNL     1     -12.445   7.814  71.216  1.00  0.00    -0.301 A  
HETATM   16  C   UNL     1     -10.406   8.709  72.157  1.00  0.00    -0.403 A  
HETATM   17  C   UNL     1     -12.264   6.630  71.936  1.00  0.00    -0.381 A  
HETATM   18  C   UNL     1     -11.153   6.485  72.765  1.00  0.00    -0.279 A  
ENDBRANCH   2  13
TORSDOF 5
ENDMDL
MODEL      124
REMARK 921   NORMALIZED FREE ENERGY PREDICTED BY IDOCK:   -3.57 KCAL/MOL
REMARK 922        TOTAL FREE ENERGY PREDICTED BY IDOCK:   -6.62 KCAL/MOL
REMARK 923 INTER-LIGAND FREE ENERGY PREDICTED BY IDOCK:   -6.17 KCAL/MOL
REMARK 924 INTRA-LIGAND FREE ENERGY PREDICTED BY IDOCK:   -0.45 KCAL/MOL
REMARK 927      BINDING AFFINITY PREDICTED BY RF-SCORE:    0.00 PKD
ROOT
HETATM    1  O   UNL     1     -12.228  14.538  70.479  1.00  0.00    -0.289 OA 
HETATM    2  C   UNL     1     -11.990  14.443  69.282  1.00  0.00    -0.324 C  
ENDROOT
BRANCH   2   3
HETATM    3  O   UNL     1     -11.925  15.472  68.396  1.00  0.00    -0.296 OA 
BRANCH   3   4
HETATM    4  O   UNL     1     -10.573  16.036  68.503  1.00  0.00    -0.245 OA 
BRANCH   4   5
HETATM    5  C   UNL     1     -10.277  16.581  67.292  1.00  0.00    -0.287 C  
HETATM    6  O   UNL     1     -10.191  15.988  66.228  1.00  0.00    -0.284 OA 
BRANCH   5   7
HETATM    7  C   UNL     1      -9.991  18.034  67.437  1.00  0.00    -0.328 A  
HETATM    8  C   UNL     1      -9.161  19.947  68.676  1.00  0.00    -0.215 A  
HETATM    9  C   UNL     1      -9.377  18.567  68.578  1.00  0.00    -0.364 A  
HETATM   10  C   UNL     1      -9.548  20.794  67.637  1.00  0.00    -0.378 A  
HETATM   11  C   UNL     1     -10.156  20.270  66.496  1.00  0.00    -0.518 A  
HETATM   12  C   UNL     1     -10.381  18.894  66.398  1.00  0.00    -0.503 A  
ENDBRANCH   5   7
ENDBRANCH   4   5
ENDBRANCH   3   4
ENDBRANCH   2   3
BRANCH   2  13
HETATM   13  C   UNL     1     -11.699  13.140  68.616  1.00  0.00    -0.362 A  
HETATM   14  C   UNL     1     -11.045  10.802  68.636  1.00  0.00    -0.312 A  
HETATM   15  C   UNL     1     -11.802  13.077  67.217  1.00  0.00    -0.419 A  
HETATM   16  C   UNL     1     -11.319  11.990  69.322  1.00  0.00    -0.330 A  
HETATM   17  C   UNL     1     -11.531  11.888  66.535  1.00  0.00    -0.381 A  
HETATM   18  C   UNL     1     -11.152  10.751  67.246  1.00  0.00    -0.339 A  
ENDBRANCH   2  13
TORSDOF 5
ENDMDL
MODEL      125
REMARK 921   NORMALIZED FREE ENERGY PREDICTED BY IDOCK:   -3.57 KCAL/MOL
REMARK 922        TOTAL FREE ENERGY PREDICTED BY IDOCK:   -6.62 KCAL/MOL
REMARK 923 INTER-LIGAND FREE ENERGY PREDICTED BY IDOCK:   -6.30 KCAL/MOL
REMARK 924 INTRA-LIGAND FREE ENERGY PREDICTED BY IDOCK:   -0.32 KCAL/MOL
REMARK 927      BINDING AFFINITY PREDICTED BY RF-SCORE:    0.00 PKD
ROOT
HETATM    1  O   UNL     1     -10.349   9.723  68.720  1.00  0.00    -0.192 OA 
HETATM    2  C   UNL     1     -10.565   9.154  69.781  1.00  0.00    -0.229 C  
ENDROOT
BRANCH   2   3
HETATM    3  O   UNL     1     -11.210   9.683  70.855  1.00  0.00    -0.293 OA 
BRANCH   3   4
HETATM    4  O   UNL     1     -11.815  10.944  70.405  1.00  0.00    -0.302 OA 
BRANCH   4   5
HETATM    5  C   UNL     1     -12.730  11.300  71.347  1.00  0.00    -0.396 C  
HETATM    6  O   UNL     1     -13.364  10.546  72.068  1.00  0.00    -0.434 OA 
BRANCH   5   7
HETATM    7  C   UNL     1     -12.922  12.776  71.346  1.00  0.00    -0.359 A  
HETATM    8  C   UNL     1     -13.967  14.806  72.164  1.00  0.00    -0.590 A  
HETATM    9  C   UNL     1     -13.800  13.418  72.229  1.00  0.00    -0.671 A  
HETATM   10  C   UNL     1     -13.254  15.556  71.227  1.00  0.00    -0.588 A  
HETATM   11  C   UNL     1     -12.374  14.924  70.349  1.00  0.00    -0.401 A  
HETATM   12  C   UNL     1     -12.212  13.538  70.405  1.00  0.00    -0.426 A  
ENDBRANCH   5   7
ENDBRANCH   4   5
ENDBRANCH   3   4
ENDBRANCH   2   3
BRANCH   2  13
HETATM   13  C   UNL     1     -10.164   7.740  70.038  1.00  0.00    -0.210 A  
HETATM   14  C   UNL     1     -10.638   5.374  70.307  1.00  0.00    -0.329 A  
HETATM   15  C   UNL     1      -8.809   7.476  70.297  1.00  0.00    -0.146 A  
HETATM   16  C   UNL     1     -11.077   6.676  70.044  1.00  0.00    -0.394 A  
HETATM   17  C   UNL     1      -8.374   6.174  70.556  1.00  0.00    -0.129 A  
HETATM   18  C   UNL     1      -9.290   5.123  70.562  1.00  0.00    -0.210 A  
ENDBRANCH   2  13
TORSDOF 5
ENDMDL
MODEL      126
REMARK 921   NORMALIZED FREE ENERGY PREDICTED BY IDOCK:   -3.57 KCAL/MOL
REMARK 922        TOTAL FREE ENERGY PREDICTED BY IDOCK:   -6.61 KCAL/MOL
REMARK 923 INTER-LIGAND FREE ENERGY PREDICTED BY IDOCK:   -6.26 KCAL/MOL
REMARK 924 INTRA-LIGAND FREE ENERGY PREDICTED BY IDOCK:   -0.35 KCAL/MOL
REMARK 927      BINDING AFFINITY PREDICTED BY RF-SCORE:    0.00 PKD
ROOT
HETATM    1  O   UNL     1     -12.052  11.499  67.370  1.00  0.00    -0.593 OA 
HETATM    2  C   UNL     1     -11.905  12.448  68.128  1.00  0.00    -0.315 C  
ENDROOT
BRANCH   2   3
HETATM    3  O   UNL     1     -12.379  12.535  69.400  1.00  0.00    -0.113 OA 
BRANCH   3   4
HETATM    4  O   UNL     1     -11.787  11.418  70.149  1.00  0.00    -0.312 OA 
BRANCH   4   5
HETATM    5  C   UNL     1     -12.649  11.122  71.159  1.00  0.00    -0.409 C  
HETATM    6  O   UNL     1     -13.255  11.920  71.857  1.00  0.00    -0.482 OA 
BRANCH   5   7
HETATM    7  C   UNL     1     -12.714   9.649  71.366  1.00  0.00    -0.466 A  
HETATM    8  C   UNL     1     -11.687   7.462  71.571  1.00  0.00    -0.314 A  
HETATM    9  C   UNL     1     -11.567   8.847  71.406  1.00  0.00    -0.382 A  
HETATM   10  C   UNL     1     -12.948   6.877  71.703  1.00  0.00    -0.359 A  
HETATM   11  C   UNL     1     -14.094   7.671  71.669  1.00  0.00    -0.547 A  
HETATM   12  C   UNL     1     -13.978   9.053  71.496  1.00  0.00    -0.336 A  
ENDBRANCH   5   7
ENDBRANCH   4   5
ENDBRANCH   3   4
ENDBRANCH   2   3
BRANCH   2  13
HETATM   13  C   UNL     1     -11.130  13.668  67.758  1.00  0.00    -0.293 A  
HETATM   14  C   UNL     1      -9.676  15.543  68.273  1.00  0.00    -0.201 A  
HETATM   15  C   UNL     1     -11.185  14.104  66.424  1.00  0.00    -0.328 A  
HETATM   16  C   UNL     1     -10.368  14.397  68.681  1.00  0.00    -0.245 A  
HETATM   17  C   UNL     1     -10.491  15.246  66.019  1.00  0.00    -0.328 A  
HETATM   18  C   UNL     1      -9.737  15.966  66.944  1.00  0.00    -0.241 A  
ENDBRANCH   2  13
TORSDOF 5
ENDMDL
MODEL      127
REMARK 921   NORMALIZED FREE ENERGY PREDICTED BY IDOCK:   -3.56 KCAL/MOL
REMARK 922        TOTAL FREE ENERGY PREDICTED BY IDOCK:   -6.60 KCAL/MOL
REMARK 923 INTER-LIGAND FREE ENERGY PREDICTED BY IDOCK:   -6.18 KCAL/MOL
REMARK 924 INTRA-LIGAND FREE ENERGY PREDICTED BY IDOCK:   -0.42 KCAL/MOL
REMARK 927      BINDING AFFINITY PREDICTED BY RF-SCORE:    0.00 PKD
ROOT
HETATM    1  O   UNL     1     -10.339  17.292  67.391  1.00  0.00    -0.320 OA 
HETATM    2  C   UNL     1      -9.453  16.745  68.032  1.00  0.00    -0.233 C  
ENDROOT
BRANCH   2   3
HETATM    3  O   UNL     1      -9.398  15.425  68.356  1.00  0.00    -0.185 OA 
BRANCH   3   4
HETATM    4  O   UNL     1     -10.266  15.242  69.528  1.00  0.00    -0.239 OA 
BRANCH   4   5
HETATM    5  C   UNL     1     -11.130  14.236  69.224  1.00  0.00    -0.265 C  
HETATM    6  O   UNL     1     -11.111  13.538  68.223  1.00  0.00    -0.241 OA 
BRANCH   5   7
HETATM    7  C   UNL     1     -12.184  14.130  70.270  1.00  0.00    -0.416 A  
HETATM    8  C   UNL     1     -13.475  12.879  71.897  1.00  0.00    -0.478 A  
HETATM    9  C   UNL     1     -12.450  12.932  70.945  1.00  0.00    -0.383 A  
HETATM   10  C   UNL     1     -14.229  14.019  72.182  1.00  0.00    -0.628 A  
HETATM   11  C   UNL     1     -13.965  15.216  71.517  1.00  0.00    -0.614 A  
HETATM   12  C   UNL     1     -12.949  15.270  70.560  1.00  0.00    -0.380 A  
ENDBRANCH   5   7
ENDBRANCH   4   5
ENDBRANCH   3   4
ENDBRANCH   2   3
BRANCH   2  13
HETATM   13  C   UNL     1      -8.252  17.473  68.537  1.00  0.00    -0.278 A  
HETATM   14  C   UNL     1      -6.020  17.560  69.487  1.00  0.00    -0.246 A  
HETATM   15  C   UNL     1      -8.286  18.877  68.543  1.00  0.00    -0.384 A  
HETATM   16  C   UNL     1      -7.108  16.818  69.013  1.00  0.00    -0.221 A  
HETATM   17  C   UNL     1      -7.197  19.614  69.015  1.00  0.00    -0.379 A  
HETATM   18  C   UNL     1      -6.064  18.954  69.487  1.00  0.00    -0.291 A  
ENDBRANCH   2  13
TORSDOF 5
ENDMDL
MODEL      128
REMARK 921   NORMALIZED FREE ENERGY PREDICTED BY IDOCK:   -3.55 KCAL/MOL
REMARK 922        TOTAL FREE ENERGY PREDICTED BY IDOCK:   -6.59 KCAL/MOL
REMARK 923 INTER-LIGAND FREE ENERGY PREDICTED BY IDOCK:   -5.97 KCAL/MOL
REMARK 924 INTRA-LIGAND FREE ENERGY PREDICTED BY IDOCK:   -0.62 KCAL/MOL
REMARK 927      BINDING AFFINITY PREDICTED BY RF-SCORE:    0.00 PKD
ROOT
HETATM    1  O   UNL     1      -8.131  10.959  69.134  1.00  0.00    -0.149 OA 
HETATM    2  C   UNL     1      -9.300  10.871  68.783  1.00  0.00    -0.185 C  
ENDROOT
BRANCH   2   3
HETATM    3  O   UNL     1      -9.771  11.050  67.520  1.00  0.00    -0.170 OA 
BRANCH   3   4
HETATM    4  O   UNL     1      -8.865  12.001  66.862  1.00  0.00    -0.186 OA 
BRANCH   4   5
HETATM    5  C   UNL     1      -9.557  13.163  66.709  1.00  0.00    -0.249 C  
HETATM    6  O   UNL     1      -9.413  14.186  67.359  1.00  0.00    -0.208 OA 
BRANCH   5   7
HETATM    7  C   UNL     1     -10.599  13.007  65.658  1.00  0.00    -0.297 A  
HETATM    8  C   UNL     1     -12.902  13.019  64.900  1.00  0.00    -0.368 A  
HETATM    9  C   UNL     1     -11.960  13.210  65.918  1.00  0.00    -0.479 A  
HETATM   10  C   UNL     1     -12.489  12.633  63.624  1.00  0.00    -0.523 A  
HETATM   11  C   UNL     1     -11.135  12.434  63.357  1.00  0.00    -0.465 A  
HETATM   12  C   UNL     1     -10.192  12.616  64.373  1.00  0.00    -0.344 A  
ENDBRANCH   5   7
ENDBRANCH   4   5
ENDBRANCH   3   4
ENDBRANCH   2   3
BRANCH   2  13
HETATM   13  C   UNL     1     -10.402  10.514  69.723  1.00  0.00    -0.211 A  
HETATM   14  C   UNL     1     -12.644  10.768  70.619  1.00  0.00    -0.446 A  
HETATM   15  C   UNL     1     -10.157   9.514  70.677  1.00  0.00    -0.353 A  
HETATM   16  C   UNL     1     -11.657  11.140  69.700  1.00  0.00    -0.398 A  
HETATM   17  C   UNL     1     -11.146   9.144  71.592  1.00  0.00    -0.445 A  
HETATM   18  C   UNL     1     -12.390   9.773  71.563  1.00  0.00    -0.495 A  
ENDBRANCH   2  13
TORSDOF 5
ENDMDL
MODEL      129
REMARK 921   NORMALIZED FREE ENERGY PREDICTED BY IDOCK:   -3.55 KCAL/MOL
REMARK 922        TOTAL FREE ENERGY PREDICTED BY IDOCK:   -6.58 KCAL/MOL
REMARK 923 INTER-LIGAND FREE ENERGY PREDICTED BY IDOCK:   -6.20 KCAL/MOL
REMARK 924 INTRA-LIGAND FREE ENERGY PREDICTED BY IDOCK:   -0.39 KCAL/MOL
REMARK 927      BINDING AFFINITY PREDICTED BY RF-SCORE:    0.00 PKD
ROOT
HETATM    1  O   UNL     1     -13.747   9.483  71.832  1.00  0.00    -0.377 OA 
HETATM    2  C   UNL     1     -12.721  10.116  71.625  1.00  0.00    -0.447 C  
ENDROOT
BRANCH   2   3
HETATM    3  O   UNL     1     -11.456   9.618  71.651  1.00  0.00    -0.380 OA 
BRANCH   3   4
HETATM    4  O   UNL     1     -11.573   8.183  71.945  1.00  0.00    -0.272 OA 
BRANCH   4   5
HETATM    5  C   UNL     1     -10.402   7.606  71.560  1.00  0.00    -0.196 C  
HETATM    6  O   UNL     1      -9.487   7.258  72.291  1.00  0.00    -0.141 OA 
BRANCH   5   7
HETATM    7  C   UNL     1     -10.339   7.507  70.077  1.00  0.00    -0.222 A  
HETATM    8  C   UNL     1      -9.648   8.318  67.898  1.00  0.00    -0.176 A  
HETATM    9  C   UNL     1      -9.649   8.440  69.293  1.00  0.00    -0.164 A  
HETATM   10  C   UNL     1     -10.327   7.263  67.285  1.00  0.00    -0.349 A  
HETATM   11  C   UNL     1     -11.013   6.328  68.060  1.00  0.00    -0.418 A  
HETATM   12  C   UNL     1     -11.022   6.452  69.452  1.00  0.00    -0.421 A  
ENDBRANCH   5   7
ENDBRANCH   4   5
ENDBRANCH   3   4
ENDBRANCH   2   3
BRANCH   2  13
HETATM   13  C   UNL     1     -12.721  11.566  71.274  1.00  0.00    -0.469 A  
HETATM   14  C   UNL     1     -12.034  13.461  69.921  1.00  0.00    -0.408 A  
HETATM   15  C   UNL     1     -13.467  12.440  72.081  1.00  0.00    -0.481 A  
HETATM   16  C   UNL     1     -12.004  12.088  70.188  1.00  0.00    -0.401 A  
HETATM   17  C   UNL     1     -13.497  13.810  71.810  1.00  0.00    -0.456 A  
HETATM   18  C   UNL     1     -12.779  14.319  70.729  1.00  0.00    -0.419 A  
ENDBRANCH   2  13
TORSDOF 5
ENDMDL
MODEL      130
REMARK 921   NORMALIZED FREE ENERGY PREDICTED BY IDOCK:   -3.54 KCAL/MOL
REMARK 922        TOTAL FREE ENERGY PREDICTED BY IDOCK:   -6.58 KCAL/MOL
REMARK 923 INTER-LIGAND FREE ENERGY PREDICTED BY IDOCK:   -6.08 KCAL/MOL
REMARK 924 INTRA-LIGAND FREE ENERGY PREDICTED BY IDOCK:   -0.51 KCAL/MOL
REMARK 927      BINDING AFFINITY PREDICTED BY RF-SCORE:    0.00 PKD
ROOT
HETATM    1  O   UNL     1     -10.515  11.771  69.072  1.00  0.00    -0.188 OA 
HETATM    2  C   UNL     1     -10.556  10.576  69.332  1.00  0.00    -0.240 C  
ENDROOT
BRANCH   2   3
HETATM    3  O   UNL     1      -9.893   9.591  68.668  1.00  0.00    -0.155 OA 
BRANCH   3   4
HETATM    4  O   UNL     1     -10.656   9.321  67.442  1.00  0.00    -0.272 OA 
BRANCH   4   5
HETATM    5  C   UNL     1      -9.747   9.127  66.448  1.00  0.00    -0.262 C  
HETATM    6  O   UNL     1      -8.845   8.304  66.436  1.00  0.00    -0.135 OA 
BRANCH   5   7
HETATM    7  C   UNL     1      -9.951  10.124  65.362  1.00  0.00    -0.377 A  
HETATM    8  C   UNL     1      -9.554  10.975  63.126  1.00  0.00    -0.384 A  
HETATM    9  C   UNL     1      -9.355   9.991  64.101  1.00  0.00    -0.335 A  
HETATM   10  C   UNL     1     -10.352  12.086  63.402  1.00  0.00    -0.468 A  
HETATM   11  C   UNL     1     -10.953  12.222  64.653  1.00  0.00    -0.349 A  
HETATM   12  C   UNL     1     -10.749  11.246  65.632  1.00  0.00    -0.279 A  
ENDBRANCH   5   7
ENDBRANCH   4   5
ENDBRANCH   3   4
ENDBRANCH   2   3
BRANCH   2  13
HETATM   13  C   UNL     1     -11.343  10.021  70.471  1.00  0.00    -0.409 A  
HETATM   14  C   UNL     1     -11.674   8.486  72.324  1.00  0.00    -0.443 A  
HETATM   15  C   UNL     1     -12.607  10.573  70.730  1.00  0.00    -0.474 A  
HETATM   16  C   UNL     1     -10.880   8.972  71.278  1.00  0.00    -0.385 A  
HETATM   17  C   UNL     1     -13.396  10.087  71.776  1.00  0.00    -0.492 A  
HETATM   18  C   UNL     1     -12.928   9.044  72.572  1.00  0.00    -0.429 A  
ENDBRANCH   2  13
TORSDOF 5
ENDMDL
MODEL      131
REMARK 921   NORMALIZED FREE ENERGY PREDICTED BY IDOCK:   -3.53 KCAL/MOL
REMARK 922        TOTAL FREE ENERGY PREDICTED BY IDOCK:   -6.56 KCAL/MOL
REMARK 923 INTER-LIGAND FREE ENERGY PREDICTED BY IDOCK:   -6.02 KCAL/MOL
REMARK 924 INTRA-LIGAND FREE ENERGY PREDICTED BY IDOCK:   -0.55 KCAL/MOL
REMARK 927      BINDING AFFINITY PREDICTED BY RF-SCORE:    0.00 PKD
ROOT
HETATM    1  O   UNL     1     -12.119  14.478  70.840  1.00  0.00    -0.299 OA 
HETATM    2  C   UNL     1     -11.986  14.694  69.644  1.00  0.00    -0.323 C  
ENDROOT
BRANCH   2   3
HETATM    3  O   UNL     1     -12.015  15.914  69.044  1.00  0.00    -0.378 OA 
BRANCH   3   4
HETATM    4  O   UNL     1     -10.801  16.623  69.472  1.00  0.00    -0.321 OA 
BRANCH   4   5
HETATM    5  C   UNL     1     -10.210  17.106  68.345  1.00  0.00    -0.340 C  
HETATM    6  O   UNL     1     -10.700  17.151  67.228  1.00  0.00    -0.302 OA 
BRANCH   5   7
HETATM    7  C   UNL     1      -8.812  17.526  68.636  1.00  0.00    -0.255 A  
HETATM    8  C   UNL     1      -6.497  17.054  69.184  1.00  0.00    -0.221 A  
HETATM    9  C   UNL     1      -7.788  16.603  68.883  1.00  0.00    -0.240 A  
HETATM   10  C   UNL     1      -6.224  18.422  69.231  1.00  0.00    -0.257 A  
HETATM   11  C   UNL     1      -7.238  19.346  68.981  1.00  0.00    -0.397 A  
HETATM   12  C   UNL     1      -8.530  18.900  68.689  1.00  0.00    -0.381 A  
ENDBRANCH   5   7
ENDBRANCH   4   5
ENDBRANCH   3   4
ENDBRANCH   2   3
BRANCH   2  13
HETATM   13  C   UNL     1     -11.735  13.611  68.648  1.00  0.00    -0.389 A  
HETATM   14  C   UNL     1     -11.068  11.361  68.027  1.00  0.00    -0.317 A  
HETATM   15  C   UNL     1     -11.933  13.905  67.290  1.00  0.00    -0.446 A  
HETATM   16  C   UNL     1     -11.300  12.329  69.011  1.00  0.00    -0.333 A  
HETATM   17  C   UNL     1     -11.703  12.936  66.310  1.00  0.00    -0.457 A  
HETATM   18  C   UNL     1     -11.269  11.664  66.680  1.00  0.00    -0.362 A  
ENDBRANCH   2  13
TORSDOF 5
ENDMDL
MODEL      132
REMARK 921   NORMALIZED FREE ENERGY PREDICTED BY IDOCK:   -3.51 KCAL/MOL
REMARK 922        TOTAL FREE ENERGY PREDICTED BY IDOCK:   -6.54 KCAL/MOL
REMARK 923 INTER-LIGAND FREE ENERGY PREDICTED BY IDOCK:   -6.04 KCAL/MOL
REMARK 924 INTRA-LIGAND FREE ENERGY PREDICTED BY IDOCK:   -0.50 KCAL/MOL
REMARK 927      BINDING AFFINITY PREDICTED BY RF-SCORE:    0.00 PKD
ROOT
HETATM    1  O   UNL     1     -12.089  13.546  67.744  1.00  0.00    -0.349 OA 
HETATM    2  C   UNL     1     -11.648  13.489  66.604  1.00  0.00    -0.363 C  
ENDROOT
BRANCH   2   3
HETATM    3  O   UNL     1     -11.644  14.502  65.697  1.00  0.00    -0.341 OA 
BRANCH   3   4
HETATM    4  O   UNL     1     -11.441  15.745  66.453  1.00  0.00     0.028 OA 
BRANCH   4   5
HETATM    5  C   UNL     1     -10.771  16.599  65.633  1.00  0.00    -0.214 C  
HETATM    6  O   UNL     1     -11.136  16.993  64.536  1.00  0.00    -1.098 OA 
BRANCH   5   7
HETATM    7  C   UNL     1      -9.454  16.958  66.227  1.00  0.00    -0.298 A  
HETATM    8  C   UNL     1      -7.242  16.393  67.045  1.00  0.00    -0.257 A  
HETATM    9  C   UNL     1      -8.451  16.007  66.454  1.00  0.00    -0.363 A  
HETATM   10  C   UNL     1      -7.029  17.725  67.404  1.00  0.00    -0.197 A  
HETATM   11  C   UNL     1      -8.022  18.678  67.176  1.00  0.00    -0.249 A  
HETATM   12  C   UNL     1      -9.233  18.295  66.593  1.00  0.00    -0.299 A  
ENDBRANCH   5   7
ENDBRANCH   4   5
ENDBRANCH   3   4
ENDBRANCH   2   3
BRANCH   2  13
HETATM   13  C   UNL     1     -11.004  12.264  66.046  1.00  0.00    -0.327 A  
HETATM   14  C   UNL     1     -10.229  10.876  64.212  1.00  0.00    -0.430 A  
HETATM   15  C   UNL     1     -10.569  11.279  66.947  1.00  0.00    -0.300 A  
HETATM   16  C   UNL     1     -10.828  12.054  64.672  1.00  0.00    -0.357 A  
HETATM   17  C   UNL     1      -9.969  10.105  66.485  1.00  0.00    -0.283 A  
HETATM   18  C   UNL     1      -9.800   9.904  65.117  1.00  0.00    -0.348 A  
ENDBRANCH   2  13
TORSDOF 5
ENDMDL
MODEL      133
REMARK 921   NORMALIZED FREE ENERGY PREDICTED BY IDOCK:   -3.50 KCAL/MOL
REMARK 922        TOTAL FREE ENERGY PREDICTED BY IDOCK:   -6.52 KCAL/MOL
REMARK 923 INTER-LIGAND FREE ENERGY PREDICTED BY IDOCK:   -4.44 KCAL/MOL
REMARK 924 INTRA-LIGAND FREE ENERGY PREDICTED BY IDOCK:   -2.08 KCAL/MOL
REMARK 927      BINDING AFFINITY PREDICTED BY RF-SCORE:    0.00 PKD
ROOT
HETATM    1  O   UNL     1     -11.157   6.208  67.869  1.00  0.00    -0.328 OA 
HETATM    2  C   UNL     1     -10.551   6.392  68.915  1.00  0.00    -0.252 C  
ENDROOT
BRANCH   2   3
HETATM    3  O   UNL     1      -9.300   5.943  69.205  1.00  0.00    -0.119 OA 
BRANCH   3   4
HETATM    4  O   UNL     1      -9.464   4.675  69.928  1.00  0.00    -0.132 OA 
BRANCH   4   5
HETATM    5  C   UNL     1      -8.535   4.667  70.923  1.00  0.00    -0.098 C  
HETATM    6  O   UNL     1      -7.407   4.204  70.862  1.00  0.00    -0.040 OA 
BRANCH   5   7
HETATM    7  C   UNL     1      -9.107   5.253  72.166  1.00  0.00    -0.148 A  
HETATM    8  C   UNL     1     -10.683   5.260  74.009  1.00  0.00    -0.286 A  
HETATM    9  C   UNL     1     -10.161   4.649  72.862  1.00  0.00    -0.229 A  
HETATM   10  C   UNL     1     -10.150   6.466  74.466  1.00  0.00    -0.358 A  
HETATM   11  C   UNL     1      -9.097   7.070  73.780  1.00  0.00    -0.217 A  
HETATM   12  C   UNL     1      -8.579   6.468  72.630  1.00  0.00    -0.124 A  
ENDBRANCH   5   7
ENDBRANCH   4   5
ENDBRANCH   3   4
ENDBRANCH   2   3
BRANCH   2  13
HETATM   13  C   UNL     1     -11.111   7.191  70.044  1.00  0.00    -0.288 A  
HETATM   14  C   UNL     1     -12.660   7.545  71.880  1.00  0.00    -0.324 A  
HETATM   15  C   UNL     1     -10.552   8.453  70.300  1.00  0.00    -0.234 A  
HETATM   16  C   UNL     1     -12.170   6.741  70.844  1.00  0.00    -0.386 A  
HETATM   17  C   UNL     1     -11.041   9.252  71.337  1.00  0.00    -0.437 A  
HETATM   18  C   UNL     1     -12.096   8.797  72.125  1.00  0.00    -0.441 A  
ENDBRANCH   2  13
TORSDOF 5
ENDMDL
MODEL      134
REMARK 921   NORMALIZED FREE ENERGY PREDICTED BY IDOCK:   -3.50 KCAL/MOL
REMARK 922        TOTAL FREE ENERGY PREDICTED BY IDOCK:   -6.52 KCAL/MOL
REMARK 923 INTER-LIGAND FREE ENERGY PREDICTED BY IDOCK:   -6.05 KCAL/MOL
REMARK 924 INTRA-LIGAND FREE ENERGY PREDICTED BY IDOCK:   -0.48 KCAL/MOL
REMARK 927      BINDING AFFINITY PREDICTED BY RF-SCORE:    0.00 PKD
ROOT
HETATM    1  O   UNL     1     -12.117  13.400  68.839  1.00  0.00    -0.331 OA 
HETATM    2  C   UNL     1     -11.884  13.991  67.793  1.00  0.00    -0.384 C  
ENDROOT
BRANCH   2   3
HETATM    3  O   UNL     1     -11.634  15.322  67.667  1.00  0.00    -0.326 OA 
BRANCH   3   4
HETATM    4  O   UNL     1     -10.174  15.471  67.584  1.00  0.00    -0.248 OA 
BRANCH   4   5
HETATM    5  C   UNL     1      -9.843  16.534  68.365  1.00  0.00    -0.237 C  
HETATM    6  O   UNL     1     -10.411  16.895  69.383  1.00  0.00    -0.321 OA 
BRANCH   5   7
HETATM    7  C   UNL     1      -8.698  17.275  67.767  1.00  0.00    -0.226 A  
HETATM    8  C   UNL     1      -6.883  17.501  66.175  1.00  0.00    -0.311 A  
HETATM    9  C   UNL     1      -7.971  16.778  66.678  1.00  0.00    -0.306 A  
HETATM   10  C   UNL     1      -6.524  18.722  66.750  1.00  0.00    -0.204 A  
HETATM   11  C   UNL     1      -7.248  19.225  67.831  1.00  0.00    -0.285 A  
HETATM   12  C   UNL     1      -8.329  18.502  68.341  1.00  0.00    -0.355 A  
ENDBRANCH   5   7
ENDBRANCH   4   5
ENDBRANCH   3   4
ENDBRANCH   2   3
BRANCH   2  13
HETATM   13  C   UNL     1     -11.811  13.301  66.472  1.00  0.00    -0.450 A  
HETATM   14  C   UNL     1     -11.033  11.538  64.996  1.00  0.00    -0.305 A  
HETATM   15  C   UNL     1     -12.506  13.869  65.392  1.00  0.00    -0.528 A  
HETATM   16  C   UNL     1     -11.073  12.128  66.265  1.00  0.00    -0.353 A  
HETATM   17  C   UNL     1     -12.465  13.276  64.128  1.00  0.00    -0.330 A  
HETATM   18  C   UNL     1     -11.728  12.110  63.931  1.00  0.00    -0.546 A  
ENDBRANCH   2  13
TORSDOF 5
ENDMDL
MODEL      135
REMARK 921   NORMALIZED FREE ENERGY PREDICTED BY IDOCK:   -3.48 KCAL/MOL
REMARK 922        TOTAL FREE ENERGY PREDICTED BY IDOCK:   -6.51 KCAL/MOL
REMARK 923 INTER-LIGAND FREE ENERGY PREDICTED BY IDOCK:   -6.05 KCAL/MOL
REMARK 924 INTRA-LIGAND FREE ENERGY PREDICTED BY IDOCK:   -0.45 KCAL/MOL
REMARK 927      BINDING AFFINITY PREDICTED BY RF-SCORE:    0.00 PKD
ROOT
HETATM    1  O   UNL     1     -12.059  14.198  67.884  1.00  0.00    -0.358 OA 
HETATM    2  C   UNL     1     -11.121  14.115  67.103  1.00  0.00    -0.307 C  
ENDROOT
BRANCH   2   3
HETATM    3  O   UNL     1      -9.908  14.713  67.244  1.00  0.00    -0.227 OA 
BRANCH   3   4
HETATM    4  O   UNL     1     -10.167  16.116  67.599  1.00  0.00    -0.253 OA 
BRANCH   4   5
HETATM    5  C   UNL     1      -9.516  16.880  66.680  1.00  0.00    -0.265 C  
HETATM    6  O   UNL     1      -9.804  17.002  65.500  1.00  0.00    -0.551 OA 
BRANCH   5   7
HETATM    7  C   UNL     1      -8.323  17.522  67.296  1.00  0.00    -0.225 A  
HETATM    8  C   UNL     1      -7.275  19.118  68.791  1.00  0.00    -0.368 A  
HETATM    9  C   UNL     1      -8.430  18.526  68.267  1.00  0.00    -0.341 A  
HETATM   10  C   UNL     1      -6.015  18.707  68.355  1.00  0.00    -0.199 A  
HETATM   11  C   UNL     1      -5.901  17.704  67.392  1.00  0.00    -0.161 A  
HETATM   12  C   UNL     1      -7.052  17.116  66.861  1.00  0.00    -0.244 A  
ENDBRANCH   5   7
ENDBRANCH   4   5
ENDBRANCH   3   4
ENDBRANCH   2   3
BRANCH   2  13
HETATM   13  C   UNL     1     -11.173  13.292  65.860  1.00  0.00    -0.309 A  
HETATM   14  C   UNL     1     -10.620  11.328  64.545  1.00  0.00    -0.401 A  
HETATM   15  C   UNL     1     -11.875  13.806  64.758  1.00  0.00    -0.413 A  
HETATM   16  C   UNL     1     -10.546  12.044  65.744  1.00  0.00    -0.301 A  
HETATM   17  C   UNL     1     -11.950  13.087  63.562  1.00  0.00    -0.615 A  
HETATM   18  C   UNL     1     -11.321  11.848  63.456  1.00  0.00    -0.516 A  
ENDBRANCH   2  13
TORSDOF 5
ENDMDL
MODEL      136
REMARK 921   NORMALIZED FREE ENERGY PREDICTED BY IDOCK:   -3.48 KCAL/MOL
REMARK 922        TOTAL FREE ENERGY PREDICTED BY IDOCK:   -6.50 KCAL/MOL
REMARK 923 INTER-LIGAND FREE ENERGY PREDICTED BY IDOCK:   -6.14 KCAL/MOL
REMARK 924 INTRA-LIGAND FREE ENERGY PREDICTED BY IDOCK:   -0.36 KCAL/MOL
REMARK 927      BINDING AFFINITY PREDICTED BY RF-SCORE:    0.00 PKD
ROOT
HETATM    1  O   UNL     1     -10.529  10.082  67.369  1.00  0.00    -0.225 OA 
HETATM    2  C   UNL     1     -11.187  11.107  67.485  1.00  0.00    -0.301 C  
ENDROOT
BRANCH   2   3
HETATM    3  O   UNL     1     -11.718  11.590  68.640  1.00  0.00    -0.287 OA 
BRANCH   3   4
HETATM    4  O   UNL     1     -11.047  10.884  69.740  1.00  0.00    -0.258 OA 
BRANCH   4   5
HETATM    5  C   UNL     1     -12.026  10.404  70.554  1.00  0.00    -0.334 C  
HETATM    6  O   UNL     1     -13.091  10.944  70.809  1.00  0.00    -0.272 OA 
BRANCH   5   7
HETATM    7  C   UNL     1     -11.597   9.122  71.176  1.00  0.00    -0.386 A  
HETATM    8  C   UNL     1      -9.912   7.637  72.091  1.00  0.00    -0.232 A  
HETATM    9  C   UNL     1     -10.267   8.873  71.539  1.00  0.00    -0.398 A  
HETATM   10  C   UNL     1     -10.881   6.652  72.289  1.00  0.00    -0.260 A  
HETATM   11  C   UNL     1     -12.207   6.894  71.934  1.00  0.00    -0.370 A  
HETATM   12  C   UNL     1     -12.564   8.124  71.375  1.00  0.00    -0.301 A  
ENDBRANCH   5   7
ENDBRANCH   4   5
ENDBRANCH   3   4
ENDBRANCH   2   3
BRANCH   2  13
HETATM   13  C   UNL     1     -11.480  12.015  66.337  1.00  0.00    -0.417 A  
HETATM   14  C   UNL     1     -12.564  13.937  65.326  1.00  0.00    -0.508 A  
HETATM   15  C   UNL     1     -10.897  11.717  65.095  1.00  0.00    -0.351 A  
HETATM   16  C   UNL     1     -12.317  13.134  66.445  1.00  0.00    -0.300 A  
HETATM   17  C   UNL     1     -11.143  12.523  63.981  1.00  0.00    -0.449 A  
HETATM   18  C   UNL     1     -11.978  13.633  64.097  1.00  0.00    -0.488 A  
ENDBRANCH   2  13
TORSDOF 5
ENDMDL
MODEL      137
REMARK 921   NORMALIZED FREE ENERGY PREDICTED BY IDOCK:   -3.45 KCAL/MOL
REMARK 922        TOTAL FREE ENERGY PREDICTED BY IDOCK:   -6.46 KCAL/MOL
REMARK 923 INTER-LIGAND FREE ENERGY PREDICTED BY IDOCK:   -5.84 KCAL/MOL
REMARK 924 INTRA-LIGAND FREE ENERGY PREDICTED BY IDOCK:   -0.62 KCAL/MOL
REMARK 927      BINDING AFFINITY PREDICTED BY RF-SCORE:    0.00 PKD
ROOT
HETATM    1  O   UNL     1     -11.705  11.413  66.957  1.00  0.00    -0.535 OA 
HETATM    2  C   UNL     1     -11.150  11.388  65.867  1.00  0.00    -0.162 C  
ENDROOT
BRANCH   2   3
HETATM    3  O   UNL     1     -11.632  11.920  64.712  1.00  0.00    -0.307 OA 
BRANCH   3   4
HETATM    4  O   UNL     1     -10.841  13.128  64.441  1.00  0.00    -0.356 OA 
BRANCH   4   5
HETATM    5  C   UNL     1     -11.691  14.185  64.538  1.00  0.00    -0.413 C  
HETATM    6  O   UNL     1     -12.635  14.430  63.803  1.00  0.00    -0.829 OA 
BRANCH   5   7
HETATM    7  C   UNL     1     -11.276  15.080  65.653  1.00  0.00    -0.327 A  
HETATM    8  C   UNL     1     -11.241  15.725  67.990  1.00  0.00    -0.338 A  
HETATM    9  C   UNL     1     -11.632  14.833  66.984  1.00  0.00    -0.352 A  
HETATM   10  C   UNL     1     -10.490  16.858  67.671  1.00  0.00    -0.332 A  
HETATM   11  C   UNL     1     -10.127  17.107  66.348  1.00  0.00    -0.326 A  
HETATM   12  C   UNL     1     -10.523  16.223  65.340  1.00  0.00    -0.365 A  
ENDBRANCH   5   7
ENDBRANCH   4   5
ENDBRANCH   3   4
ENDBRANCH   2   3
BRANCH   2  13
HETATM   13  C   UNL     1      -9.805  10.776  65.658  1.00  0.00    -0.299 A  
HETATM   14  C   UNL     1      -8.241   9.352  64.466  1.00  0.00    -0.147 A  
HETATM   15  C   UNL     1      -8.790  11.083  66.579  1.00  0.00    -0.173 A  
HETATM   16  C   UNL     1      -9.520   9.905  64.598  1.00  0.00    -0.343 A  
HETATM   17  C   UNL     1      -7.514  10.532  66.443  1.00  0.00    -0.133 A  
HETATM   18  C   UNL     1      -7.241   9.666  65.386  1.00  0.00    -0.104 A  
ENDBRANCH   2  13
TORSDOF 5
ENDMDL
MODEL      138
REMARK 921   NORMALIZED FREE ENERGY PREDICTED BY IDOCK:   -3.44 KCAL/MOL
REMARK 922        TOTAL FREE ENERGY PREDICTED BY IDOCK:   -6.45 KCAL/MOL
REMARK 923 INTER-LIGAND FREE ENERGY PREDICTED BY IDOCK:   -6.08 KCAL/MOL
REMARK 924 INTRA-LIGAND FREE ENERGY PREDICTED BY IDOCK:   -0.37 KCAL/MOL
REMARK 927      BINDING AFFINITY PREDICTED BY RF-SCORE:    0.00 PKD
ROOT
HETATM    1  O   UNL     1     -12.216  10.618  69.762  1.00  0.00    -0.305 OA 
HETATM    2  C   UNL     1     -12.028  11.558  69.002  1.00  0.00    -0.311 C  
ENDROOT
BRANCH   2   3
HETATM    3  O   UNL     1     -11.829  11.472  67.659  1.00  0.00    -0.595 OA 
BRANCH   3   4
HETATM    4  O   UNL     1     -10.442  11.028  67.465  1.00  0.00    -0.190 OA 
BRANCH   4   5
HETATM    5  C   UNL     1     -10.486   9.951  66.635  1.00  0.00    -0.169 C  
HETATM    6  O   UNL     1     -10.742   8.799  66.950  1.00  0.00    -0.240 OA 
BRANCH   5   7
HETATM    7  C   UNL     1     -10.103  10.349  65.253  1.00  0.00    -0.370 A  
HETATM    8  C   UNL     1     -10.342  11.723  63.270  1.00  0.00    -0.446 A  
HETATM    9  C   UNL     1     -10.720  11.411  64.581  1.00  0.00    -0.378 A  
HETATM   10  C   UNL     1      -9.347  10.983  62.630  1.00  0.00    -0.348 A  
HETATM   11  C   UNL     1      -8.725   9.926  63.296  1.00  0.00    -0.227 A  
HETATM   12  C   UNL     1      -9.105   9.607  64.602  1.00  0.00    -0.286 A  
ENDBRANCH   5   7
ENDBRANCH   4   5
ENDBRANCH   3   4
ENDBRANCH   2   3
BRANCH   2  13
HETATM   13  C   UNL     1     -12.020  12.979  69.457  1.00  0.00    -0.350 A  
HETATM   14  C   UNL     1     -12.155  14.701  71.162  1.00  0.00    -0.403 A  
HETATM   15  C   UNL     1     -11.885  13.982  68.484  1.00  0.00    -0.399 A  
HETATM   16  C   UNL     1     -12.155  13.349  70.802  1.00  0.00    -0.333 A  
HETATM   17  C   UNL     1     -11.883  15.331  68.847  1.00  0.00    -0.344 A  
HETATM   18  C   UNL     1     -12.019  15.690  70.187  1.00  0.00    -0.387 A  
ENDBRANCH   2  13
TORSDOF 5
ENDMDL
MODEL      139
REMARK 921   NORMALIZED FREE ENERGY PREDICTED BY IDOCK:   -3.44 KCAL/MOL
REMARK 922        TOTAL FREE ENERGY PREDICTED BY IDOCK:   -6.45 KCAL/MOL
REMARK 923 INTER-LIGAND FREE ENERGY PREDICTED BY IDOCK:   -6.10 KCAL/MOL
REMARK 924 INTRA-LIGAND FREE ENERGY PREDICTED BY IDOCK:   -0.35 KCAL/MOL
REMARK 927      BINDING AFFINITY PREDICTED BY RF-SCORE:    0.00 PKD
ROOT
HETATM    1  O   UNL     1     -10.799  19.010  66.347  1.00  0.00    -0.345 OA 
HETATM    2  C   UNL     1      -9.753  18.533  66.767  1.00  0.00    -0.333 C  
ENDROOT
BRANCH   2   3
HETATM    3  O   UNL     1      -9.539  17.227  67.078  1.00  0.00    -0.248 OA 
BRANCH   3   4
HETATM    4  O   UNL     1      -9.590  16.477  65.815  1.00  0.00    -0.476 OA 
BRANCH   4   5
HETATM    5  C   UNL     1      -9.450  15.162  66.133  1.00  0.00    -0.319 C  
HETATM    6  O   UNL     1      -8.675  14.688  66.948  1.00  0.00    -0.225 OA 
BRANCH   5   7
HETATM    7  C   UNL     1     -10.345  14.329  65.283  1.00  0.00    -0.417 A  
HETATM    8  C   UNL     1     -12.358  13.989  63.975  1.00  0.00    -0.341 A  
HETATM    9  C   UNL     1     -11.538  14.825  64.741  1.00  0.00    -0.418 A  
HETATM   10  C   UNL     1     -11.988  12.663  63.741  1.00  0.00    -0.588 A  
HETATM   11  C   UNL     1     -10.799  12.165  64.274  1.00  0.00    -0.388 A  
HETATM   12  C   UNL     1      -9.982  12.994  65.046  1.00  0.00    -0.158 A  
ENDBRANCH   5   7
ENDBRANCH   4   5
ENDBRANCH   3   4
ENDBRANCH   2   3
BRANCH   2  13
HETATM   13  C   UNL     1      -8.518  19.345  66.971  1.00  0.00    -0.313 A  
HETATM   14  C   UNL     1      -6.814  20.371  68.363  1.00  0.00    -0.256 A  
HETATM   15  C   UNL     1      -7.895  19.895  65.840  1.00  0.00    -0.313 A  
HETATM   16  C   UNL     1      -7.967  19.588  68.237  1.00  0.00    -0.368 A  
HETATM   17  C   UNL     1      -6.743  20.674  65.969  1.00  0.00    -0.243 A  
HETATM   18  C   UNL     1      -6.203  20.912  67.231  1.00  0.00    -0.356 A  
ENDBRANCH   2  13
TORSDOF 5
ENDMDL
MODEL      140
REMARK 921   NORMALIZED FREE ENERGY PREDICTED BY IDOCK:   -3.44 KCAL/MOL
REMARK 922        TOTAL FREE ENERGY PREDICTED BY IDOCK:   -6.45 KCAL/MOL
REMARK 923 INTER-LIGAND FREE ENERGY PREDICTED BY IDOCK:   -6.07 KCAL/MOL
REMARK 924 INTRA-LIGAND FREE ENERGY PREDICTED BY IDOCK:   -0.39 KCAL/MOL
REMARK 927      BINDING AFFINITY PREDICTED BY RF-SCORE:    0.00 PKD
ROOT
HETATM    1  O   UNL     1     -10.874   9.289  69.085  1.00  0.00    -0.213 OA 
HETATM    2  C   UNL     1     -10.875  10.089  68.160  1.00  0.00    -0.255 C  
ENDROOT
BRANCH   2   3
HETATM    3  O   UNL     1     -11.826  11.031  67.919  1.00  0.00    -0.600 OA 
BRANCH   3   4
HETATM    4  O   UNL     1     -12.214  11.583  69.224  1.00  0.00    -0.283 OA 
BRANCH   4   5
HETATM    5  C   UNL     1     -11.784  12.874  69.247  1.00  0.00    -0.321 C  
HETATM    6  O   UNL     1     -10.918  13.366  68.541  1.00  0.00    -0.249 OA 
BRANCH   5   7
HETATM    7  C   UNL     1     -12.475  13.627  70.329  1.00  0.00    -0.335 A  
HETATM    8  C   UNL     1     -13.153  15.686  71.416  1.00  0.00    -0.559 A  
HETATM    9  C   UNL     1     -12.517  15.027  70.358  1.00  0.00    -0.407 A  
HETATM   10  C   UNL     1     -13.755  14.953  72.440  1.00  0.00    -0.576 A  
HETATM   11  C   UNL     1     -13.722  13.559  72.415  1.00  0.00    -0.704 A  
HETATM   12  C   UNL     1     -13.080  12.898  71.364  1.00  0.00    -0.331 A  
ENDBRANCH   5   7
ENDBRANCH   4   5
ENDBRANCH   3   4
ENDBRANCH   2   3
BRANCH   2  13
HETATM   13  C   UNL     1      -9.777  10.162  67.152  1.00  0.00    -0.214 A  
HETATM   14  C   UNL     1      -7.628  10.961  66.353  1.00  0.00    -0.146 A  
HETATM   15  C   UNL     1      -9.930   9.442  65.957  1.00  0.00    -0.352 A  
HETATM   16  C   UNL     1      -8.615  10.923  67.344  1.00  0.00    -0.127 A  
HETATM   17  C   UNL     1      -8.942   9.481  64.970  1.00  0.00    -0.258 A  
HETATM   18  C   UNL     1      -7.791  10.241  65.169  1.00  0.00    -0.138 A  
ENDBRANCH   2  13
TORSDOF 5
ENDMDL
MODEL      141
REMARK 921   NORMALIZED FREE ENERGY PREDICTED BY IDOCK:   -3.44 KCAL/MOL
REMARK 922        TOTAL FREE ENERGY PREDICTED BY IDOCK:   -6.45 KCAL/MOL
REMARK 923 INTER-LIGAND FREE ENERGY PREDICTED BY IDOCK:   -6.05 KCAL/MOL
REMARK 924 INTRA-LIGAND FREE ENERGY PREDICTED BY IDOCK:   -0.40 KCAL/MOL
REMARK 927      BINDING AFFINITY PREDICTED BY RF-SCORE:    0.00 PKD
ROOT
HETATM    1  O   UNL     1     -10.947  18.889  67.363  1.00  0.00    -0.437 OA 
HETATM    2  C   UNL     1      -9.937  18.351  67.797  1.00  0.00    -0.346 C  
ENDROOT
BRANCH   2   3
HETATM    3  O   UNL     1      -9.837  17.061  68.218  1.00  0.00    -0.256 OA 
BRANCH   3   4
HETATM    4  O   UNL     1     -11.208  16.541  68.315  1.00  0.00    -0.356 OA 
BRANCH   4   5
HETATM    5  C   UNL     1     -11.108  15.232  68.668  1.00  0.00    -0.279 C  
HETATM    6  O   UNL     1     -10.758  14.795  69.753  1.00  0.00    -0.228 OA 
BRANCH   5   7
HETATM    7  C   UNL     1     -11.424  14.358  67.505  1.00  0.00    -0.370 A  
HETATM    8  C   UNL     1     -12.395  13.962  65.319  1.00  0.00    -0.485 A  
HETATM    9  C   UNL     1     -12.095  14.835  66.371  1.00  0.00    -0.121 A  
HETATM   10  C   UNL     1     -12.022  12.619  65.391  1.00  0.00    -0.496 A  
HETATM   11  C   UNL     1     -11.350  12.139  66.515  1.00  0.00    -0.405 A  
HETATM   12  C   UNL     1     -11.056  13.006  67.571  1.00  0.00    -0.297 A  
ENDBRANCH   5   7
ENDBRANCH   4   5
ENDBRANCH   3   4
ENDBRANCH   2   3
BRANCH   2  13
HETATM   13  C   UNL     1      -8.625  19.053  67.897  1.00  0.00    -0.333 A  
HETATM   14  C   UNL     1      -6.960  20.641  67.122  1.00  0.00    -0.377 A  
HETATM   15  C   UNL     1      -7.768  18.703  68.953  1.00  0.00    -0.270 A  
HETATM   16  C   UNL     1      -8.211  20.030  66.981  1.00  0.00    -0.364 A  
HETATM   17  C   UNL     1      -6.521  19.317  69.092  1.00  0.00    -0.334 A  
HETATM   18  C   UNL     1      -6.118  20.285  68.176  1.00  0.00    -0.299 A  
ENDBRANCH   2  13
TORSDOF 5
ENDMDL
MODEL      142
REMARK 921   NORMALIZED FREE ENERGY PREDICTED BY IDOCK:   -3.41 KCAL/MOL
REMARK 922        TOTAL FREE ENERGY PREDICTED BY IDOCK:   -6.42 KCAL/MOL
REMARK 923 INTER-LIGAND FREE ENERGY PREDICTED BY IDOCK:   -5.60 KCAL/MOL
REMARK 924 INTRA-LIGAND FREE ENERGY PREDICTED BY IDOCK:   -0.82 KCAL/MOL
REMARK 927      BINDING AFFINITY PREDICTED BY RF-SCORE:    0.00 PKD
ROOT
HETATM    1  O   UNL     1     -10.574   9.472  67.697  1.00  0.00    -0.248 OA 
HETATM    2  C   UNL     1     -10.866  10.388  66.941  1.00  0.00    -0.161 C  
ENDROOT
BRANCH   2   3
HETATM    3  O   UNL     1     -11.730  11.403  67.212  1.00  0.00    -0.577 OA 
BRANCH   3   4
HETATM    4  O   UNL     1     -10.952  12.450  67.890  1.00  0.00    -0.210 OA 
BRANCH   4   5
HETATM    5  C   UNL     1     -11.727  13.568  67.904  1.00  0.00    -0.357 C  
HETATM    6  O   UNL     1     -12.452  13.940  68.813  1.00  0.00    -0.166 OA 
BRANCH   5   7
HETATM    7  C   UNL     1     -11.633  14.277  66.599  1.00  0.00    -0.397 A  
HETATM    8  C   UNL     1     -12.474  14.839  64.395  1.00  0.00    -0.274 A  
HETATM    9  C   UNL     1     -12.628  14.177  65.618  1.00  0.00    -0.495 A  
HETATM   10  C   UNL     1     -11.334  15.607  64.150  1.00  0.00    -0.033 A  
HETATM   11  C   UNL     1     -10.342  15.715  65.124  1.00  0.00    -0.366 A  
HETATM   12  C   UNL     1     -10.488  15.048  66.343  1.00  0.00    -0.296 A  
ENDBRANCH   5   7
ENDBRANCH   4   5
ENDBRANCH   3   4
ENDBRANCH   2   3
BRANCH   2  13
HETATM   13  C   UNL     1     -10.267  10.538  65.583  1.00  0.00    -0.315 A  
HETATM   14  C   UNL     1      -8.693   9.932  63.837  1.00  0.00    -0.230 A  
HETATM   15  C   UNL     1     -10.775  11.545  64.746  1.00  0.00    -0.366 A  
HETATM   16  C   UNL     1      -9.220   9.731  65.117  1.00  0.00    -0.297 A  
HETATM   17  C   UNL     1     -10.247  11.742  63.467  1.00  0.00    -0.483 A  
HETATM   18  C   UNL     1      -9.206  10.936  63.014  1.00  0.00    -0.329 A  
ENDBRANCH   2  13
TORSDOF 5
ENDMDL
MODEL      143
REMARK 921   NORMALIZED FREE ENERGY PREDICTED BY IDOCK:   -3.40 KCAL/MOL
REMARK 922        TOTAL FREE ENERGY PREDICTED BY IDOCK:   -6.40 KCAL/MOL
REMARK 923 INTER-LIGAND FREE ENERGY PREDICTED BY IDOCK:   -5.71 KCAL/MOL
REMARK 924 INTRA-LIGAND FREE ENERGY PREDICTED BY IDOCK:   -0.69 KCAL/MOL
REMARK 927      BINDING AFFINITY PREDICTED BY RF-SCORE:    0.00 PKD
ROOT
HETATM    1  O   UNL     1      -8.573  11.688  67.103  1.00  0.00    -0.151 OA 
HETATM    2  C   UNL     1      -9.793  11.725  67.185  1.00  0.00    -0.193 C  
ENDROOT
BRANCH   2   3
HETATM    3  O   UNL     1     -10.519  11.653  68.333  1.00  0.00    -0.197 OA 
BRANCH   3   4
HETATM    4  O   UNL     1     -11.237  10.372  68.298  1.00  0.00    -0.282 OA 
BRANCH   4   5
HETATM    5  C   UNL     1     -10.628   9.556  69.201  1.00  0.00    -0.222 C  
HETATM    6  O   UNL     1     -10.097   9.895  70.247  1.00  0.00    -0.263 OA 
BRANCH   5   7
HETATM    7  C   UNL     1     -10.628   8.151  68.708  1.00  0.00    -0.149 A  
HETATM    8  C   UNL     1     -10.661   5.752  69.059  1.00  0.00    -0.354 A  
HETATM    9  C   UNL     1     -10.697   7.053  69.575  1.00  0.00    -0.263 A  
HETATM   10  C   UNL     1     -10.564   5.544  67.682  1.00  0.00    -0.239 A  
HETATM   11  C   UNL     1     -10.500   6.633  66.814  1.00  0.00    -0.298 A  
HETATM   12  C   UNL     1     -10.527   7.933  67.325  1.00  0.00    -0.390 A  
ENDBRANCH   5   7
ENDBRANCH   4   5
ENDBRANCH   3   4
ENDBRANCH   2   3
BRANCH   2  13
HETATM   13  C   UNL     1     -10.679  11.892  65.996  1.00  0.00    -0.326 A  
HETATM   14  C   UNL     1     -12.623  12.803  64.862  1.00  0.00    -0.541 A  
HETATM   15  C   UNL     1     -10.349  11.193  64.824  1.00  0.00    -0.387 A  
HETATM   16  C   UNL     1     -11.824  12.700  66.007  1.00  0.00    -0.492 A  
HETATM   17  C   UNL     1     -11.146  11.300  63.682  1.00  0.00    -0.300 A  
HETATM   18  C   UNL     1     -12.284  12.105  63.703  1.00  0.00    -0.663 A  
ENDBRANCH   2  13
TORSDOF 5
ENDMDL
MODEL      144
REMARK 921   NORMALIZED FREE ENERGY PREDICTED BY IDOCK:   -3.38 KCAL/MOL
REMARK 922        TOTAL FREE ENERGY PREDICTED BY IDOCK:   -6.37 KCAL/MOL
REMARK 923 INTER-LIGAND FREE ENERGY PREDICTED BY IDOCK:   -5.89 KCAL/MOL
REMARK 924 INTRA-LIGAND FREE ENERGY PREDICTED BY IDOCK:   -0.48 KCAL/MOL
REMARK 927      BINDING AFFINITY PREDICTED BY RF-SCORE:    0.00 PKD
ROOT
HETATM    1  O   UNL     1      -7.671  14.153  68.219  1.00  0.00    -0.119 OA 
HETATM    2  C   UNL     1      -8.526  15.017  68.360  1.00  0.00    -0.153 C  
ENDROOT
BRANCH   2   3
HETATM    3  O   UNL     1      -9.630  14.927  69.149  1.00  0.00    -0.210 OA 
BRANCH   3   4
HETATM    4  O   UNL     1     -10.319  13.686  68.772  1.00  0.00    -0.231 OA 
BRANCH   4   5
HETATM    5  C   UNL     1     -11.640  13.990  68.656  1.00  0.00    -0.325 C  
HETATM    6  O   UNL     1     -12.230  14.297  67.631  1.00  0.00    -0.337 OA 
BRANCH   5   7
HETATM    7  C   UNL     1     -12.293  13.969  69.993  1.00  0.00    -0.397 A  
HETATM    8  C   UNL     1     -13.174  12.813  71.934  1.00  0.00    -0.511 A  
HETATM    9  C   UNL     1     -12.527  12.778  70.693  1.00  0.00    -0.328 A  
HETATM   10  C   UNL     1     -13.580  14.031  72.481  1.00  0.00    -0.670 A  
HETATM   11  C   UNL     1     -13.346  15.220  71.792  1.00  0.00    -0.540 A  
HETATM   12  C   UNL     1     -12.708  15.189  70.549  1.00  0.00    -0.416 A  
ENDBRANCH   5   7
ENDBRANCH   4   5
ENDBRANCH   3   4
ENDBRANCH   2   3
BRANCH   2  13
HETATM   13  C   UNL     1      -8.453  16.345  67.685  1.00  0.00    -0.178 A  
HETATM   14  C   UNL     1      -9.289  18.574  67.206  1.00  0.00    -0.286 A  
HETATM   15  C   UNL     1      -7.385  16.580  66.804  1.00  0.00    -0.274 A  
HETATM   16  C   UNL     1      -9.406  17.354  67.882  1.00  0.00    -0.267 A  
HETATM   17  C   UNL     1      -7.269  17.800  66.133  1.00  0.00    -0.346 A  
HETATM   18  C   UNL     1      -8.223  18.796  66.335  1.00  0.00    -0.299 A  
ENDBRANCH   2  13
TORSDOF 5
ENDMDL
MODEL      145
REMARK 921   NORMALIZED FREE ENERGY PREDICTED BY IDOCK:   -3.38 KCAL/MOL
REMARK 922        TOTAL FREE ENERGY PREDICTED BY IDOCK:   -6.37 KCAL/MOL
REMARK 923 INTER-LIGAND FREE ENERGY PREDICTED BY IDOCK:   -5.96 KCAL/MOL
REMARK 924 INTRA-LIGAND FREE ENERGY PREDICTED BY IDOCK:   -0.40 KCAL/MOL
REMARK 927      BINDING AFFINITY PREDICTED BY RF-SCORE:    0.00 PKD
ROOT
HETATM    1  O   UNL     1     -11.757  11.895  66.724  1.00  0.00    -0.548 OA 
HETATM    2  C   UNL     1     -11.902  12.055  67.928  1.00  0.00    -0.250 C  
ENDROOT
BRANCH   2   3
HETATM    3  O   UNL     1     -12.062  11.071  68.853  1.00  0.00    -0.479 OA 
BRANCH   3   4
HETATM    4  O   UNL     1     -10.722  10.744  69.358  1.00  0.00    -0.216 OA 
BRANCH   4   5
HETATM    5  C   UNL     1     -10.458   9.465  68.977  1.00  0.00    -0.217 C  
HETATM    6  O   UNL     1     -10.039   9.101  67.890  1.00  0.00    -0.177 OA 
BRANCH   5   7
HETATM    7  C   UNL     1     -10.822   8.518  70.066  1.00  0.00    -0.225 A  
HETATM    8  C   UNL     1     -11.385   6.308  70.891  1.00  0.00    -0.389 A  
HETATM    9  C   UNL     1     -11.012   7.150  69.836  1.00  0.00    -0.278 A  
HETATM   10  C   UNL     1     -11.561   6.827  72.174  1.00  0.00    -0.324 A  
HETATM   11  C   UNL     1     -11.369   8.188  72.411  1.00  0.00    -0.456 A  
HETATM   12  C   UNL     1     -11.005   9.032  71.359  1.00  0.00    -0.394 A  
ENDBRANCH   5   7
ENDBRANCH   4   5
ENDBRANCH   3   4
ENDBRANCH   2   3
BRANCH   2  13
HETATM   13  C   UNL     1     -11.892  13.401  68.573  1.00  0.00    -0.401 A  
HETATM   14  C   UNL     1     -11.356  15.769  68.621  1.00  0.00    -0.369 A  
HETATM   15  C   UNL     1     -12.444  13.522  69.858  1.00  0.00    -0.194 A  
HETATM   16  C   UNL     1     -11.348  14.537  67.957  1.00  0.00    -0.326 A  
HETATM   17  C   UNL     1     -12.453  14.753  70.517  1.00  0.00    -0.411 A  
HETATM   18  C   UNL     1     -11.908  15.876  69.898  1.00  0.00    -0.309 A  
ENDBRANCH   2  13
TORSDOF 5
ENDMDL
MODEL      146
REMARK 921   NORMALIZED FREE ENERGY PREDICTED BY IDOCK:   -3.35 KCAL/MOL
REMARK 922        TOTAL FREE ENERGY PREDICTED BY IDOCK:   -6.33 KCAL/MOL
REMARK 923 INTER-LIGAND FREE ENERGY PREDICTED BY IDOCK:   -5.89 KCAL/MOL
REMARK 924 INTRA-LIGAND FREE ENERGY PREDICTED BY IDOCK:   -0.44 KCAL/MOL
REMARK 927      BINDING AFFINITY PREDICTED BY RF-SCORE:    0.00 PKD
ROOT
HETATM    1  O   UNL     1     -12.843  10.474  71.339  1.00  0.00    -0.376 OA 
HETATM    2  C   UNL     1     -11.900  10.078  70.668  1.00  0.00    -0.325 C  
ENDROOT
BRANCH   2   3
HETATM    3  O   UNL     1     -11.632  10.428  69.381  1.00  0.00    -0.245 OA 
BRANCH   3   4
HETATM    4  O   UNL     1     -10.895  11.698  69.434  1.00  0.00    -0.196 OA 
BRANCH   4   5
HETATM    5  C   UNL     1     -11.684  12.636  68.843  1.00  0.00    -0.325 C  
HETATM    6  O   UNL     1     -12.261  12.531  67.772  1.00  0.00    -0.372 OA 
BRANCH   5   7
HETATM    7  C   UNL     1     -11.704  13.880  69.659  1.00  0.00    -0.370 A  
HETATM    8  C   UNL     1     -11.097  16.193  70.064  1.00  0.00    -0.363 A  
HETATM    9  C   UNL     1     -11.074  15.060  69.242  1.00  0.00    -0.280 A  
HETATM   10  C   UNL     1     -11.753  16.155  71.295  1.00  0.00    -0.480 A  
HETATM   11  C   UNL     1     -12.386  14.985  71.714  1.00  0.00    -0.412 A  
HETATM   12  C   UNL     1     -12.358  13.850  70.900  1.00  0.00    -0.451 A  
ENDBRANCH   5   7
ENDBRANCH   4   5
ENDBRANCH   3   4
ENDBRANCH   2   3
BRANCH   2  13
HETATM   13  C   UNL     1     -10.861   9.148  71.200  1.00  0.00    -0.381 A  
HETATM   14  C   UNL     1      -8.748   7.960  71.057  1.00  0.00    -0.138 A  
HETATM   15  C   UNL     1     -11.097   8.536  72.441  1.00  0.00    -0.397 A  
HETATM   16  C   UNL     1      -9.676   8.854  70.510  1.00  0.00    -0.244 A  
HETATM   17  C   UNL     1     -10.167   7.646  72.985  1.00  0.00    -0.379 A  
HETATM   18  C   UNL     1      -8.993   7.359  72.292  1.00  0.00    -0.154 A  
ENDBRANCH   2  13
TORSDOF 5
ENDMDL
MODEL      147
REMARK 921   NORMALIZED FREE ENERGY PREDICTED BY IDOCK:   -3.33 KCAL/MOL
REMARK 922        TOTAL FREE ENERGY PREDICTED BY IDOCK:   -6.31 KCAL/MOL
REMARK 923 INTER-LIGAND FREE ENERGY PREDICTED BY IDOCK:   -4.68 KCAL/MOL
REMARK 924 INTRA-LIGAND FREE ENERGY PREDICTED BY IDOCK:   -1.64 KCAL/MOL
REMARK 927      BINDING AFFINITY PREDICTED BY RF-SCORE:    0.00 PKD
ROOT
HETATM    1  O   UNL     1     -11.686  16.463  68.580  1.00  0.00    -0.239 OA 
HETATM    2  C   UNL     1     -10.903  15.717  68.008  1.00  0.00    -0.309 C  
ENDROOT
BRANCH   2   3
HETATM    3  O   UNL     1      -9.620  15.466  68.383  1.00  0.00    -0.194 OA 
BRANCH   3   4
HETATM    4  O   UNL     1      -9.573  14.062  68.812  1.00  0.00    -0.190 OA 
BRANCH   4   5
HETATM    5  C   UNL     1      -8.582  13.465  68.096  1.00  0.00    -0.174 C  
HETATM    6  O   UNL     1      -7.449  13.888  67.928  1.00  0.00    -0.118 OA 
BRANCH   5   7
HETATM    7  C   UNL     1      -9.086  12.217  67.461  1.00  0.00    -0.180 A  
HETATM    8  C   UNL     1      -9.286  10.691  65.587  1.00  0.00    -0.239 A  
HETATM    9  C   UNL     1      -8.759  11.861  66.146  1.00  0.00    -0.009 A  
HETATM   10  C   UNL     1     -10.132   9.872  66.337  1.00  0.00    -0.308 A  
HETATM   11  C   UNL     1     -10.457  10.218  67.648  1.00  0.00    -0.285 A  
HETATM   12  C   UNL     1      -9.939  11.390  68.207  1.00  0.00    -0.203 A  
ENDBRANCH   5   7
ENDBRANCH   4   5
ENDBRANCH   3   4
ENDBRANCH   2   3
BRANCH   2  13
HETATM   13  C   UNL     1     -11.274  14.930  66.796  1.00  0.00    -0.338 A  
HETATM   14  C   UNL     1     -12.523  13.195  65.646  1.00  0.00    -0.485 A  
HETATM   15  C   UNL     1     -10.618  15.227  65.591  1.00  0.00    -0.377 A  
HETATM   16  C   UNL     1     -12.231  13.906  66.815  1.00  0.00    -0.438 A  
HETATM   17  C   UNL     1     -10.913  14.516  64.425  1.00  0.00    -0.133 A  
HETATM   18  C   UNL     1     -11.866  13.500  64.454  1.00  0.00    -0.455 A  
ENDBRANCH   2  13
TORSDOF 5
ENDMDL
MODEL      148
REMARK 921   NORMALIZED FREE ENERGY PREDICTED BY IDOCK:   -3.33 KCAL/MOL
REMARK 922        TOTAL FREE ENERGY PREDICTED BY IDOCK:   -6.30 KCAL/MOL
REMARK 923 INTER-LIGAND FREE ENERGY PREDICTED BY IDOCK:   -5.79 KCAL/MOL
REMARK 924 INTRA-LIGAND FREE ENERGY PREDICTED BY IDOCK:   -0.51 KCAL/MOL
REMARK 927      BINDING AFFINITY PREDICTED BY RF-SCORE:    0.00 PKD
ROOT
HETATM    1  O   UNL     1      -8.331  15.164  67.800  1.00  0.00    -0.140 OA 
HETATM    2  C   UNL     1      -8.807  16.204  68.233  1.00  0.00    -0.188 C  
ENDROOT
BRANCH   2   3
HETATM    3  O   UNL     1      -9.727  16.308  69.230  1.00  0.00    -0.251 OA 
BRANCH   3   4
HETATM    4  O   UNL     1     -11.039  16.443  68.581  1.00  0.00    -0.338 OA 
BRANCH   4   5
HETATM    5  C   UNL     1     -11.841  15.480  69.112  1.00  0.00    -0.354 C  
HETATM    6  O   UNL     1     -12.534  15.580  70.112  1.00  0.00    -0.387 OA 
BRANCH   5   7
HETATM    7  C   UNL     1     -11.714  14.218  68.334  1.00  0.00    -0.373 A  
HETATM    8  C   UNL     1     -11.803  12.949  66.269  1.00  0.00    -0.477 A  
HETATM    9  C   UNL     1     -11.903  14.170  66.947  1.00  0.00    -0.458 A  
HETATM   10  C   UNL     1     -11.508  11.779  66.969  1.00  0.00    -0.368 A  
HETATM   11  C   UNL     1     -11.314  11.820  68.350  1.00  0.00    -0.328 A  
HETATM   12  C   UNL     1     -11.421  13.035  69.031  1.00  0.00    -0.353 A  
ENDBRANCH   5   7
ENDBRANCH   4   5
ENDBRANCH   3   4
ENDBRANCH   2   3
BRANCH   2  13
HETATM   13  C   UNL     1      -8.405  17.550  67.730  1.00  0.00    -0.220 A  
HETATM   14  C   UNL     1      -8.212  19.962  67.930  1.00  0.00    -0.318 A  
HETATM   15  C   UNL     1      -7.820  17.630  66.456  1.00  0.00    -0.307 A  
HETATM   16  C   UNL     1      -8.598  18.728  68.465  1.00  0.00    -0.378 A  
HETATM   17  C   UNL     1      -7.434  18.864  65.925  1.00  0.00    -0.242 A  
HETATM   18  C   UNL     1      -7.631  20.029  66.663  1.00  0.00    -0.314 A  
ENDBRANCH   2  13
TORSDOF 5
ENDMDL
MODEL      149
REMARK 921   NORMALIZED FREE ENERGY PREDICTED BY IDOCK:   -3.32 KCAL/MOL
REMARK 922        TOTAL FREE ENERGY PREDICTED BY IDOCK:   -6.29 KCAL/MOL
REMARK 923 INTER-LIGAND FREE ENERGY PREDICTED BY IDOCK:   -5.44 KCAL/MOL
REMARK 924 INTRA-LIGAND FREE ENERGY PREDICTED BY IDOCK:   -0.85 KCAL/MOL
REMARK 927      BINDING AFFINITY PREDICTED BY RF-SCORE:    0.00 PKD
ROOT
HETATM    1  O   UNL     1     -12.177  15.357  69.891  1.00  0.00    -0.342 OA 
HETATM    2  C   UNL     1     -11.662  15.636  68.817  1.00  0.00    -0.370 C  
ENDROOT
BRANCH   2   3
HETATM    3  O   UNL     1     -11.454  16.890  68.332  1.00  0.00    -0.136 OA 
BRANCH   3   4
HETATM    4  O   UNL     1     -10.438  17.512  69.191  1.00  0.00    -0.347 OA 
BRANCH   4   5
HETATM    5  C   UNL     1      -9.907  18.547  68.486  1.00  0.00    -0.381 C  
HETATM    6  O   UNL     1     -10.390  19.661  68.352  1.00  0.00    -0.431 OA 
BRANCH   5   7
HETATM    7  C   UNL     1      -8.649  18.121  67.814  1.00  0.00    -0.258 A  
HETATM    8  C   UNL     1      -7.065  18.190  65.979  1.00  0.00    -0.318 A  
HETATM    9  C   UNL     1      -8.241  18.650  66.583  1.00  0.00    -0.289 A  
HETATM   10  C   UNL     1      -6.292  17.210  66.603  1.00  0.00    -0.254 A  
HETATM   11  C   UNL     1      -6.690  16.682  67.831  1.00  0.00    -0.155 A  
HETATM   12  C   UNL     1      -7.867  17.133  68.433  1.00  0.00    -0.244 A  
ENDBRANCH   5   7
ENDBRANCH   4   5
ENDBRANCH   3   4
ENDBRANCH   2   3
BRANCH   2  13
HETATM   13  C   UNL     1     -11.144  14.602  67.874  1.00  0.00    -0.301 A  
HETATM   14  C   UNL     1      -9.358  13.436  66.715  1.00  0.00    -0.260 A  
HETATM   15  C   UNL     1     -12.077  13.794  67.204  1.00  0.00    -0.416 A  
HETATM   16  C   UNL     1      -9.778  14.414  67.623  1.00  0.00    -0.219 A  
HETATM   17  C   UNL     1     -11.654  12.817  66.300  1.00  0.00    -0.433 A  
HETATM   18  C   UNL     1     -10.294  12.639  66.056  1.00  0.00    -0.287 A  
ENDBRANCH   2  13
TORSDOF 5
ENDMDL
MODEL      150
REMARK 921   NORMALIZED FREE ENERGY PREDICTED BY IDOCK:   -3.32 KCAL/MOL
REMARK 922        TOTAL FREE ENERGY PREDICTED BY IDOCK:   -6.29 KCAL/MOL
REMARK 923 INTER-LIGAND FREE ENERGY PREDICTED BY IDOCK:   -4.89 KCAL/MOL
REMARK 924 INTRA-LIGAND FREE ENERGY PREDICTED BY IDOCK:   -1.39 KCAL/MOL
REMARK 927      BINDING AFFINITY PREDICTED BY RF-SCORE:    0.00 PKD
ROOT
HETATM    1  O   UNL     1     -12.557  15.682  70.140  1.00  0.00    -0.367 OA 
HETATM    2  C   UNL     1     -11.942  15.574  69.089  1.00  0.00    -0.309 C  
ENDROOT
BRANCH   2   3
HETATM    3  O   UNL     1     -11.310  16.578  68.425  1.00  0.00    -0.348 OA 
BRANCH   3   4
HETATM    4  O   UNL     1     -10.071  16.858  69.164  1.00  0.00    -0.278 OA 
BRANCH   4   5
HETATM    5  C   UNL     1      -9.060  16.850  68.253  1.00  0.00    -0.235 C  
HETATM    6  O   UNL     1      -8.830  17.705  67.413  1.00  0.00    -0.231 OA 
BRANCH   5   7
HETATM    7  C   UNL     1      -8.276  15.590  68.365  1.00  0.00    -0.145 A  
HETATM    8  C   UNL     1      -6.824  14.063  69.565  1.00  0.00    -0.052 A  
HETATM    9  C   UNL     1      -7.572  15.246  69.525  1.00  0.00    -0.219 A  
HETATM   10  C   UNL     1      -6.784  13.219  68.454  1.00  0.00    -0.096 A  
HETATM   11  C   UNL     1      -7.488  13.553  67.297  1.00  0.00    -0.056 A  
HETATM   12  C   UNL     1      -8.228  14.737  67.251  1.00  0.00    -0.237 A  
ENDBRANCH   5   7
ENDBRANCH   4   5
ENDBRANCH   3   4
ENDBRANCH   2   3
BRANCH   2  13
HETATM   13  C   UNL     1     -11.770  14.270  68.383  1.00  0.00    -0.373 A  
HETATM   14  C   UNL     1     -11.414  11.869  68.337  1.00  0.00    -0.357 A  
HETATM   15  C   UNL     1     -11.782  14.274  66.979  1.00  0.00    -0.427 A  
HETATM   16  C   UNL     1     -11.585  13.056  69.059  1.00  0.00    -0.367 A  
HETATM   17  C   UNL     1     -11.614  13.087  66.262  1.00  0.00    -0.408 A  
HETATM   18  C   UNL     1     -11.429  11.885  66.942  1.00  0.00    -0.390 A  
ENDBRANCH   2  13
TORSDOF 5
ENDMDL
MODEL      151
REMARK 921   NORMALIZED FREE ENERGY PREDICTED BY IDOCK:   -3.31 KCAL/MOL
REMARK 922        TOTAL FREE ENERGY PREDICTED BY IDOCK:   -6.28 KCAL/MOL
REMARK 923 INTER-LIGAND FREE ENERGY PREDICTED BY IDOCK:   -5.97 KCAL/MOL
REMARK 924 INTRA-LIGAND FREE ENERGY PREDICTED BY IDOCK:   -0.31 KCAL/MOL
REMARK 927      BINDING AFFINITY PREDICTED BY RF-SCORE:    0.00 PKD
ROOT
HETATM    1  O   UNL     1     -10.738   7.417  67.197  1.00  0.00    -0.323 OA 
HETATM    2  C   UNL     1     -10.407   8.195  68.080  1.00  0.00    -0.201 C  
ENDROOT
BRANCH   2   3
HETATM    3  O   UNL     1      -9.819   9.408  67.898  1.00  0.00    -0.154 OA 
BRANCH   3   4
HETATM    4  O   UNL     1     -10.903  10.372  67.666  1.00  0.00    -0.264 OA 
BRANCH   4   5
HETATM    5  C   UNL     1     -10.316  11.544  67.301  1.00  0.00    -0.206 C  
HETATM    6  O   UNL     1      -9.494  12.178  67.944  1.00  0.00    -0.182 OA 
BRANCH   5   7
HETATM    7  C   UNL     1     -10.870  12.015  66.002  1.00  0.00    -0.329 A  
HETATM    8  C   UNL     1     -10.803  12.216  63.587  1.00  0.00    -0.523 A  
HETATM    9  C   UNL     1     -10.258  11.721  64.777  1.00  0.00    -0.324 A  
HETATM   10  C   UNL     1     -11.961  12.996  63.615  1.00  0.00    -0.608 A  
HETATM   11  C   UNL     1     -12.578  13.288  64.831  1.00  0.00    -0.444 A  
HETATM   12  C   UNL     1     -12.032  12.802  66.022  1.00  0.00    -0.491 A  
ENDBRANCH   5   7
ENDBRANCH   4   5
ENDBRANCH   3   4
ENDBRANCH   2   3
BRANCH   2  13
HETATM   13  C   UNL     1     -10.640   7.923  69.529  1.00  0.00    -0.220 A  
HETATM   14  C   UNL     1     -11.578   6.636  71.361  1.00  0.00    -0.362 A  
HETATM   15  C   UNL     1     -10.097   8.818  70.464  1.00  0.00    -0.233 A  
HETATM   16  C   UNL     1     -11.383   6.827  69.988  1.00  0.00    -0.396 A  
HETATM   17  C   UNL     1     -10.292   8.623  71.834  1.00  0.00    -0.405 A  
HETATM   18  C   UNL     1     -11.033   7.531  72.281  1.00  0.00    -0.307 A  
ENDBRANCH   2  13
TORSDOF 5
ENDMDL
MODEL      152
REMARK 921   NORMALIZED FREE ENERGY PREDICTED BY IDOCK:   -3.30 KCAL/MOL
REMARK 922        TOTAL FREE ENERGY PREDICTED BY IDOCK:   -6.27 KCAL/MOL
REMARK 923 INTER-LIGAND FREE ENERGY PREDICTED BY IDOCK:   -5.91 KCAL/MOL
REMARK 924 INTRA-LIGAND FREE ENERGY PREDICTED BY IDOCK:   -0.36 KCAL/MOL
REMARK 927      BINDING AFFINITY PREDICTED BY RF-SCORE:    0.00 PKD
ROOT
HETATM    1  O   UNL     1     -12.191  11.591  68.267  1.00  0.00    -0.561 OA 
HETATM    2  C   UNL     1     -11.332  11.348  67.431  1.00  0.00    -0.288 C  
ENDROOT
BRANCH   2   3
HETATM    3  O   UNL     1     -10.221  10.587  67.624  1.00  0.00    -0.181 OA 
BRANCH   3   4
HETATM    4  O   UNL     1     -10.663   9.357  68.296  1.00  0.00    -0.220 OA 
BRANCH   4   5
HETATM    5  C   UNL     1      -9.960   9.268  69.457  1.00  0.00    -0.187 C  
HETATM    6  O   UNL     1      -9.146  10.075  69.879  1.00  0.00    -0.213 OA 
BRANCH   5   7
HETATM    7  C   UNL     1     -10.262   7.983  70.145  1.00  0.00    -0.203 A  
HETATM    8  C   UNL     1     -10.825   5.624  70.139  1.00  0.00    -0.356 A  
HETATM    9  C   UNL     1     -10.513   6.798  69.442  1.00  0.00    -0.244 A  
HETATM   10  C   UNL     1     -10.878   5.629  71.533  1.00  0.00    -0.297 A  
HETATM   11  C   UNL     1     -10.624   6.804  72.240  1.00  0.00    -0.241 A  
HETATM   12  C   UNL     1     -10.322   7.980  71.547  1.00  0.00    -0.258 A  
ENDBRANCH   5   7
ENDBRANCH   4   5
ENDBRANCH   3   4
ENDBRANCH   2   3
BRANCH   2  13
HETATM   13  C   UNL     1     -11.404  11.847  66.027  1.00  0.00    -0.375 A  
HETATM   14  C   UNL     1     -12.267  13.318  64.299  1.00  0.00    -0.454 A  
HETATM   15  C   UNL     1     -10.612  11.210  65.059  1.00  0.00    -0.340 A  
HETATM   16  C   UNL     1     -12.234  12.907  65.636  1.00  0.00    -0.519 A  
HETATM   17  C   UNL     1     -10.646  11.624  63.725  1.00  0.00    -0.473 A  
HETATM   18  C   UNL     1     -11.475  12.678  63.346  1.00  0.00    -0.499 A  
ENDBRANCH   2  13
TORSDOF 5
ENDMDL
MODEL      153
REMARK 921   NORMALIZED FREE ENERGY PREDICTED BY IDOCK:   -3.27 KCAL/MOL
REMARK 922        TOTAL FREE ENERGY PREDICTED BY IDOCK:   -6.23 KCAL/MOL
REMARK 923 INTER-LIGAND FREE ENERGY PREDICTED BY IDOCK:   -5.77 KCAL/MOL
REMARK 924 INTRA-LIGAND FREE ENERGY PREDICTED BY IDOCK:   -0.45 KCAL/MOL
REMARK 927      BINDING AFFINITY PREDICTED BY RF-SCORE:    0.00 PKD
ROOT
HETATM    1  O   UNL     1     -13.906   9.562  72.029  1.00  0.00    -0.363 OA 
HETATM    2  C   UNL     1     -12.830  10.080  71.762  1.00  0.00    -0.446 C  
ENDROOT
BRANCH   2   3
HETATM    3  O   UNL     1     -11.615   9.474  71.823  1.00  0.00    -0.385 OA 
BRANCH   3   4
HETATM    4  O   UNL     1     -11.703   8.458  72.881  1.00  0.00    -0.300 OA 
BRANCH   4   5
HETATM    5  C   UNL     1     -11.107   7.334  72.398  1.00  0.00    -0.275 C  
HETATM    6  O   UNL     1     -11.666   6.308  72.044  1.00  0.00    -0.308 OA 
BRANCH   5   7
HETATM    7  C   UNL     1      -9.626   7.487  72.418  1.00  0.00    -0.205 A  
HETATM    8  C   UNL     1      -7.533   7.976  73.540  1.00  0.00    -0.191 A  
HETATM    9  C   UNL     1      -8.922   7.813  73.584  1.00  0.00    -0.335 A  
HETATM   10  C   UNL     1      -6.843   7.807  72.338  1.00  0.00    -0.067 A  
HETATM   11  C   UNL     1      -7.538   7.478  71.174  1.00  0.00    -0.081 A  
HETATM   12  C   UNL     1      -8.926   7.322  71.213  1.00  0.00    -0.139 A  
ENDBRANCH   5   7
ENDBRANCH   4   5
ENDBRANCH   3   4
ENDBRANCH   2   3
BRANCH   2  13
HETATM   13  C   UNL     1     -12.706  11.489  71.286  1.00  0.00    -0.469 A  
HETATM   14  C   UNL     1     -11.865  13.192  69.773  1.00  0.00    -0.386 A  
HETATM   15  C   UNL     1     -13.365  12.492  72.015  1.00  0.00    -0.528 A  
HETATM   16  C   UNL     1     -11.954  11.849  70.159  1.00  0.00    -0.413 A  
HETATM   17  C   UNL     1     -13.276  13.831  71.626  1.00  0.00    -0.450 A  
HETATM   18  C   UNL     1     -12.525  14.179  70.505  1.00  0.00    -0.431 A  
ENDBRANCH   2  13
TORSDOF 5
ENDMDL
MODEL      154
REMARK 921   NORMALIZED FREE ENERGY PREDICTED BY IDOCK:   -3.26 KCAL/MOL
REMARK 922        TOTAL FREE ENERGY PREDICTED BY IDOCK:   -6.22 KCAL/MOL
REMARK 923 INTER-LIGAND FREE ENERGY PREDICTED BY IDOCK:   -5.59 KCAL/MOL
REMARK 924 INTRA-LIGAND FREE ENERGY PREDICTED BY IDOCK:   -0.62 KCAL/MOL
REMARK 927      BINDING AFFINITY PREDICTED BY RF-SCORE:    0.00 PKD
ROOT
HETATM    1  O   UNL     1     -11.767  15.794  68.340  1.00  0.00    -0.366 OA 
HETATM    2  C   UNL     1     -11.121  14.947  67.737  1.00  0.00    -0.309 C  
ENDROOT
BRANCH   2   3
HETATM    3  O   UNL     1      -9.939  14.408  68.138  1.00  0.00    -0.213 OA 
BRANCH   3   4
HETATM    4  O   UNL     1      -8.880  15.138  67.428  1.00  0.00    -0.171 OA 
BRANCH   4   5
HETATM    5  C   UNL     1      -8.308  15.979  68.332  1.00  0.00    -0.178 C  
HETATM    6  O   UNL     1      -7.949  15.696  69.464  1.00  0.00    -0.230 OA 
BRANCH   5   7
HETATM    7  C   UNL     1      -8.232  17.358  67.777  1.00  0.00    -0.216 A  
HETATM    8  C   UNL     1      -9.054  19.627  67.543  1.00  0.00    -0.396 A  
HETATM    9  C   UNL     1      -9.153  18.355  68.120  1.00  0.00    -0.325 A  
HETATM   10  C   UNL     1      -8.035  19.908  66.632  1.00  0.00    -0.342 A  
HETATM   11  C   UNL     1      -7.111  18.921  66.290  1.00  0.00    -0.268 A  
HETATM   12  C   UNL     1      -7.212  17.648  66.858  1.00  0.00    -0.233 A  
ENDBRANCH   5   7
ENDBRANCH   4   5
ENDBRANCH   3   4
ENDBRANCH   2   3
BRANCH   2  13
HETATM   13  C   UNL     1     -11.576  14.348  66.448  1.00  0.00    -0.383 A  
HETATM   14  C   UNL     1     -12.324  12.492  65.074  1.00  0.00    -0.522 A  
HETATM   15  C   UNL     1     -11.649  15.184  65.322  1.00  0.00    -0.206 A  
HETATM   16  C   UNL     1     -11.919  12.996  66.315  1.00  0.00    -0.477 A  
HETATM   17  C   UNL     1     -12.057  14.678  64.085  1.00  0.00    -0.346 A  
HETATM   18  C   UNL     1     -12.394  13.332  63.962  1.00  0.00    -0.415 A  
ENDBRANCH   2  13
TORSDOF 5
ENDMDL
MODEL      155
REMARK 921   NORMALIZED FREE ENERGY PREDICTED BY IDOCK:   -3.26 KCAL/MOL
REMARK 922        TOTAL FREE ENERGY PREDICTED BY IDOCK:   -6.21 KCAL/MOL
REMARK 923 INTER-LIGAND FREE ENERGY PREDICTED BY IDOCK:   -4.81 KCAL/MOL
REMARK 924 INTRA-LIGAND FREE ENERGY PREDICTED BY IDOCK:   -1.41 KCAL/MOL
REMARK 927      BINDING AFFINITY PREDICTED BY RF-SCORE:    0.00 PKD
ROOT
HETATM    1  O   UNL     1      -7.341  12.243  68.933  1.00  0.00    -0.104 OA 
HETATM    2  C   UNL     1      -8.277  12.438  68.170  1.00  0.00    -0.173 C  
ENDROOT
BRANCH   2   3
HETATM    3  O   UNL     1      -8.903  13.627  67.960  1.00  0.00    -0.171 OA 
BRANCH   3   4
HETATM    4  O   UNL     1     -10.295  13.455  68.398  1.00  0.00    -0.242 OA 
BRANCH   4   5
HETATM    5  C   UNL     1     -11.006  14.483  67.861  1.00  0.00    -0.269 C  
HETATM    6  O   UNL     1     -11.341  15.511  68.428  1.00  0.00    -0.320 OA 
BRANCH   5   7
HETATM    7  C   UNL     1     -11.402  14.160  66.463  1.00  0.00    -0.348 A  
HETATM    8  C   UNL     1     -11.670  14.730  64.121  1.00  0.00    -0.165 A  
HETATM    9  C   UNL     1     -11.252  15.074  65.413  1.00  0.00    -0.356 A  
HETATM   10  C   UNL     1     -12.230  13.476  63.875  1.00  0.00    -0.458 A  
HETATM   11  C   UNL     1     -12.377  12.559  64.916  1.00  0.00    -0.539 A  
HETATM   12  C   UNL     1     -11.969  12.902  66.207  1.00  0.00    -0.472 A  
ENDBRANCH   5   7
ENDBRANCH   4   5
ENDBRANCH   3   4
ENDBRANCH   2   3
BRANCH   2  13
HETATM   13  C   UNL     1      -8.860  11.365  67.313  1.00  0.00    -0.153 A  
HETATM   14  C   UNL     1     -10.005   9.250  66.978  1.00  0.00    -0.286 A  
HETATM   15  C   UNL     1      -8.755  11.504  65.919  1.00  0.00    -0.058 A  
HETATM   16  C   UNL     1      -9.491  10.229  67.837  1.00  0.00    -0.154 A  
HETATM   17  C   UNL     1      -9.271  10.526  65.065  1.00  0.00    -0.245 A  
HETATM   18  C   UNL     1      -9.895   9.399  65.596  1.00  0.00    -0.294 A  
ENDBRANCH   2  13
TORSDOF 5
ENDMDL
MODEL      156
REMARK 921   NORMALIZED FREE ENERGY PREDICTED BY IDOCK:   -3.24 KCAL/MOL
REMARK 922        TOTAL FREE ENERGY PREDICTED BY IDOCK:   -6.19 KCAL/MOL
REMARK 923 INTER-LIGAND FREE ENERGY PREDICTED BY IDOCK:   -5.82 KCAL/MOL
REMARK 924 INTRA-LIGAND FREE ENERGY PREDICTED BY IDOCK:   -0.37 KCAL/MOL
REMARK 927      BINDING AFFINITY PREDICTED BY RF-SCORE:    0.00 PKD
ROOT
HETATM    1  O   UNL     1     -10.358   9.443  67.790  1.00  0.00    -0.208 OA 
HETATM    2  C   UNL     1     -11.057  10.273  68.356  1.00  0.00    -0.247 C  
ENDROOT
BRANCH   2   3
HETATM    3  O   UNL     1     -11.620  10.138  69.587  1.00  0.00    -0.224 OA 
BRANCH   3   4
HETATM    4  O   UNL     1     -11.383   8.751  70.010  1.00  0.00    -0.173 OA 
BRANCH   4   5
HETATM    5  C   UNL     1     -11.828   8.650  71.291  1.00  0.00    -0.295 C  
HETATM    6  O   UNL     1     -12.955   8.898  71.692  1.00  0.00    -0.326 OA 
BRANCH   5   7
HETATM    7  C   UNL     1     -10.715   8.249  72.194  1.00  0.00    -0.389 A  
HETATM    8  C   UNL     1      -8.404   8.339  72.924  1.00  0.00    -0.245 A  
HETATM    9  C   UNL     1      -9.423   8.774  72.068  1.00  0.00    -0.336 A  
HETATM   10  C   UNL     1      -8.673   7.387  73.909  1.00  0.00    -0.258 A  
HETATM   11  C   UNL     1      -9.959   6.864  74.044  1.00  0.00    -0.371 A  
HETATM   12  C   UNL     1     -10.976   7.291  73.186  1.00  0.00    -0.384 A  
ENDBRANCH   5   7
ENDBRANCH   4   5
ENDBRANCH   3   4
ENDBRANCH   2   3
BRANCH   2  13
HETATM   13  C   UNL     1     -11.372  11.605  67.762  1.00  0.00    -0.356 A  
HETATM   14  C   UNL     1     -11.674  13.118  65.888  1.00  0.00    -0.427 A  
HETATM   15  C   UNL     1     -11.655  12.666  68.637  1.00  0.00    -0.356 A  
HETATM   16  C   UNL     1     -11.385  11.840  66.381  1.00  0.00    -0.361 A  
HETATM   17  C   UNL     1     -11.945  13.940  68.142  1.00  0.00    -0.385 A  
HETATM   18  C   UNL     1     -11.954  14.165  66.767  1.00  0.00    -0.475 A  
ENDBRANCH   2  13
TORSDOF 5
ENDMDL
MODEL      157
REMARK 921   NORMALIZED FREE ENERGY PREDICTED BY IDOCK:   -3.22 KCAL/MOL
REMARK 922        TOTAL FREE ENERGY PREDICTED BY IDOCK:   -6.16 KCAL/MOL
REMARK 923 INTER-LIGAND FREE ENERGY PREDICTED BY IDOCK:   -4.99 KCAL/MOL
REMARK 924 INTRA-LIGAND FREE ENERGY PREDICTED BY IDOCK:   -1.17 KCAL/MOL
REMARK 927      BINDING AFFINITY PREDICTED BY RF-SCORE:    0.00 PKD
ROOT
HETATM    1  O   UNL     1     -12.357  11.305  69.991  1.00  0.00    -0.292 OA 
HETATM    2  C   UNL     1     -11.617  11.450  69.027  1.00  0.00    -0.317 C  
ENDROOT
BRANCH   2   3
HETATM    3  O   UNL     1     -11.724  12.417  68.077  1.00  0.00    -0.329 OA 
BRANCH   3   4
HETATM    4  O   UNL     1     -12.105  11.743  66.828  1.00  0.00    -0.547 OA 
BRANCH   4   5
HETATM    5  C   UNL     1     -11.713  12.553  65.808  1.00  0.00    -0.426 C  
HETATM    6  O   UNL     1     -12.066  13.706  65.617  1.00  0.00    -0.374 OA 
BRANCH   5   7
HETATM    7  C   UNL     1     -10.820  11.812  64.876  1.00  0.00    -0.353 A  
HETATM    8  C   UNL     1      -9.310   9.992  64.341  1.00  0.00    -0.348 A  
HETATM    9  C   UNL     1     -10.165  10.631  65.247  1.00  0.00    -0.351 A  
HETATM   10  C   UNL     1      -9.113  10.523  63.066  1.00  0.00    -0.281 A  
HETATM   11  C   UNL     1      -9.766  11.696  62.688  1.00  0.00     0.105 A  
HETATM   12  C   UNL     1     -10.613  12.342  63.593  1.00  0.00    -0.501 A  
ENDBRANCH   5   7
ENDBRANCH   4   5
ENDBRANCH   3   4
ENDBRANCH   2   3
BRANCH   2  13
HETATM   13  C   UNL     1     -10.438  10.573  68.771  1.00  0.00    -0.216 A  
HETATM   14  C   UNL     1      -9.387   8.410  68.435  1.00  0.00    -0.137 A  
HETATM   15  C   UNL     1      -9.178  11.180  68.651  1.00  0.00    -0.173 A  
HETATM   16  C   UNL     1     -10.535   9.178  68.660  1.00  0.00    -0.235 A  
HETATM   17  C   UNL     1      -8.035  10.410  68.424  1.00  0.00    -0.110 A  
HETATM   18  C   UNL     1      -8.141   9.024  68.316  1.00  0.00    -0.109 A  
ENDBRANCH   2  13
TORSDOF 5
ENDMDL
MODEL      158
REMARK 921   NORMALIZED FREE ENERGY PREDICTED BY IDOCK:   -3.22 KCAL/MOL
REMARK 922        TOTAL FREE ENERGY PREDICTED BY IDOCK:   -6.16 KCAL/MOL
REMARK 923 INTER-LIGAND FREE ENERGY PREDICTED BY IDOCK:   -5.74 KCAL/MOL
REMARK 924 INTRA-LIGAND FREE ENERGY PREDICTED BY IDOCK:   -0.42 KCAL/MOL
REMARK 927      BINDING AFFINITY PREDICTED BY RF-SCORE:    0.00 PKD
ROOT
HETATM    1  O   UNL     1     -10.201   7.800  66.838  1.00  0.00    -0.260 OA 
HETATM    2  C   UNL     1      -9.946   8.984  66.665  1.00  0.00    -0.278 C  
ENDROOT
BRANCH   2   3
HETATM    3  O   UNL     1      -9.857   9.932  67.636  1.00  0.00    -0.154 OA 
BRANCH   3   4
HETATM    4  O   UNL     1     -11.191  10.042  68.242  1.00  0.00    -0.229 OA 
BRANCH   4   5
HETATM    5  C   UNL     1     -11.457  11.370  68.370  1.00  0.00    -0.299 C  
HETATM    6  O   UNL     1     -11.197  12.245  67.559  1.00  0.00    -0.261 OA 
BRANCH   5   7
HETATM    7  C   UNL     1     -12.067  11.648  69.699  1.00  0.00    -0.345 A  
HETATM    8  C   UNL     1     -13.163  10.951  71.747  1.00  0.00    -0.513 A  
HETATM    9  C   UNL     1     -12.570  10.631  70.519  1.00  0.00    -0.433 A  
HETATM   10  C   UNL     1     -13.247  12.282  72.160  1.00  0.00    -0.466 A  
HETATM   11  C   UNL     1     -12.742  13.299  71.350  1.00  0.00    -0.401 A  
HETATM   12  C   UNL     1     -12.158  12.984  70.121  1.00  0.00    -0.377 A  
ENDBRANCH   5   7
ENDBRANCH   4   5
ENDBRANCH   3   4
ENDBRANCH   2   3
BRANCH   2  13
HETATM   13  C   UNL     1      -9.655   9.561  65.320  1.00  0.00    -0.314 A  
HETATM   14  C   UNL     1     -10.091  11.091  63.487  1.00  0.00    -0.428 A  
HETATM   15  C   UNL     1      -8.588   9.019  64.587  1.00  0.00    -0.190 A  
HETATM   16  C   UNL     1     -10.406  10.604  64.760  1.00  0.00    -0.353 A  
HETATM   17  C   UNL     1      -8.274   9.510  63.317  1.00  0.00    -0.162 A  
HETATM   18  C   UNL     1      -9.027  10.546  62.767  1.00  0.00    -0.278 A  
ENDBRANCH   2  13
TORSDOF 5
ENDMDL
MODEL      159
REMARK 921   NORMALIZED FREE ENERGY PREDICTED BY IDOCK:   -3.21 KCAL/MOL
REMARK 922        TOTAL FREE ENERGY PREDICTED BY IDOCK:   -6.16 KCAL/MOL
REMARK 923 INTER-LIGAND FREE ENERGY PREDICTED BY IDOCK:   -6.03 KCAL/MOL
REMARK 924 INTRA-LIGAND FREE ENERGY PREDICTED BY IDOCK:   -0.13 KCAL/MOL
REMARK 927      BINDING AFFINITY PREDICTED BY RF-SCORE:    0.00 PKD
ROOT
HETATM    1  O   UNL     1     -13.141  14.128  65.299  1.00  0.00    -0.763 OA 
HETATM    2  C   UNL     1     -12.019  13.975  65.762  1.00  0.00    -0.404 C  
ENDROOT
BRANCH   2   3
HETATM    3  O   UNL     1     -11.151  14.966  66.101  1.00  0.00    -0.331 OA 
BRANCH   3   4
HETATM    4  O   UNL     1     -10.601  14.613  67.416  1.00  0.00    -0.260 OA 
BRANCH   4   5
HETATM    5  C   UNL     1     -10.920  15.630  68.262  1.00  0.00    -0.315 C  
HETATM    6  O   UNL     1     -12.027  15.885  68.708  1.00  0.00    -0.368 OA 
BRANCH   5   7
HETATM    7  C   UNL     1      -9.721  16.470  68.534  1.00  0.00    -0.239 A  
HETATM    8  C   UNL     1      -8.521  18.576  68.494  1.00  0.00    -0.354 A  
HETATM    9  C   UNL     1      -9.686  17.840  68.248  1.00  0.00    -0.320 A  
HETATM   10  C   UNL     1      -7.395  17.951  69.032  1.00  0.00    -0.194 A  
HETATM   11  C   UNL     1      -7.426  16.587  69.325  1.00  0.00    -0.183 A  
HETATM   12  C   UNL     1      -8.584  15.848  69.072  1.00  0.00    -0.239 A  
ENDBRANCH   5   7
ENDBRANCH   4   5
ENDBRANCH   3   4
ENDBRANCH   2   3
BRANCH   2  13
HETATM   13  C   UNL     1     -11.442  12.631  66.057  1.00  0.00    -0.414 A  
HETATM   14  C   UNL     1     -11.123  10.678  67.464  1.00  0.00    -0.367 A  
HETATM   15  C   UNL     1     -10.586  12.057  65.103  1.00  0.00    -0.330 A  
HETATM   16  C   UNL     1     -11.708  11.930  67.241  1.00  0.00    -0.319 A  
HETATM   17  C   UNL     1     -10.005  10.806  65.328  1.00  0.00    -0.342 A  
HETATM   18  C   UNL     1     -10.275  10.118  66.509  1.00  0.00    -0.288 A  
ENDBRANCH   2  13
TORSDOF 5
ENDMDL
MODEL      160
REMARK 921   NORMALIZED FREE ENERGY PREDICTED BY IDOCK:   -3.20 KCAL/MOL
REMARK 922        TOTAL FREE ENERGY PREDICTED BY IDOCK:   -6.13 KCAL/MOL
REMARK 923 INTER-LIGAND FREE ENERGY PREDICTED BY IDOCK:   -5.70 KCAL/MOL
REMARK 924 INTRA-LIGAND FREE ENERGY PREDICTED BY IDOCK:   -0.44 KCAL/MOL
REMARK 927      BINDING AFFINITY PREDICTED BY RF-SCORE:    0.00 PKD
ROOT
HETATM    1  O   UNL     1     -12.343  11.828  67.969  1.00  0.00    -0.391 OA 
HETATM    2  C   UNL     1     -11.295  12.098  67.399  1.00  0.00    -0.326 C  
ENDROOT
BRANCH   2   3
HETATM    3  O   UNL     1     -10.237  11.259  67.231  1.00  0.00    -0.186 OA 
BRANCH   3   4
HETATM    4  O   UNL     1     -10.460  10.115  68.125  1.00  0.00    -0.181 OA 
BRANCH   4   5
HETATM    5  C   UNL     1      -9.593  10.253  69.164  1.00  0.00    -0.218 C  
HETATM    6  O   UNL     1      -8.498  10.792  69.132  1.00  0.00    -0.152 OA 
BRANCH   5   7
HETATM    7  C   UNL     1     -10.131   9.580  70.377  1.00  0.00    -0.329 A  
HETATM    8  C   UNL     1      -9.872   8.257  72.393  1.00  0.00    -0.375 A  
HETATM    9  C   UNL     1      -9.309   8.900  71.284  1.00  0.00    -0.336 A  
HETATM   10  C   UNL     1     -11.251   8.298  72.603  1.00  0.00    -0.410 A  
HETATM   11  C   UNL     1     -12.075   8.977  71.707  1.00  0.00    -0.438 A  
HETATM   12  C   UNL     1     -11.518   9.613  70.595  1.00  0.00    -0.376 A  
ENDBRANCH   5   7
ENDBRANCH   4   5
ENDBRANCH   3   4
ENDBRANCH   2   3
BRANCH   2  13
HETATM   13  C   UNL     1     -11.038  13.423  66.762  1.00  0.00    -0.308 A  
HETATM   14  C   UNL     1     -11.178  14.997  64.919  1.00  0.00    -0.423 A  
HETATM   15  C   UNL     1     -10.325  14.382  67.499  1.00  0.00    -0.251 A  
HETATM   16  C   UNL     1     -11.464  13.740  65.465  1.00  0.00    -0.319 A  
HETATM   17  C   UNL     1     -10.043  15.636  66.952  1.00  0.00    -0.265 A  
HETATM   18  C   UNL     1     -10.470  15.942  65.661  1.00  0.00    -0.411 A  
ENDBRANCH   2  13
TORSDOF 5
ENDMDL
MODEL      161
REMARK 921   NORMALIZED FREE ENERGY PREDICTED BY IDOCK:   -3.18 KCAL/MOL
REMARK 922        TOTAL FREE ENERGY PREDICTED BY IDOCK:   -6.12 KCAL/MOL
REMARK 923 INTER-LIGAND FREE ENERGY PREDICTED BY IDOCK:   -5.63 KCAL/MOL
REMARK 924 INTRA-LIGAND FREE ENERGY PREDICTED BY IDOCK:   -0.49 KCAL/MOL
REMARK 927      BINDING AFFINITY PREDICTED BY RF-SCORE:    0.00 PKD
ROOT
HETATM    1  O   UNL     1     -10.045  15.490  64.746  1.00  0.00    -0.298 OA 
HETATM    2  C   UNL     1      -9.952  14.554  65.528  1.00  0.00    -0.342 C  
ENDROOT
BRANCH   2   3
HETATM    3  O   UNL     1      -9.894  14.648  66.883  1.00  0.00    -0.238 OA 
BRANCH   3   4
HETATM    4  O   UNL     1     -11.184  15.196  67.324  1.00  0.00    -0.329 OA 
BRANCH   4   5
HETATM    5  C   UNL     1     -12.102  14.202  67.186  1.00  0.00    -0.397 C  
HETATM    6  O   UNL     1     -12.910  14.077  66.279  1.00  0.00    -0.331 OA 
BRANCH   5   7
HETATM    7  C   UNL     1     -12.046  13.284  68.356  1.00  0.00    -0.244 A  
HETATM    8  C   UNL     1     -11.779  11.089  69.353  1.00  0.00    -0.394 A  
HETATM    9  C   UNL     1     -11.788  11.914  68.222  1.00  0.00    -0.343 A  
HETATM   10  C   UNL     1     -12.018  11.629  70.618  1.00  0.00    -0.356 A  
HETATM   11  C   UNL     1     -12.271  12.993  70.759  1.00  0.00    -0.359 A  
HETATM   12  C   UNL     1     -12.290  13.818  69.631  1.00  0.00    -0.284 A  
ENDBRANCH   5   7
ENDBRANCH   4   5
ENDBRANCH   3   4
ENDBRANCH   2   3
BRANCH   2  13
HETATM   13  C   UNL     1      -9.920  13.130  65.085  1.00  0.00    -0.170 A  
HETATM   14  C   UNL     1      -9.226  10.814  65.308  1.00  0.00    -0.233 A  
HETATM   15  C   UNL     1     -10.604  12.790  63.907  1.00  0.00    -0.427 A  
HETATM   16  C   UNL     1      -9.230  12.130  65.784  1.00  0.00    -0.019 A  
HETATM   17  C   UNL     1     -10.600  11.474  63.435  1.00  0.00    -0.460 A  
HETATM   18  C   UNL     1      -9.911  10.487  64.136  1.00  0.00    -0.401 A  
ENDBRANCH   2  13
TORSDOF 5
ENDMDL
MODEL      162
REMARK 921   NORMALIZED FREE ENERGY PREDICTED BY IDOCK:   -3.16 KCAL/MOL
REMARK 922        TOTAL FREE ENERGY PREDICTED BY IDOCK:   -6.09 KCAL/MOL
REMARK 923 INTER-LIGAND FREE ENERGY PREDICTED BY IDOCK:   -5.90 KCAL/MOL
REMARK 924 INTRA-LIGAND FREE ENERGY PREDICTED BY IDOCK:   -0.19 KCAL/MOL
REMARK 927      BINDING AFFINITY PREDICTED BY RF-SCORE:    0.00 PKD
ROOT
HETATM    1  O   UNL     1     -11.945  14.423  66.415  1.00  0.00    -0.404 OA 
HETATM    2  C   UNL     1     -11.332  14.692  67.439  1.00  0.00    -0.356 C  
ENDROOT
BRANCH   2   3
HETATM    3  O   UNL     1     -11.348  13.970  68.592  1.00  0.00    -0.244 OA 
BRANCH   3   4
HETATM    4  O   UNL     1     -10.512  12.784  68.360  1.00  0.00    -0.233 OA 
BRANCH   4   5
HETATM    5  C   UNL     1     -11.356  11.721  68.263  1.00  0.00    -0.282 C  
HETATM    6  O   UNL     1     -12.140  11.494  67.356  1.00  0.00    -0.593 OA 
BRANCH   5   7
HETATM    7  C   UNL     1     -11.252  10.869  69.479  1.00  0.00    -0.340 A  
HETATM    8  C   UNL     1     -10.178   9.152  70.812  1.00  0.00    -0.325 A  
HETATM    9  C   UNL     1     -10.210   9.952  69.664  1.00  0.00    -0.261 A  
HETATM   10  C   UNL     1     -11.177   9.271  71.779  1.00  0.00    -0.413 A  
HETATM   11  C   UNL     1     -12.215  10.186  71.604  1.00  0.00    -0.422 A  
HETATM   12  C   UNL     1     -12.255  10.980  70.455  1.00  0.00    -0.461 A  
ENDBRANCH   5   7
ENDBRANCH   4   5
ENDBRANCH   3   4
ENDBRANCH   2   3
BRANCH   2  13
HETATM   13  C   UNL     1     -10.428  15.873  67.556  1.00  0.00    -0.298 A  
HETATM   14  C   UNL     1      -8.245  16.934  67.512  1.00  0.00    -0.191 A  
HETATM   15  C   UNL     1     -11.002  17.114  67.875  1.00  0.00    -0.208 A  
HETATM   16  C   UNL     1      -9.040  15.791  67.374  1.00  0.00    -0.206 A  
HETATM   17  C   UNL     1     -10.205  18.254  68.010  1.00  0.00    -0.402 A  
HETATM   18  C   UNL     1      -8.826  18.162  67.829  1.00  0.00    -0.259 A  
ENDBRANCH   2  13
TORSDOF 5
ENDMDL
MODEL      163
REMARK 921   NORMALIZED FREE ENERGY PREDICTED BY IDOCK:   -3.14 KCAL/MOL
REMARK 922        TOTAL FREE ENERGY PREDICTED BY IDOCK:   -6.06 KCAL/MOL
REMARK 923 INTER-LIGAND FREE ENERGY PREDICTED BY IDOCK:   -5.65 KCAL/MOL
REMARK 924 INTRA-LIGAND FREE ENERGY PREDICTED BY IDOCK:   -0.41 KCAL/MOL
REMARK 927      BINDING AFFINITY PREDICTED BY RF-SCORE:    0.00 PKD
ROOT
HETATM    1  O   UNL     1     -10.501  10.753  66.226  1.00  0.00    -0.250 OA 
HETATM    2  C   UNL     1     -10.292  10.564  65.036  1.00  0.00    -0.240 C  
ENDROOT
BRANCH   2   3
HETATM    3  O   UNL     1     -11.003  11.094  64.005  1.00  0.00    -0.364 OA 
BRANCH   3   4
HETATM    4  O   UNL     1     -10.591  12.499  63.886  1.00  0.00    -0.389 OA 
BRANCH   4   5
HETATM    5  C   UNL     1     -11.691  13.255  64.147  1.00  0.00    -0.420 C  
HETATM    6  O   UNL     1     -12.753  13.229  63.544  1.00  0.00    -0.708 OA 
BRANCH   5   7
HETATM    7  C   UNL     1     -11.411  14.206  65.257  1.00  0.00    -0.330 A  
HETATM    8  C   UNL     1     -10.328  16.169  66.182  1.00  0.00    -0.350 A  
HETATM    9  C   UNL     1     -10.584  15.324  65.095  1.00  0.00    -0.453 A  
HETATM   10  C   UNL     1     -10.902  15.905  67.426  1.00  0.00    -0.291 A  
HETATM   11  C   UNL     1     -11.731  14.797  67.594  1.00  0.00    -0.364 A  
HETATM   12  C   UNL     1     -11.981  13.947  66.513  1.00  0.00    -0.470 A  
ENDBRANCH   5   7
ENDBRANCH   4   5
ENDBRANCH   3   4
ENDBRANCH   2   3
BRANCH   2  13
HETATM   13  C   UNL     1      -9.167   9.721  64.536  1.00  0.00    -0.310 A  
HETATM   14  C   UNL     1      -7.453   8.023  64.809  1.00  0.00    -0.091 A  
HETATM   15  C   UNL     1      -8.744   9.904  63.209  1.00  0.00    -0.227 A  
HETATM   16  C   UNL     1      -8.512   8.772  65.333  1.00  0.00    -0.186 A  
HETATM   17  C   UNL     1      -7.688   9.152  62.688  1.00  0.00    -0.117 A  
HETATM   18  C   UNL     1      -7.043   8.212  63.489  1.00  0.00    -0.086 A  
ENDBRANCH   2  13
TORSDOF 5
ENDMDL
MODEL      164
REMARK 921   NORMALIZED FREE ENERGY PREDICTED BY IDOCK:   -3.13 KCAL/MOL
REMARK 922        TOTAL FREE ENERGY PREDICTED BY IDOCK:   -6.05 KCAL/MOL
REMARK 923 INTER-LIGAND FREE ENERGY PREDICTED BY IDOCK:   -5.62 KCAL/MOL
REMARK 924 INTRA-LIGAND FREE ENERGY PREDICTED BY IDOCK:   -0.43 KCAL/MOL
REMARK 927      BINDING AFFINITY PREDICTED BY RF-SCORE:    0.00 PKD
ROOT
HETATM    1  O   UNL     1      -9.301  10.796  68.747  1.00  0.00    -0.169 OA 
HETATM    2  C   UNL     1     -10.324  10.179  68.487  1.00  0.00    -0.180 C  
ENDROOT
BRANCH   2   3
HETATM    3  O   UNL     1     -11.274  10.548  67.586  1.00  0.00    -0.326 OA 
BRANCH   3   4
HETATM    4  O   UNL     1     -10.645  11.525  66.687  1.00  0.00    -0.232 OA 
BRANCH   4   5
HETATM    5  C   UNL     1     -11.578  12.480  66.428  1.00  0.00    -0.391 C  
HETATM    6  O   UNL     1     -12.464  12.424  65.590  1.00  0.00    -0.640 OA 
BRANCH   5   7
HETATM    7  C   UNL     1     -11.339  13.678  67.278  1.00  0.00    -0.346 A  
HETATM    8  C   UNL     1     -10.325  15.838  67.707  1.00  0.00    -0.275 A  
HETATM    9  C   UNL     1     -10.543  14.750  66.855  1.00  0.00    -0.294 A  
HETATM   10  C   UNL     1     -10.903  15.863  68.978  1.00  0.00    -0.266 A  
HETATM   11  C   UNL     1     -11.700  14.801  69.404  1.00  0.00    -0.358 A  
HETATM   12  C   UNL     1     -11.913  13.709  68.559  1.00  0.00    -0.396 A  
ENDBRANCH   5   7
ENDBRANCH   4   5
ENDBRANCH   3   4
ENDBRANCH   2   3
BRANCH   2  13
HETATM   13  C   UNL     1     -10.666   8.874  69.125  1.00  0.00    -0.162 A  
HETATM   14  C   UNL     1     -10.878   6.455  69.118  1.00  0.00    -0.382 A  
HETATM   15  C   UNL     1     -11.163   8.892  70.438  1.00  0.00    -0.259 A  
HETATM   16  C   UNL     1     -10.525   7.644  68.469  1.00  0.00    -0.206 A  
HETATM   17  C   UNL     1     -11.512   7.704  71.085  1.00  0.00    -0.296 A  
HETATM   18  C   UNL     1     -11.370   6.486  70.423  1.00  0.00    -0.443 A  
ENDBRANCH   2  13
TORSDOF 5
ENDMDL
MODEL      165
REMARK 921   NORMALIZED FREE ENERGY PREDICTED BY IDOCK:   -3.13 KCAL/MOL
REMARK 922        TOTAL FREE ENERGY PREDICTED BY IDOCK:   -6.05 KCAL/MOL
REMARK 923 INTER-LIGAND FREE ENERGY PREDICTED BY IDOCK:   -5.66 KCAL/MOL
REMARK 924 INTRA-LIGAND FREE ENERGY PREDICTED BY IDOCK:   -0.38 KCAL/MOL
REMARK 927      BINDING AFFINITY PREDICTED BY RF-SCORE:    0.00 PKD
ROOT
HETATM    1  O   UNL     1      -7.940  15.486  66.482  1.00  0.00    -0.181 OA 
HETATM    2  C   UNL     1      -8.967  16.101  66.232  1.00  0.00    -0.344 C  
ENDROOT
BRANCH   2   3
HETATM    3  O   UNL     1     -10.084  15.589  65.648  1.00  0.00    -0.326 OA 
BRANCH   3   4
HETATM    4  O   UNL     1     -10.423  14.365  66.386  1.00  0.00    -0.285 OA 
BRANCH   4   5
HETATM    5  C   UNL     1     -10.216  13.323  65.536  1.00  0.00    -0.290 C  
HETATM    6  O   UNL     1     -10.292  13.351  64.318  1.00  0.00    -0.420 OA 
BRANCH   5   7
HETATM    7  C   UNL     1      -9.942  12.078  66.304  1.00  0.00    -0.249 A  
HETATM    8  C   UNL     1      -9.147  10.897  68.268  1.00  0.00    -0.158 A  
HETATM    9  C   UNL     1      -9.416  12.099  67.602  1.00  0.00    -0.187 A  
HETATM   10  C   UNL     1      -9.409   9.676  67.645  1.00  0.00    -0.144 A  
HETATM   11  C   UNL     1      -9.938   9.648  66.355  1.00  0.00    -0.323 A  
HETATM   12  C   UNL     1     -10.199  10.845  65.685  1.00  0.00    -0.323 A  
ENDBRANCH   5   7
ENDBRANCH   4   5
ENDBRANCH   3   4
ENDBRANCH   2   3
BRANCH   2  13
HETATM   13  C   UNL     1      -9.151  17.542  66.574  1.00  0.00    -0.284 A  
HETATM   14  C   UNL     1      -8.405  19.850  66.678  1.00  0.00    -0.369 A  
HETATM   15  C   UNL     1     -10.353  17.925  67.192  1.00  0.00    -0.371 A  
HETATM   16  C   UNL     1      -8.177  18.517  66.318  1.00  0.00    -0.248 A  
HETATM   17  C   UNL     1     -10.578  19.257  67.547  1.00  0.00    -0.581 A  
HETATM   18  C   UNL     1      -9.604  20.219  67.290  1.00  0.00    -0.581 A  
ENDBRANCH   2  13
TORSDOF 5
ENDMDL
MODEL      166
REMARK 921   NORMALIZED FREE ENERGY PREDICTED BY IDOCK:   -3.12 KCAL/MOL
REMARK 922        TOTAL FREE ENERGY PREDICTED BY IDOCK:   -6.03 KCAL/MOL
REMARK 923 INTER-LIGAND FREE ENERGY PREDICTED BY IDOCK:   -5.72 KCAL/MOL
REMARK 924 INTRA-LIGAND FREE ENERGY PREDICTED BY IDOCK:   -0.31 KCAL/MOL
REMARK 927      BINDING AFFINITY PREDICTED BY RF-SCORE:    0.00 PKD
ROOT
HETATM    1  O   UNL     1     -12.898  10.564  71.106  1.00  0.00    -0.357 OA 
HETATM    2  C   UNL     1     -12.085  10.687  70.200  1.00  0.00    -0.333 C  
ENDROOT
BRANCH   2   3
HETATM    3  O   UNL     1     -11.191   9.745  69.795  1.00  0.00    -0.238 OA 
BRANCH   3   4
HETATM    4  O   UNL     1     -11.464   8.537  70.586  1.00  0.00    -0.272 OA 
BRANCH   4   5
HETATM    5  C   UNL     1     -10.820   7.510  69.969  1.00  0.00    -0.249 C  
HETATM    6  O   UNL     1     -10.413   7.492  68.818  1.00  0.00    -0.205 OA 
BRANCH   5   7
HETATM    7  C   UNL     1     -10.727   6.338  70.882  1.00  0.00    -0.314 A  
HETATM    8  C   UNL     1     -11.169   5.213  72.985  1.00  0.00    -0.390 A  
HETATM    9  C   UNL     1     -11.314   6.331  72.154  1.00  0.00    -0.343 A  
HETATM   10  C   UNL     1     -10.447   4.101  72.547  1.00  0.00    -0.205 A  
HETATM   11  C   UNL     1      -9.865   4.100  71.280  1.00  0.00    -0.249 A  
HETATM   12  C   UNL     1     -10.001   5.217  70.451  1.00  0.00    -0.316 A  
ENDBRANCH   5   7
ENDBRANCH   4   5
ENDBRANCH   3   4
ENDBRANCH   2   3
BRANCH   2  13
HETATM   13  C   UNL     1     -11.982  11.920  69.366  1.00  0.00    -0.350 A  
HETATM   14  C   UNL     1     -11.626  13.084  67.265  1.00  0.00    -0.409 A  
HETATM   15  C   UNL     1     -12.138  13.162  70.003  1.00  0.00    -0.375 A  
HETATM   16  C   UNL     1     -11.726  11.890  67.988  1.00  0.00    -0.382 A  
HETATM   17  C   UNL     1     -12.041  14.352  69.277  1.00  0.00    -0.336 A  
HETATM   18  C   UNL     1     -11.784  14.312  67.908  1.00  0.00    -0.394 A  
ENDBRANCH   2  13
TORSDOF 5
ENDMDL
MODEL      167
REMARK 921   NORMALIZED FREE ENERGY PREDICTED BY IDOCK:   -3.12 KCAL/MOL
REMARK 922        TOTAL FREE ENERGY PREDICTED BY IDOCK:   -6.03 KCAL/MOL
REMARK 923 INTER-LIGAND FREE ENERGY PREDICTED BY IDOCK:   -4.08 KCAL/MOL
REMARK 924 INTRA-LIGAND FREE ENERGY PREDICTED BY IDOCK:   -1.96 KCAL/MOL
REMARK 927      BINDING AFFINITY PREDICTED BY RF-SCORE:    0.00 PKD
ROOT
HETATM    1  O   UNL     1      -6.699   7.103  67.453  1.00  0.00    -0.062 OA 
HETATM    2  C   UNL     1      -7.763   7.436  67.955  1.00  0.00    -0.116 C  
ENDROOT
BRANCH   2   3
HETATM    3  O   UNL     1      -8.400   8.623  67.765  1.00  0.00    -0.117 OA 
BRANCH   3   4
HETATM    4  O   UNL     1      -8.036   9.484  68.898  1.00  0.00    -0.088 OA 
BRANCH   4   5
HETATM    5  C   UNL     1      -9.168  10.137  69.276  1.00  0.00    -0.208 C  
HETATM    6  O   UNL     1      -9.612  11.165  68.791  1.00  0.00    -0.192 OA 
BRANCH   5   7
HETATM    7  C   UNL     1      -9.789   9.456  70.445  1.00  0.00    -0.313 A  
HETATM    8  C   UNL     1     -11.710   8.700  71.718  1.00  0.00    -0.400 A  
HETATM    9  C   UNL     1     -11.177   9.322  70.583  1.00  0.00    -0.333 A  
HETATM   10  C   UNL     1     -10.863   8.206  72.711  1.00  0.00    -0.390 A  
HETATM   11  C   UNL     1      -9.480   8.332  72.578  1.00  0.00    -0.356 A  
HETATM   12  C   UNL     1      -8.945   8.959  71.450  1.00  0.00    -0.300 A  
ENDBRANCH   5   7
ENDBRANCH   4   5
ENDBRANCH   3   4
ENDBRANCH   2   3
BRANCH   2  13
HETATM   13  C   UNL     1      -8.550   6.541  68.853  1.00  0.00    -0.125 A  
HETATM   14  C   UNL     1     -10.609   5.482  69.583  1.00  0.00    -0.375 A  
HETATM   15  C   UNL     1      -7.874   5.904  69.906  1.00  0.00    -0.096 A  
HETATM   16  C   UNL     1      -9.926   6.323  68.697  1.00  0.00    -0.166 A  
HETATM   17  C   UNL     1      -8.559   5.063  70.787  1.00  0.00    -0.132 A  
HETATM   18  C   UNL     1      -9.927   4.853  70.625  1.00  0.00    -0.305 A  
ENDBRANCH   2  13
TORSDOF 5
ENDMDL
MODEL      168
REMARK 921   NORMALIZED FREE ENERGY PREDICTED BY IDOCK:   -3.11 KCAL/MOL
REMARK 922        TOTAL FREE ENERGY PREDICTED BY IDOCK:   -6.03 KCAL/MOL
REMARK 923 INTER-LIGAND FREE ENERGY PREDICTED BY IDOCK:   -5.52 KCAL/MOL
REMARK 924 INTRA-LIGAND FREE ENERGY PREDICTED BY IDOCK:   -0.51 KCAL/MOL
REMARK 927      BINDING AFFINITY PREDICTED BY RF-SCORE:    0.00 PKD
ROOT
HETATM    1  O   UNL     1     -10.436   9.949  67.380  1.00  0.00    -0.232 OA 
HETATM    2  C   UNL     1      -9.986  10.903  66.761  1.00  0.00    -0.205 C  
ENDROOT
BRANCH   2   3
HETATM    3  O   UNL     1      -8.748  11.443  66.914  1.00  0.00    -0.154 OA 
BRANCH   3   4
HETATM    4  O   UNL     1      -8.908  12.900  66.819  1.00  0.00    -0.209 OA 
BRANCH   4   5
HETATM    5  C   UNL     1      -8.638  13.406  68.053  1.00  0.00    -0.174 C  
HETATM    6  O   UNL     1      -7.643  13.190  68.727  1.00  0.00    -0.110 OA 
BRANCH   5   7
HETATM    7  C   UNL     1      -9.778  14.235  68.531  1.00  0.00    -0.225 A  
HETATM    8  C   UNL     1     -10.816  16.364  69.050  1.00  0.00    -0.331 A  
HETATM    9  C   UNL     1      -9.726  15.634  68.561  1.00  0.00    -0.202 A  
HETATM   10  C   UNL     1     -11.958  15.703  69.502  1.00  0.00    -0.363 A  
HETATM   11  C   UNL     1     -12.019  14.310  69.470  1.00  0.00    -0.384 A  
HETATM   12  C   UNL     1     -10.930  13.578  68.990  1.00  0.00    -0.264 A  
ENDBRANCH   5   7
ENDBRANCH   4   5
ENDBRANCH   3   4
ENDBRANCH   2   3
BRANCH   2  13
HETATM   13  C   UNL     1     -10.753  11.608  65.693  1.00  0.00    -0.330 A  
HETATM   14  C   UNL     1     -12.561  13.027  64.910  1.00  0.00    -0.490 A  
HETATM   15  C   UNL     1     -10.328  11.452  64.364  1.00  0.00    -0.375 A  
HETATM   16  C   UNL     1     -11.876  12.403  65.959  1.00  0.00    -0.459 A  
HETATM   17  C   UNL     1     -11.012  12.079  63.319  1.00  0.00    -0.399 A  
HETATM   18  C   UNL     1     -12.129  12.865  63.593  1.00  0.00    -0.611 A  
ENDBRANCH   2  13
TORSDOF 5
ENDMDL
MODEL      169
REMARK 921   NORMALIZED FREE ENERGY PREDICTED BY IDOCK:   -3.08 KCAL/MOL
REMARK 922        TOTAL FREE ENERGY PREDICTED BY IDOCK:   -5.98 KCAL/MOL
REMARK 923 INTER-LIGAND FREE ENERGY PREDICTED BY IDOCK:   -5.26 KCAL/MOL
REMARK 924 INTRA-LIGAND FREE ENERGY PREDICTED BY IDOCK:   -0.72 KCAL/MOL
REMARK 927      BINDING AFFINITY PREDICTED BY RF-SCORE:    0.00 PKD
ROOT
HETATM    1  O   UNL     1      -9.401   6.202  67.483  1.00  0.00    -0.115 OA 
HETATM    2  C   UNL     1     -10.083   7.128  67.901  1.00  0.00    -0.173 C  
ENDROOT
BRANCH   2   3
HETATM    3  O   UNL     1     -10.869   7.103  69.011  1.00  0.00    -0.209 OA 
BRANCH   3   4
HETATM    4  O   UNL     1      -9.967   6.978  70.164  1.00  0.00    -0.181 OA 
BRANCH   4   5
HETATM    5  C   UNL     1     -10.749   6.739  71.251  1.00  0.00    -0.226 C  
HETATM    6  O   UNL     1     -10.727   5.746  71.961  1.00  0.00    -0.218 OA 
BRANCH   5   7
HETATM    7  C   UNL     1     -11.723   7.849  71.439  1.00  0.00    -0.311 A  
HETATM    8  C   UNL     1     -13.978   8.714  71.659  1.00  0.00    -0.459 A  
HETATM    9  C   UNL     1     -13.104   7.630  71.513  1.00  0.00    -0.379 A  
HETATM   10  C   UNL     1     -13.476  10.015  71.738  1.00  0.00    -0.422 A  
HETATM   11  C   UNL     1     -12.102  10.240  71.670  1.00  0.00    -0.318 A  
HETATM   12  C   UNL     1     -11.227   9.161  71.516  1.00  0.00    -0.430 A  
ENDBRANCH   5   7
ENDBRANCH   4   5
ENDBRANCH   3   4
ENDBRANCH   2   3
BRANCH   2  13
HETATM   13  C   UNL     1     -10.122   8.467  67.244  1.00  0.00    -0.321 A  
HETATM   14  C   UNL     1      -9.517  10.028  65.486  1.00  0.00    -0.296 A  
HETATM   15  C   UNL     1     -10.852   9.488  67.871  1.00  0.00    -0.240 A  
HETATM   16  C   UNL     1      -9.454   8.746  66.044  1.00  0.00    -0.302 A  
HETATM   17  C   UNL     1     -10.916  10.766  67.310  1.00  0.00    -0.359 A  
HETATM   18  C   UNL     1     -10.247  11.035  66.117  1.00  0.00    -0.298 A  
ENDBRANCH   2  13
TORSDOF 5
ENDMDL
MODEL      170
REMARK 921   NORMALIZED FREE ENERGY PREDICTED BY IDOCK:   -3.08 KCAL/MOL
REMARK 922        TOTAL FREE ENERGY PREDICTED BY IDOCK:   -5.98 KCAL/MOL
REMARK 923 INTER-LIGAND FREE ENERGY PREDICTED BY IDOCK:   -5.67 KCAL/MOL
REMARK 924 INTRA-LIGAND FREE ENERGY PREDICTED BY IDOCK:   -0.31 KCAL/MOL
REMARK 927      BINDING AFFINITY PREDICTED BY RF-SCORE:    0.00 PKD
ROOT
HETATM    1  O   UNL     1     -12.196  11.641  68.421  1.00  0.00    -0.498 OA 
HETATM    2  C   UNL     1     -11.508  11.683  67.410  1.00  0.00    -0.285 C  
ENDROOT
BRANCH   2   3
HETATM    3  O   UNL     1     -10.704  10.688  66.949  1.00  0.00    -0.257 OA 
BRANCH   3   4
HETATM    4  O   UNL     1     -10.909   9.535  67.835  1.00  0.00    -0.245 OA 
BRANCH   4   5
HETATM    5  C   UNL     1     -10.285   8.475  67.252  1.00  0.00    -0.276 C  
HETATM    6  O   UNL     1      -9.808   8.439  66.129  1.00  0.00    -0.221 OA 
BRANCH   5   7
HETATM    7  C   UNL     1     -10.317   7.296  68.160  1.00  0.00    -0.234 A  
HETATM    8  C   UNL     1     -10.749   6.246  70.303  1.00  0.00    -0.339 A  
HETATM    9  C   UNL     1     -10.771   7.380  69.482  1.00  0.00    -0.233 A  
HETATM   10  C   UNL     1     -10.284   5.028  69.805  1.00  0.00    -0.336 A  
HETATM   11  C   UNL     1      -9.836   4.935  68.488  1.00  0.00    -0.208 A  
HETATM   12  C   UNL     1      -9.848   6.067  67.668  1.00  0.00    -0.134 A  
ENDBRANCH   5   7
ENDBRANCH   4   5
ENDBRANCH   3   4
ENDBRANCH   2   3
BRANCH   2  13
HETATM   13  C   UNL     1     -11.480  12.864  66.499  1.00  0.00    -0.390 A  
HETATM   14  C   UNL     1     -10.907  15.160  65.954  1.00  0.00    -0.342 A  
HETATM   15  C   UNL     1     -12.090  12.740  65.240  1.00  0.00    -0.505 A  
HETATM   16  C   UNL     1     -10.886  14.085  66.850  1.00  0.00    -0.290 A  
HETATM   17  C   UNL     1     -12.106  13.815  64.347  1.00  0.00    -0.474 A  
HETATM   18  C   UNL     1     -11.515  15.025  64.706  1.00  0.00    -0.403 A  
ENDBRANCH   2  13
TORSDOF 5
ENDMDL
MODEL      171
REMARK 921   NORMALIZED FREE ENERGY PREDICTED BY IDOCK:   -3.04 KCAL/MOL
REMARK 922        TOTAL FREE ENERGY PREDICTED BY IDOCK:   -5.93 KCAL/MOL
REMARK 923 INTER-LIGAND FREE ENERGY PREDICTED BY IDOCK:   -5.54 KCAL/MOL
REMARK 924 INTRA-LIGAND FREE ENERGY PREDICTED BY IDOCK:   -0.39 KCAL/MOL
REMARK 927      BINDING AFFINITY PREDICTED BY RF-SCORE:    0.00 PKD
ROOT
HETATM    1  O   UNL     1      -9.836  15.355  69.464  1.00  0.00    -0.243 OA 
HETATM    2  C   UNL     1     -10.839  14.654  69.461  1.00  0.00    -0.217 C  
ENDROOT
BRANCH   2   3
HETATM    3  O   UNL     1     -11.183  13.756  68.499  1.00  0.00    -0.248 OA 
BRANCH   3   4
HETATM    4  O   UNL     1     -10.029  12.863  68.322  1.00  0.00    -0.228 OA 
BRANCH   4   5
HETATM    5  C   UNL     1      -9.961  12.566  66.996  1.00  0.00    -0.214 C  
HETATM    6  O   UNL     1     -10.294  13.288  66.070  1.00  0.00    -0.277 OA 
BRANCH   5   7
HETATM    7  C   UNL     1      -9.475  11.172  66.805  1.00  0.00    -0.203 A  
HETATM    8  C   UNL     1      -9.831   8.781  66.615  1.00  0.00    -0.335 A  
HETATM    9  C   UNL     1     -10.345  10.075  66.765  1.00  0.00    -0.283 A  
HETATM   10  C   UNL     1      -8.455   8.580  66.497  1.00  0.00    -0.119 A  
HETATM   11  C   UNL     1      -7.584   9.669  66.531  1.00  0.00    -0.098 A  
HETATM   12  C   UNL     1      -8.092  10.961  66.689  1.00  0.00    -0.147 A  
ENDBRANCH   5   7
ENDBRANCH   4   5
ENDBRANCH   3   4
ENDBRANCH   2   3
BRANCH   2  13
HETATM   13  C   UNL     1     -11.840  14.667  70.567  1.00  0.00    -0.367 A  
HETATM   14  C   UNL     1     -13.134  15.777  72.295  1.00  0.00    -0.524 A  
HETATM   15  C   UNL     1     -12.434  13.449  70.934  1.00  0.00    -0.439 A  
HETATM   16  C   UNL     1     -12.198  15.834  71.256  1.00  0.00    -0.491 A  
HETATM   17  C   UNL     1     -13.369  13.396  71.970  1.00  0.00    -0.569 A  
HETATM   18  C   UNL     1     -13.719  14.561  72.651  1.00  0.00    -0.543 A  
ENDBRANCH   2  13
TORSDOF 5
ENDMDL
MODEL      172
REMARK 921   NORMALIZED FREE ENERGY PREDICTED BY IDOCK:   -3.03 KCAL/MOL
REMARK 922        TOTAL FREE ENERGY PREDICTED BY IDOCK:   -5.92 KCAL/MOL
REMARK 923 INTER-LIGAND FREE ENERGY PREDICTED BY IDOCK:   -5.67 KCAL/MOL
REMARK 924 INTRA-LIGAND FREE ENERGY PREDICTED BY IDOCK:   -0.25 KCAL/MOL
REMARK 927      BINDING AFFINITY PREDICTED BY RF-SCORE:    0.00 PKD
ROOT
HETATM    1  O   UNL     1     -11.762  11.087  70.193  1.00  0.00    -0.299 OA 
HETATM    2  C   UNL     1     -11.864  12.221  69.745  1.00  0.00    -0.318 C  
ENDROOT
BRANCH   2   3
HETATM    3  O   UNL     1     -11.476  12.629  68.507  1.00  0.00    -0.263 OA 
BRANCH   3   4
HETATM    4  O   UNL     1     -10.047  12.958  68.599  1.00  0.00    -0.212 OA 
BRANCH   4   5
HETATM    5  C   UNL     1      -9.688  13.489  67.399  1.00  0.00    -0.229 C  
HETATM    6  O   UNL     1      -9.689  12.918  66.320  1.00  0.00    -0.267 OA 
BRANCH   5   7
HETATM    7  C   UNL     1      -9.209  14.887  67.577  1.00  0.00    -0.194 A  
HETATM    8  C   UNL     1      -9.220  17.034  68.706  1.00  0.00    -0.252 A  
HETATM    9  C   UNL     1      -9.680  15.716  68.604  1.00  0.00    -0.204 A  
HETATM   10  C   UNL     1      -8.285  17.524  67.793  1.00  0.00    -0.219 A  
HETATM   11  C   UNL     1      -7.808  16.703  66.772  1.00  0.00    -0.290 A  
HETATM   12  C   UNL     1      -8.272  15.390  66.661  1.00  0.00    -0.199 A  
ENDBRANCH   5   7
ENDBRANCH   4   5
ENDBRANCH   3   4
ENDBRANCH   2   3
BRANCH   2  13
HETATM   13  C   UNL     1     -12.476  13.343  70.515  1.00  0.00    -0.350 A  
HETATM   14  C   UNL     1     -13.880  14.237  72.282  1.00  0.00    -0.622 A  
HETATM   15  C   UNL     1     -12.193  14.655  70.105  1.00  0.00    -0.391 A  
HETATM   16  C   UNL     1     -13.325  13.141  71.612  1.00  0.00    -0.393 A  
HETATM   17  C   UNL     1     -12.746  15.747  70.778  1.00  0.00    -0.388 A  
HETATM   18  C   UNL     1     -13.591  15.537  71.867  1.00  0.00    -0.580 A  
ENDBRANCH   2  13
TORSDOF 5
ENDMDL
MODEL      173
REMARK 921   NORMALIZED FREE ENERGY PREDICTED BY IDOCK:   -3.00 KCAL/MOL
REMARK 922        TOTAL FREE ENERGY PREDICTED BY IDOCK:   -5.88 KCAL/MOL
REMARK 923 INTER-LIGAND FREE ENERGY PREDICTED BY IDOCK:   -5.56 KCAL/MOL
REMARK 924 INTRA-LIGAND FREE ENERGY PREDICTED BY IDOCK:   -0.32 KCAL/MOL
REMARK 927      BINDING AFFINITY PREDICTED BY RF-SCORE:    0.00 PKD
ROOT
HETATM    1  O   UNL     1      -8.998  10.253  69.607  1.00  0.00    -0.190 OA 
HETATM    2  C   UNL     1     -10.203  10.383  69.443  1.00  0.00    -0.234 C  
ENDROOT
BRANCH   2   3
HETATM    3  O   UNL     1     -10.810  10.869  68.327  1.00  0.00    -0.192 OA 
BRANCH   3   4
HETATM    4  O   UNL     1      -9.809  10.831  67.252  1.00  0.00    -0.173 OA 
BRANCH   4   5
HETATM    5  C   UNL     1     -10.418  11.304  66.131  1.00  0.00    -0.254 C  
HETATM    6  O   UNL     1     -11.509  11.849  66.069  1.00  0.00    -0.341 OA 
BRANCH   5   7
HETATM    7  C   UNL     1      -9.591  11.003  64.930  1.00  0.00    -0.289 A  
HETATM    8  C   UNL     1      -9.252  10.883  62.532  1.00  0.00    -0.339 A  
HETATM    9  C   UNL     1     -10.060  11.213  63.627  1.00  0.00    -0.432 A  
HETATM   10  C   UNL     1      -7.977  10.353  62.734  1.00  0.00    -0.161 A  
HETATM   11  C   UNL     1      -7.503  10.146  64.029  1.00  0.00    -0.117 A  
HETATM   12  C   UNL     1      -8.309  10.467  65.124  1.00  0.00    -0.165 A  
ENDBRANCH   5   7
ENDBRANCH   4   5
ENDBRANCH   3   4
ENDBRANCH   2   3
BRANCH   2  13
HETATM   13  C   UNL     1     -11.208   9.983  70.470  1.00  0.00    -0.408 A  
HETATM   14  C   UNL     1     -12.191   8.403  72.030  1.00  0.00    -0.419 A  
HETATM   15  C   UNL     1     -12.199  10.913  70.822  1.00  0.00    -0.483 A  
HETATM   16  C   UNL     1     -11.211   8.722  71.084  1.00  0.00    -0.339 A  
HETATM   17  C   UNL     1     -13.174  10.592  71.769  1.00  0.00    -0.526 A  
HETATM   18  C   UNL     1     -13.169   9.336  72.373  1.00  0.00    -0.501 A  
ENDBRANCH   2  13
TORSDOF 5
ENDMDL
MODEL      174
REMARK 921   NORMALIZED FREE ENERGY PREDICTED BY IDOCK:   -2.97 KCAL/MOL
REMARK 922        TOTAL FREE ENERGY PREDICTED BY IDOCK:   -5.84 KCAL/MOL
REMARK 923 INTER-LIGAND FREE ENERGY PREDICTED BY IDOCK:   -5.36 KCAL/MOL
REMARK 924 INTRA-LIGAND FREE ENERGY PREDICTED BY IDOCK:   -0.48 KCAL/MOL
REMARK 927      BINDING AFFINITY PREDICTED BY RF-SCORE:    0.00 PKD
ROOT
HETATM    1  O   UNL     1      -8.886   6.514  65.973  1.00  0.00    -0.152 OA 
HETATM    2  C   UNL     1      -9.156   7.495  66.653  1.00  0.00    -0.158 C  
ENDROOT
BRANCH   2   3
HETATM    3  O   UNL     1      -8.948   8.792  66.302  1.00  0.00    -0.151 OA 
BRANCH   3   4
HETATM    4  O   UNL     1     -10.241   9.318  65.841  1.00  0.00    -0.245 OA 
BRANCH   4   5
HETATM    5  C   UNL     1      -9.971  10.214  64.854  1.00  0.00    -0.288 C  
HETATM    6  O   UNL     1      -9.176  10.071  63.938  1.00  0.00    -0.245 OA 
BRANCH   5   7
HETATM    7  C   UNL     1     -10.743  11.467  65.071  1.00  0.00    -0.350 A  
HETATM    8  C   UNL     1     -11.628  13.600  64.330  1.00  0.00    -0.421 A  
HETATM    9  C   UNL     1     -10.920  12.423  64.062  1.00  0.00    -0.442 A  
HETATM   10  C   UNL     1     -12.167  13.823  65.598  1.00  0.00    -0.484 A  
HETATM   11  C   UNL     1     -12.000  12.873  66.606  1.00  0.00    -0.436 A  
HETATM   12  C   UNL     1     -11.286  11.701  66.344  1.00  0.00    -0.349 A  
ENDBRANCH   5   7
ENDBRANCH   4   5
ENDBRANCH   3   4
ENDBRANCH   2   3
BRANCH   2  13
HETATM   13  C   UNL     1      -9.803   7.396  67.994  1.00  0.00    -0.172 A  
HETATM   14  C   UNL     1     -10.226   8.184  70.251  1.00  0.00    -0.200 A  
HETATM   15  C   UNL     1     -10.640   6.297  68.243  1.00  0.00    -0.318 A  
HETATM   16  C   UNL     1      -9.601   8.342  69.009  1.00  0.00    -0.156 A  
HETATM   17  C   UNL     1     -11.265   6.144  69.483  1.00  0.00    -0.482 A  
HETATM   18  C   UNL     1     -11.057   7.088  70.487  1.00  0.00    -0.316 A  
ENDBRANCH   2  13
TORSDOF 5
ENDMDL
MODEL      175
REMARK 921   NORMALIZED FREE ENERGY PREDICTED BY IDOCK:   -2.96 KCAL/MOL
REMARK 922        TOTAL FREE ENERGY PREDICTED BY IDOCK:   -5.83 KCAL/MOL
REMARK 923 INTER-LIGAND FREE ENERGY PREDICTED BY IDOCK:   -5.17 KCAL/MOL
REMARK 924 INTRA-LIGAND FREE ENERGY PREDICTED BY IDOCK:   -0.65 KCAL/MOL
REMARK 927      BINDING AFFINITY PREDICTED BY RF-SCORE:    0.00 PKD
ROOT
HETATM    1  O   UNL     1     -11.981  12.272  67.513  1.00  0.00    -0.513 OA 
HETATM    2  C   UNL     1     -11.436  12.545  68.573  1.00  0.00    -0.305 C  
ENDROOT
BRANCH   2   3
HETATM    3  O   UNL     1     -10.095  12.645  68.780  1.00  0.00    -0.165 OA 
BRANCH   3   4
HETATM    4  O   UNL     1      -9.553  13.432  67.664  1.00  0.00    -0.207 OA 
BRANCH   4   5
HETATM    5  C   UNL     1      -9.187  14.638  68.175  1.00  0.00    -0.192 C  
HETATM    6  O   UNL     1      -8.710  14.847  69.279  1.00  0.00    -0.172 OA 
BRANCH   5   7
HETATM    7  C   UNL     1      -9.513  15.726  67.212  1.00  0.00    -0.217 A  
HETATM    8  C   UNL     1      -9.521  18.050  66.520  1.00  0.00    -0.306 A  
HETATM    9  C   UNL     1      -9.162  17.061  67.444  1.00  0.00    -0.234 A  
HETATM   10  C   UNL     1     -10.222  17.708  65.363  1.00  0.00     0.275 A  
HETATM   11  C   UNL     1     -10.571  16.379  65.123  1.00  0.00    -0.287 A  
HETATM   12  C   UNL     1     -10.221  15.391  66.047  1.00  0.00    -0.343 A  
ENDBRANCH   5   7
ENDBRANCH   4   5
ENDBRANCH   3   4
ENDBRANCH   2   3
BRANCH   2  13
HETATM   13  C   UNL     1     -12.196  12.847  69.820  1.00  0.00    -0.227 A  
HETATM   14  C   UNL     1     -13.332  14.356  71.346  1.00  0.00    -0.420 A  
HETATM   15  C   UNL     1     -12.469  11.787  70.700  1.00  0.00    -0.364 A  
HETATM   16  C   UNL     1     -12.635  14.136  70.153  1.00  0.00    -0.325 A  
HETATM   17  C   UNL     1     -13.167  12.009  71.889  1.00  0.00    -0.469 A  
HETATM   18  C   UNL     1     -13.598  13.294  72.212  1.00  0.00    -0.703 A  
ENDBRANCH   2  13
TORSDOF 5
ENDMDL
MODEL      176
REMARK 921   NORMALIZED FREE ENERGY PREDICTED BY IDOCK:   -2.94 KCAL/MOL
REMARK 922        TOTAL FREE ENERGY PREDICTED BY IDOCK:   -5.80 KCAL/MOL
REMARK 923 INTER-LIGAND FREE ENERGY PREDICTED BY IDOCK:   -4.01 KCAL/MOL
REMARK 924 INTRA-LIGAND FREE ENERGY PREDICTED BY IDOCK:   -1.79 KCAL/MOL
REMARK 927      BINDING AFFINITY PREDICTED BY RF-SCORE:    0.00 PKD
ROOT
HETATM    1  O   UNL     1     -11.111   9.664  70.008  1.00  0.00    -0.240 OA 
HETATM    2  C   UNL     1     -10.280   8.929  70.523  1.00  0.00    -0.204 C  
ENDROOT
BRANCH   2   3
HETATM    3  O   UNL     1      -9.575   9.189  71.656  1.00  0.00    -0.277 OA 
BRANCH   3   4
HETATM    4  O   UNL     1     -10.244   8.464  72.745  1.00  0.00    -0.292 OA 
BRANCH   4   5
HETATM    5  C   UNL     1      -9.273   7.799  73.429  1.00  0.00    -0.284 C  
HETATM    6  O   UNL     1      -8.339   8.297  74.036  1.00  0.00    -0.256 OA 
BRANCH   5   7
HETATM    7  C   UNL     1      -9.457   6.329  73.284  1.00  0.00    -0.144 A  
HETATM    8  C   UNL     1      -8.723   4.134  72.559  1.00  0.00    -0.112 A  
HETATM    9  C   UNL     1      -8.485   5.507  72.699  1.00  0.00    -0.117 A  
HETATM   10  C   UNL     1      -9.922   3.579  73.007  1.00  0.00    -0.206 A  
HETATM   11  C   UNL     1     -10.892   4.391  73.596  1.00  0.00    -0.367 A  
HETATM   12  C   UNL     1     -10.662   5.763  73.729  1.00  0.00    -0.247 A  
ENDBRANCH   5   7
ENDBRANCH   4   5
ENDBRANCH   3   4
ENDBRANCH   2   3
BRANCH   2  13
HETATM   13  C   UNL     1      -9.937   7.585  69.973  1.00  0.00    -0.186 A  
HETATM   14  C   UNL     1      -8.445   6.016  68.874  1.00  0.00    -0.116 A  
HETATM   15  C   UNL     1     -10.912   6.577  70.041  1.00  0.00    -0.388 A  
HETATM   16  C   UNL     1      -8.698   7.294  69.385  1.00  0.00    -0.137 A  
HETATM   17  C   UNL     1     -10.655   5.301  69.532  1.00  0.00    -0.244 A  
HETATM   18  C   UNL     1      -9.420   5.022  68.948  1.00  0.00    -0.195 A  
ENDBRANCH   2  13
TORSDOF 5
ENDMDL
MODEL      177
REMARK 921   NORMALIZED FREE ENERGY PREDICTED BY IDOCK:   -2.93 KCAL/MOL
REMARK 922        TOTAL FREE ENERGY PREDICTED BY IDOCK:   -5.79 KCAL/MOL
REMARK 923 INTER-LIGAND FREE ENERGY PREDICTED BY IDOCK:   -4.00 KCAL/MOL
REMARK 924 INTRA-LIGAND FREE ENERGY PREDICTED BY IDOCK:   -1.79 KCAL/MOL
REMARK 927      BINDING AFFINITY PREDICTED BY RF-SCORE:    0.00 PKD
ROOT
HETATM    1  O   UNL     1     -10.045   7.013  67.005  1.00  0.00    -0.189 OA 
HETATM    2  C   UNL     1     -10.139   8.223  66.858  1.00  0.00    -0.296 C  
ENDROOT
BRANCH   2   3
HETATM    3  O   UNL     1     -11.033   9.038  67.480  1.00  0.00    -0.152 OA 
BRANCH   3   4
HETATM    4  O   UNL     1     -10.363   9.564  68.677  1.00  0.00    -0.192 OA 
BRANCH   4   5
HETATM    5  C   UNL     1     -10.952  10.756  68.966  1.00  0.00    -0.240 C  
HETATM    6  O   UNL     1     -11.718  10.984  69.889  1.00  0.00    -0.283 OA 
BRANCH   5   7
HETATM    7  C   UNL     1     -10.590  11.772  67.941  1.00  0.00    -0.231 A  
HETATM    8  C   UNL     1      -8.996  13.208  66.811  1.00  0.00    -0.183 A  
HETATM    9  C   UNL     1      -9.276  12.227  67.769  1.00  0.00    -0.191 A  
HETATM   10  C   UNL     1     -10.020  13.730  66.019  1.00  0.00    -0.319 A  
HETATM   11  C   UNL     1     -11.329  13.277  66.181  1.00  0.00    -0.335 A  
HETATM   12  C   UNL     1     -11.614  12.304  67.143  1.00  0.00    -0.423 A  
ENDBRANCH   5   7
ENDBRANCH   4   5
ENDBRANCH   3   4
ENDBRANCH   2   3
BRANCH   2  13
HETATM   13  C   UNL     1      -9.232   9.003  65.966  1.00  0.00    -0.284 A  
HETATM   14  C   UNL     1      -7.038   9.693  65.187  1.00  0.00    -0.114 A  
HETATM   15  C   UNL     1      -9.814   9.860  65.019  1.00  0.00    -0.323 A  
HETATM   16  C   UNL     1      -7.834   8.924  66.043  1.00  0.00    -0.102 A  
HETATM   17  C   UNL     1      -9.017  10.625  64.164  1.00  0.00    -0.214 A  
HETATM   18  C   UNL     1      -7.628  10.541  64.249  1.00  0.00     0.068 A  
ENDBRANCH   2  13
TORSDOF 5
ENDMDL
MODEL      178
REMARK 921   NORMALIZED FREE ENERGY PREDICTED BY IDOCK:   -2.91 KCAL/MOL
REMARK 922        TOTAL FREE ENERGY PREDICTED BY IDOCK:   -5.77 KCAL/MOL
REMARK 923 INTER-LIGAND FREE ENERGY PREDICTED BY IDOCK:   -5.35 KCAL/MOL
REMARK 924 INTRA-LIGAND FREE ENERGY PREDICTED BY IDOCK:   -0.42 KCAL/MOL
REMARK 927      BINDING AFFINITY PREDICTED BY RF-SCORE:    0.00 PKD
ROOT
HETATM    1  O   UNL     1     -11.869  14.416  66.486  1.00  0.00    -0.384 OA 
HETATM    2  C   UNL     1     -11.247  14.488  67.536  1.00  0.00    -0.321 C  
ENDROOT
BRANCH   2   3
HETATM    3  O   UNL     1     -11.323  13.610  68.572  1.00  0.00    -0.254 OA 
BRANCH   3   4
HETATM    4  O   UNL     1     -10.408  12.505  68.257  1.00  0.00    -0.224 OA 
BRANCH   4   5
HETATM    5  C   UNL     1     -11.182  11.440  67.912  1.00  0.00    -0.288 C  
HETATM    6  O   UNL     1     -12.211  11.079  68.461  1.00  0.00    -0.582 OA 
BRANCH   5   7
HETATM    7  C   UNL     1     -10.563  10.699  66.780  1.00  0.00    -0.297 A  
HETATM    8  C   UNL     1      -9.399   8.788  65.845  1.00  0.00    -0.284 A  
HETATM    9  C   UNL     1      -9.997   9.427  66.937  1.00  0.00    -0.293 A  
HETATM   10  C   UNL     1      -9.370   9.410  64.596  1.00  0.00    -0.112 A  
HETATM   11  C   UNL     1      -9.936  10.674  64.431  1.00  0.00    -0.415 A  
HETATM   12  C   UNL     1     -10.526  11.319  65.521  1.00  0.00    -0.323 A  
ENDBRANCH   5   7
ENDBRANCH   4   5
ENDBRANCH   3   4
ENDBRANCH   2   3
BRANCH   2  13
HETATM   13  C   UNL     1     -10.261  15.572  67.821  1.00  0.00    -0.243 A  
HETATM   14  C   UNL     1      -8.007  16.403  68.175  1.00  0.00    -0.160 A  
HETATM   15  C   UNL     1     -10.751  16.869  68.041  1.00  0.00    -0.364 A  
HETATM   16  C   UNL     1      -8.879  15.346  67.889  1.00  0.00    -0.168 A  
HETATM   17  C   UNL     1      -9.878  17.922  68.323  1.00  0.00    -0.348 A  
HETATM   18  C   UNL     1      -8.506  17.688  68.390  1.00  0.00    -0.287 A  
ENDBRANCH   2  13
TORSDOF 5
ENDMDL
MODEL      179
REMARK 921   NORMALIZED FREE ENERGY PREDICTED BY IDOCK:   -2.88 KCAL/MOL
REMARK 922        TOTAL FREE ENERGY PREDICTED BY IDOCK:   -5.72 KCAL/MOL
REMARK 923 INTER-LIGAND FREE ENERGY PREDICTED BY IDOCK:   -5.29 KCAL/MOL
REMARK 924 INTRA-LIGAND FREE ENERGY PREDICTED BY IDOCK:   -0.43 KCAL/MOL
REMARK 927      BINDING AFFINITY PREDICTED BY RF-SCORE:    0.00 PKD
ROOT
HETATM    1  O   UNL     1      -9.841   9.551  67.846  1.00  0.00    -0.147 OA 
HETATM    2  C   UNL     1     -10.174  10.399  68.662  1.00  0.00    -0.181 C  
ENDROOT
BRANCH   2   3
HETATM    3  O   UNL     1      -9.848  11.719  68.620  1.00  0.00    -0.198 OA 
BRANCH   3   4
HETATM    4  O   UNL     1     -10.210  12.201  67.280  1.00  0.00    -0.201 OA 
BRANCH   4   5
HETATM    5  C   UNL     1     -11.207  13.111  67.445  1.00  0.00    -0.287 C  
HETATM    6  O   UNL     1     -12.405  12.909  67.319  1.00  0.00    -0.312 OA 
BRANCH   5   7
HETATM    7  C   UNL     1     -10.637  14.453  67.743  1.00  0.00    -0.246 A  
HETATM    8  C   UNL     1      -8.784  16.008  67.919  1.00  0.00    -0.165 A  
HETATM    9  C   UNL     1      -9.273  14.737  67.594  1.00  0.00    -0.191 A  
HETATM   10  C   UNL     1      -9.652  16.997  68.383  1.00  0.00    -0.277 A  
HETATM   11  C   UNL     1     -11.011  16.723  68.529  1.00  0.00    -0.312 A  
HETATM   12  C   UNL     1     -11.502  15.453  68.214  1.00  0.00    -0.362 A  
ENDBRANCH   5   7
ENDBRANCH   4   5
ENDBRANCH   3   4
ENDBRANCH   2   3
BRANCH   2  13
HETATM   13  C   UNL     1     -11.039  10.095  69.839  1.00  0.00    -0.346 A  
HETATM   14  C   UNL     1     -11.530   8.941  71.918  1.00  0.00    -0.442 A  
HETATM   15  C   UNL     1     -12.285  10.737  69.926  1.00  0.00    -0.384 A  
HETATM   16  C   UNL     1     -10.666   9.194  70.846  1.00  0.00    -0.343 A  
HETATM   17  C   UNL     1     -13.144  10.484  70.998  1.00  0.00    -0.419 A  
HETATM   18  C   UNL     1     -12.765   9.585  71.994  1.00  0.00    -0.479 A  
ENDBRANCH   2  13
TORSDOF 5
ENDMDL
MODEL      180
REMARK 921   NORMALIZED FREE ENERGY PREDICTED BY IDOCK:   -2.85 KCAL/MOL
REMARK 922        TOTAL FREE ENERGY PREDICTED BY IDOCK:   -5.69 KCAL/MOL
REMARK 923 INTER-LIGAND FREE ENERGY PREDICTED BY IDOCK:   -5.62 KCAL/MOL
REMARK 924 INTRA-LIGAND FREE ENERGY PREDICTED BY IDOCK:   -0.06 KCAL/MOL
REMARK 927      BINDING AFFINITY PREDICTED BY RF-SCORE:    0.00 PKD
ROOT
HETATM    1  O   UNL     1     -13.329  12.747  64.867  1.00  0.00    -0.736 OA 
HETATM    2  C   UNL     1     -12.142  12.888  65.128  1.00  0.00    -0.445 C  
ENDROOT
BRANCH   2   3
HETATM    3  O   UNL     1     -11.600  13.898  65.860  1.00  0.00    -0.322 OA 
BRANCH   3   4
HETATM    4  O   UNL     1     -11.472  13.401  67.236  1.00  0.00    -0.307 OA 
BRANCH   4   5
HETATM    5  C   UNL     1     -11.280  14.488  68.031  1.00  0.00    -0.292 C  
HETATM    6  O   UNL     1     -12.145  15.141  68.593  1.00  0.00    -0.264 OA 
BRANCH   5   7
HETATM    7  C   UNL     1      -9.835  14.841  68.081  1.00  0.00    -0.221 A  
HETATM    8  C   UNL     1      -7.692  15.270  67.029  1.00  0.00    -0.192 A  
HETATM    9  C   UNL     1      -9.055  14.967  66.924  1.00  0.00    -0.269 A  
HETATM   10  C   UNL     1      -7.108  15.455  68.283  1.00  0.00    -0.117 A  
HETATM   11  C   UNL     1      -7.880  15.336  69.439  1.00  0.00    -0.227 A  
HETATM   12  C   UNL     1      -9.239  15.025  69.338  1.00  0.00    -0.114 A  
ENDBRANCH   5   7
ENDBRANCH   4   5
ENDBRANCH   3   4
ENDBRANCH   2   3
BRANCH   2  13
HETATM   13  C   UNL     1     -11.095  11.920  64.689  1.00  0.00    -0.373 A  
HETATM   14  C   UNL     1      -9.627  10.019  65.041  1.00  0.00    -0.362 A  
HETATM   15  C   UNL     1     -10.559  12.068  63.400  1.00  0.00    -0.478 A  
HETATM   16  C   UNL     1     -10.622  10.886  65.508  1.00  0.00    -0.240 A  
HETATM   17  C   UNL     1      -9.568  11.200  62.936  1.00  0.00    -0.373 A  
HETATM   18  C   UNL     1      -9.102  10.176  63.758  1.00  0.00    -0.293 A  
ENDBRANCH   2  13
TORSDOF 5
ENDMDL
MODEL      181
REMARK 921   NORMALIZED FREE ENERGY PREDICTED BY IDOCK:   -2.82 KCAL/MOL
REMARK 922        TOTAL FREE ENERGY PREDICTED BY IDOCK:   -5.65 KCAL/MOL
REMARK 923 INTER-LIGAND FREE ENERGY PREDICTED BY IDOCK:   -5.44 KCAL/MOL
REMARK 924 INTRA-LIGAND FREE ENERGY PREDICTED BY IDOCK:   -0.20 KCAL/MOL
REMARK 927      BINDING AFFINITY PREDICTED BY RF-SCORE:    0.00 PKD
ROOT
HETATM    1  O   UNL     1     -10.639   8.434  67.505  1.00  0.00    -0.255 OA 
HETATM    2  C   UNL     1     -10.049   9.223  68.230  1.00  0.00    -0.185 C  
ENDROOT
BRANCH   2   3
HETATM    3  O   UNL     1      -9.514  10.413  67.846  1.00  0.00    -0.138 OA 
BRANCH   3   4
HETATM    4  O   UNL     1     -10.111  11.442  68.709  1.00  0.00    -0.205 OA 
BRANCH   4   5
HETATM    5  C   UNL     1     -11.331  11.736  68.184  1.00  0.00    -0.284 C  
HETATM    6  O   UNL     1     -12.411  11.324  68.577  1.00  0.00    -0.543 OA 
BRANCH   5   7
HETATM    7  C   UNL     1     -11.180  12.602  66.983  1.00  0.00    -0.348 A  
HETATM    8  C   UNL     1     -11.726  13.227  64.704  1.00  0.00    -0.403 A  
HETATM    9  C   UNL     1     -11.931  12.403  65.817  1.00  0.00    -0.437 A  
HETATM   10  C   UNL     1     -10.781  14.252  64.754  1.00  0.00    -0.435 A  
HETATM   11  C   UNL     1     -10.033  14.459  65.913  1.00  0.00    -0.350 A  
HETATM   12  C   UNL     1     -10.229  13.633  67.023  1.00  0.00    -0.250 A  
ENDBRANCH   5   7
ENDBRANCH   4   5
ENDBRANCH   3   4
ENDBRANCH   2   3
BRANCH   2  13
HETATM   13  C   UNL     1      -9.856   8.992  69.691  1.00  0.00    -0.182 A  
HETATM   14  C   UNL     1      -8.477   8.709  71.670  1.00  0.00    -0.230 A  
HETATM   15  C   UNL     1     -10.998   8.803  70.485  1.00  0.00    -0.272 A  
HETATM   16  C   UNL     1      -8.591   8.945  70.295  1.00  0.00    -0.178 A  
HETATM   17  C   UNL     1     -10.881   8.571  71.858  1.00  0.00    -0.392 A  
HETATM   18  C   UNL     1      -9.620   8.524  72.449  1.00  0.00    -0.356 A  
ENDBRANCH   2  13
TORSDOF 5
ENDMDL
MODEL      182
REMARK 921   NORMALIZED FREE ENERGY PREDICTED BY IDOCK:   -2.82 KCAL/MOL
REMARK 922        TOTAL FREE ENERGY PREDICTED BY IDOCK:   -5.64 KCAL/MOL
REMARK 923 INTER-LIGAND FREE ENERGY PREDICTED BY IDOCK:   -5.02 KCAL/MOL
REMARK 924 INTRA-LIGAND FREE ENERGY PREDICTED BY IDOCK:   -0.62 KCAL/MOL
REMARK 927      BINDING AFFINITY PREDICTED BY RF-SCORE:    0.00 PKD
ROOT
HETATM    1  O   UNL     1      -9.802   3.907  70.848  1.00  0.00    -0.186 OA 
HETATM    2  C   UNL     1      -9.466   5.059  70.610  1.00  0.00    -0.169 C  
ENDROOT
BRANCH   2   3
HETATM    3  O   UNL     1      -8.904   5.927  71.493  1.00  0.00    -0.135 OA 
BRANCH   3   4
HETATM    4  O   UNL     1      -9.597   7.212  71.321  1.00  0.00    -0.164 OA 
BRANCH   4   5
HETATM    5  C   UNL     1     -10.258   7.461  72.484  1.00  0.00    -0.216 C  
HETATM    6  O   UNL     1      -9.818   7.325  73.615  1.00  0.00    -0.252 OA 
BRANCH   5   7
HETATM    7  C   UNL     1     -11.661   7.871  72.202  1.00  0.00    -0.380 A  
HETATM    8  C   UNL     1     -13.430   9.524  72.073  1.00  0.00    -0.522 A  
HETATM    9  C   UNL     1     -12.091   9.198  72.319  1.00  0.00    -0.311 A  
HETATM   10  C   UNL     1     -14.338   8.530  71.703  1.00  0.00    -0.497 A  
HETATM   11  C   UNL     1     -13.915   7.207  71.579  1.00  0.00    -0.440 A  
HETATM   12  C   UNL     1     -12.581   6.877  71.833  1.00  0.00    -0.336 A  
ENDBRANCH   5   7
ENDBRANCH   4   5
ENDBRANCH   3   4
ENDBRANCH   2   3
BRANCH   2  13
HETATM   13  C   UNL     1      -9.604   5.679  69.259  1.00  0.00    -0.181 A  
HETATM   14  C   UNL     1      -8.701   6.663  67.232  1.00  0.00    -0.118 A  
HETATM   15  C   UNL     1     -10.899   5.885  68.757  1.00  0.00    -0.353 A  
HETATM   16  C   UNL     1      -8.503   6.073  68.485  1.00  0.00    -0.113 A  
HETATM   17  C   UNL     1     -11.092   6.472  67.504  1.00  0.00    -0.396 A  
HETATM   18  C   UNL     1      -9.992   6.861  66.742  1.00  0.00    -0.248 A  
ENDBRANCH   2  13
TORSDOF 5
ENDMDL
MODEL      183
REMARK 921   NORMALIZED FREE ENERGY PREDICTED BY IDOCK:   -2.78 KCAL/MOL
REMARK 922        TOTAL FREE ENERGY PREDICTED BY IDOCK:   -5.60 KCAL/MOL
REMARK 923 INTER-LIGAND FREE ENERGY PREDICTED BY IDOCK:   -5.17 KCAL/MOL
REMARK 924 INTRA-LIGAND FREE ENERGY PREDICTED BY IDOCK:   -0.43 KCAL/MOL
REMARK 927      BINDING AFFINITY PREDICTED BY RF-SCORE:    0.00 PKD
ROOT
HETATM    1  O   UNL     1     -12.371  11.318  68.841  1.00  0.00    -0.485 OA 
HETATM    2  C   UNL     1     -11.647  11.204  67.861  1.00  0.00    -0.251 C  
ENDROOT
BRANCH   2   3
HETATM    3  O   UNL     1     -10.969  10.084  67.494  1.00  0.00    -0.288 OA 
BRANCH   3   4
HETATM    4  O   UNL     1     -10.171   9.673  68.658  1.00  0.00    -0.176 OA 
BRANCH   4   5
HETATM    5  C   UNL     1     -10.647   8.462  69.054  1.00  0.00    -0.154 C  
HETATM    6  O   UNL     1     -11.356   8.239  70.023  1.00  0.00    -0.154 OA 
BRANCH   5   7
HETATM    7  C   UNL     1     -10.123   7.388  68.167  1.00  0.00    -0.210 A  
HETATM    8  C   UNL     1      -8.341   6.302  66.932  1.00  0.00    -0.109 A  
HETATM    9  C   UNL     1      -8.775   7.315  67.795  1.00  0.00    -0.126 A  
HETATM   10  C   UNL     1      -9.247   5.357  66.445  1.00  0.00    -0.150 A  
HETATM   11  C   UNL     1     -10.590   5.421  66.816  1.00  0.00    -0.339 A  
HETATM   12  C   UNL     1     -11.028   6.436  67.670  1.00  0.00    -0.441 A  
ENDBRANCH   5   7
ENDBRANCH   4   5
ENDBRANCH   3   4
ENDBRANCH   2   3
BRANCH   2  13
HETATM   13  C   UNL     1     -11.428  12.310  66.884  1.00  0.00    -0.418 A  
HETATM   14  C   UNL     1     -10.719  13.182  64.732  1.00  0.00    -0.381 A  
HETATM   15  C   UNL     1     -11.741  13.618  67.287  1.00  0.00    -0.416 A  
HETATM   16  C   UNL     1     -10.915  12.099  65.596  1.00  0.00    -0.337 A  
HETATM   17  C   UNL     1     -11.546  14.697  66.421  1.00  0.00    -0.343 A  
HETATM   18  C   UNL     1     -11.034  14.478  65.143  1.00  0.00    -0.387 A  
ENDBRANCH   2  13
TORSDOF 5
ENDMDL
MODEL      184
REMARK 921   NORMALIZED FREE ENERGY PREDICTED BY IDOCK:   -2.73 KCAL/MOL
REMARK 922        TOTAL FREE ENERGY PREDICTED BY IDOCK:   -5.54 KCAL/MOL
REMARK 923 INTER-LIGAND FREE ENERGY PREDICTED BY IDOCK:   -4.80 KCAL/MOL
REMARK 924 INTRA-LIGAND FREE ENERGY PREDICTED BY IDOCK:   -0.74 KCAL/MOL
REMARK 927      BINDING AFFINITY PREDICTED BY RF-SCORE:    0.00 PKD
ROOT
HETATM    1  O   UNL     1     -11.014   9.290  67.760  1.00  0.00    -0.186 OA 
HETATM    2  C   UNL     1     -10.014   9.955  67.992  1.00  0.00    -0.152 C  
ENDROOT
BRANCH   2   3
HETATM    3  O   UNL     1      -9.765  11.211  67.535  1.00  0.00    -0.174 OA 
BRANCH   3   4
HETATM    4  O   UNL     1      -9.991  12.124  68.664  1.00  0.00    -0.202 OA 
BRANCH   4   5
HETATM    5  C   UNL     1     -11.202  12.710  68.460  1.00  0.00    -0.279 C  
HETATM    6  O   UNL     1     -11.630  13.148  67.404  1.00  0.00    -0.314 OA 
BRANCH   5   7
HETATM    7  C   UNL     1     -11.945  12.818  69.745  1.00  0.00    -0.362 A  
HETATM    8  C   UNL     1     -13.000  14.097  71.515  1.00  0.00    -0.417 A  
HETATM    9  C   UNL     1     -12.331  14.051  70.286  1.00  0.00    -0.425 A  
HETATM   10  C   UNL     1     -13.292  12.917  72.200  1.00  0.00    -0.615 A  
HETATM   11  C   UNL     1     -12.915  11.686  71.665  1.00  0.00    -0.483 A  
HETATM   12  C   UNL     1     -12.239  11.636  70.443  1.00  0.00    -0.434 A  
ENDBRANCH   5   7
ENDBRANCH   4   5
ENDBRANCH   3   4
ENDBRANCH   2   3
BRANCH   2  13
HETATM   13  C   UNL     1      -8.905   9.471  68.866  1.00  0.00    -0.137 A  
HETATM   14  C   UNL     1      -7.966   8.840  71.014  1.00  0.00    -0.170 A  
HETATM   15  C   UNL     1      -7.662   9.209  68.269  1.00  0.00    -0.091 A  
HETATM   16  C   UNL     1      -9.050   9.282  70.247  1.00  0.00    -0.271 A  
HETATM   17  C   UNL     1      -6.582   8.766  69.037  1.00  0.00    -0.048 A  
HETATM   18  C   UNL     1      -6.735   8.582  70.410  1.00  0.00    -0.037 A  
ENDBRANCH   2  13
TORSDOF 5
ENDMDL
MODEL      185
REMARK 921   NORMALIZED FREE ENERGY PREDICTED BY IDOCK:   -2.72 KCAL/MOL
REMARK 922        TOTAL FREE ENERGY PREDICTED BY IDOCK:   -5.52 KCAL/MOL
REMARK 923 INTER-LIGAND FREE ENERGY PREDICTED BY IDOCK:   -5.12 KCAL/MOL
REMARK 924 INTRA-LIGAND FREE ENERGY PREDICTED BY IDOCK:   -0.40 KCAL/MOL
REMARK 927      BINDING AFFINITY PREDICTED BY RF-SCORE:    0.00 PKD
ROOT
HETATM    1  O   UNL     1      -7.855   9.564  67.588  1.00  0.00    -0.101 OA 
HETATM    2  C   UNL     1      -9.069   9.449  67.488  1.00  0.00    -0.124 C  
ENDROOT
BRANCH   2   3
HETATM    3  O   UNL     1      -9.884  10.217  66.716  1.00  0.00    -0.179 OA 
BRANCH   3   4
HETATM    4  O   UNL     1     -10.327  11.339  67.554  1.00  0.00    -0.185 OA 
BRANCH   4   5
HETATM    5  C   UNL     1      -9.690  12.449  67.094  1.00  0.00    -0.207 C  
HETATM    6  O   UNL     1      -8.560  12.812  67.380  1.00  0.00    -0.174 OA 
BRANCH   5   7
HETATM    7  C   UNL     1     -10.598  13.237  66.217  1.00  0.00    -0.294 A  
HETATM    8  C   UNL     1     -11.044  15.027  64.642  1.00  0.00    -0.335 A  
HETATM    9  C   UNL     1     -10.140  14.297  65.424  1.00  0.00    -0.379 A  
HETATM   10  C   UNL     1     -12.400  14.696  64.643  1.00  0.00    -0.390 A  
HETATM   11  C   UNL     1     -12.861  13.639  65.426  1.00  0.00    -0.440 A  
HETATM   12  C   UNL     1     -11.964  12.914  66.215  1.00  0.00    -0.472 A  
ENDBRANCH   5   7
ENDBRANCH   4   5
ENDBRANCH   3   4
ENDBRANCH   2   3
BRANCH   2  13
HETATM   13  C   UNL     1      -9.844   8.393  68.204  1.00  0.00    -0.196 A  
HETATM   14  C   UNL     1     -10.833   7.415  70.193  1.00  0.00    -0.270 A  
HETATM   15  C   UNL     1     -10.308   7.297  67.460  1.00  0.00    -0.310 A  
HETATM   16  C   UNL     1     -10.113   8.445  69.579  1.00  0.00    -0.200 A  
HETATM   17  C   UNL     1     -11.028   6.271  68.076  1.00  0.00    -0.418 A  
HETATM   18  C   UNL     1     -11.290   6.331  69.443  1.00  0.00    -0.448 A  
ENDBRANCH   2  13
TORSDOF 5
ENDMDL
MODEL      186
REMARK 921   NORMALIZED FREE ENERGY PREDICTED BY IDOCK:   -2.72 KCAL/MOL
REMARK 922        TOTAL FREE ENERGY PREDICTED BY IDOCK:   -5.52 KCAL/MOL
REMARK 923 INTER-LIGAND FREE ENERGY PREDICTED BY IDOCK:   -5.09 KCAL/MOL
REMARK 924 INTRA-LIGAND FREE ENERGY PREDICTED BY IDOCK:   -0.43 KCAL/MOL
REMARK 927      BINDING AFFINITY PREDICTED BY RF-SCORE:    0.00 PKD
ROOT
HETATM    1  O   UNL     1     -10.586   8.288  67.092  1.00  0.00    -0.317 OA 
HETATM    2  C   UNL     1     -10.365   9.045  68.027  1.00  0.00    -0.224 C  
ENDROOT
BRANCH   2   3
HETATM    3  O   UNL     1      -9.684  10.221  67.959  1.00  0.00    -0.147 OA 
BRANCH   3   4
HETATM    4  O   UNL     1     -10.387  11.060  66.979  1.00  0.00    -0.209 OA 
BRANCH   4   5
HETATM    5  C   UNL     1      -9.436  11.602  66.171  1.00  0.00    -0.224 C  
HETATM    6  O   UNL     1      -8.539  11.003  65.599  1.00  0.00    -0.181 OA 
BRANCH   5   7
HETATM    7  C   UNL     1      -9.586  13.082  66.121  1.00  0.00    -0.209 A  
HETATM    8  C   UNL     1     -10.555  15.113  65.218  1.00  0.00    -0.432 A  
HETATM    9  C   UNL     1     -10.478  13.716  65.246  1.00  0.00    -0.362 A  
HETATM   10  C   UNL     1      -9.752  15.879  66.064  1.00  0.00    -0.375 A  
HETATM   11  C   UNL     1      -8.865  15.254  66.941  1.00  0.00    -0.281 A  
HETATM   12  C   UNL     1      -8.779  13.860  66.966  1.00  0.00    -0.215 A  
ENDBRANCH   5   7
ENDBRANCH   4   5
ENDBRANCH   3   4
ENDBRANCH   2   3
BRANCH   2  13
HETATM   13  C   UNL     1     -10.855   8.786  69.412  1.00  0.00    -0.123 A  
HETATM   14  C   UNL     1     -11.425   7.323  71.263  1.00  0.00    -0.304 A  
HETATM   15  C   UNL     1     -11.257   9.887  70.186  1.00  0.00    -0.347 A  
HETATM   16  C   UNL     1     -10.942   7.500  69.962  1.00  0.00    -0.252 A  
HETATM   17  C   UNL     1     -11.737   9.707  71.486  1.00  0.00    -0.472 A  
HETATM   18  C   UNL     1     -11.821   8.424  72.023  1.00  0.00    -0.417 A  
ENDBRANCH   2  13
TORSDOF 5
ENDMDL
MODEL      187
REMARK 921   NORMALIZED FREE ENERGY PREDICTED BY IDOCK:   -2.72 KCAL/MOL
REMARK 922        TOTAL FREE ENERGY PREDICTED BY IDOCK:   -5.52 KCAL/MOL
REMARK 923 INTER-LIGAND FREE ENERGY PREDICTED BY IDOCK:   -5.10 KCAL/MOL
REMARK 924 INTRA-LIGAND FREE ENERGY PREDICTED BY IDOCK:   -0.41 KCAL/MOL
REMARK 927      BINDING AFFINITY PREDICTED BY RF-SCORE:    0.00 PKD
ROOT
HETATM    1  O   UNL     1     -10.559   9.732  66.737  1.00  0.00    -0.206 OA 
HETATM    2  C   UNL     1     -11.089  10.593  67.425  1.00  0.00    -0.272 C  
ENDROOT
BRANCH   2   3
HETATM    3  O   UNL     1     -11.676  10.398  68.637  1.00  0.00    -0.224 OA 
BRANCH   3   4
HETATM    4  O   UNL     1     -10.726   9.623  69.446  1.00  0.00    -0.217 OA 
BRANCH   4   5
HETATM    5  C   UNL     1     -11.454   8.977  70.397  1.00  0.00    -0.173 C  
HETATM    6  O   UNL     1     -12.314   9.466  71.112  1.00  0.00    -0.305 OA 
BRANCH   5   7
HETATM    7  C   UNL     1     -11.011   7.561  70.511  1.00  0.00    -0.266 A  
HETATM    8  C   UNL     1     -10.592   5.538  71.781  1.00  0.00    -0.296 A  
HETATM    9  C   UNL     1     -11.051   6.859  71.722  1.00  0.00    -0.275 A  
HETATM   10  C   UNL     1     -10.100   4.913  70.633  1.00  0.00    -0.306 A  
HETATM   11  C   UNL     1     -10.062   5.605  69.423  1.00  0.00    -0.290 A  
HETATM   12  C   UNL     1     -10.512   6.927  69.363  1.00  0.00    -0.237 A  
ENDBRANCH   5   7
ENDBRANCH   4   5
ENDBRANCH   3   4
ENDBRANCH   2   3
BRANCH   2  13
HETATM   13  C   UNL     1     -11.137  12.031  67.029  1.00  0.00    -0.351 A  
HETATM   14  C   UNL     1     -11.789  13.843  65.550  1.00  0.00    -0.372 A  
HETATM   15  C   UNL     1     -10.483  12.963  67.849  1.00  0.00    -0.231 A  
HETATM   16  C   UNL     1     -11.793  12.481  65.875  1.00  0.00    -0.489 A  
HETATM   17  C   UNL     1     -10.483  14.322  67.523  1.00  0.00    -0.252 A  
HETATM   18  C   UNL     1     -11.136  14.761  66.373  1.00  0.00    -0.340 A  
ENDBRANCH   2  13
TORSDOF 5
ENDMDL
MODEL      188
REMARK 921   NORMALIZED FREE ENERGY PREDICTED BY IDOCK:   -2.72 KCAL/MOL
REMARK 922        TOTAL FREE ENERGY PREDICTED BY IDOCK:   -5.52 KCAL/MOL
REMARK 923 INTER-LIGAND FREE ENERGY PREDICTED BY IDOCK:   -5.14 KCAL/MOL
REMARK 924 INTRA-LIGAND FREE ENERGY PREDICTED BY IDOCK:   -0.38 KCAL/MOL
REMARK 927      BINDING AFFINITY PREDICTED BY RF-SCORE:    0.00 PKD
ROOT
HETATM    1  O   UNL     1     -10.986   7.340  66.985  1.00  0.00    -0.358 OA 
HETATM    2  C   UNL     1     -10.366   6.418  67.498  1.00  0.00    -0.196 C  
ENDROOT
BRANCH   2   3
HETATM    3  O   UNL     1     -10.192   6.217  68.832  1.00  0.00    -0.156 OA 
BRANCH   3   4
HETATM    4  O   UNL     1     -11.534   6.167  69.429  1.00  0.00    -0.423 OA 
BRANCH   4   5
HETATM    5  C   UNL     1     -11.377   6.369  70.766  1.00  0.00    -0.350 C  
HETATM    6  O   UNL     1     -10.827   5.618  71.556  1.00  0.00    -0.254 OA 
BRANCH   5   7
HETATM    7  C   UNL     1     -12.042   7.635  71.177  1.00  0.00    -0.322 A  
HETATM    8  C   UNL     1     -12.038  10.021  71.608  1.00  0.00    -0.420 A  
HETATM    9  C   UNL     1     -11.373   8.865  71.182  1.00  0.00    -0.357 A  
HETATM   10  C   UNL     1     -13.369   9.954  72.023  1.00  0.00    -0.532 A  
HETATM   11  C   UNL     1     -14.043   8.733  72.015  1.00  0.00    -0.508 A  
HETATM   12  C   UNL     1     -13.380   7.576  71.598  1.00  0.00    -0.414 A  
ENDBRANCH   5   7
ENDBRANCH   4   5
ENDBRANCH   3   4
ENDBRANCH   2   3
BRANCH   2  13
HETATM   13  C   UNL     1      -9.720   5.335  66.702  1.00  0.00    -0.177 A  
HETATM   14  C   UNL     1      -8.502   4.504  64.772  1.00  0.00    -0.132 A  
HETATM   15  C   UNL     1      -9.776   4.025  67.203  1.00  0.00    -0.207 A  
HETATM   16  C   UNL     1      -9.077   5.568  65.478  1.00  0.00    -0.101 A  
HETATM   17  C   UNL     1      -9.199   2.966  66.497  1.00  0.00    -0.122 A  
HETATM   18  C   UNL     1      -8.563   3.207  65.281  1.00  0.00    -0.109 A  
ENDBRANCH   2  13
TORSDOF 5
ENDMDL
MODEL      189
REMARK 921   NORMALIZED FREE ENERGY PREDICTED BY IDOCK:   -2.67 KCAL/MOL
REMARK 922        TOTAL FREE ENERGY PREDICTED BY IDOCK:   -5.45 KCAL/MOL
REMARK 923 INTER-LIGAND FREE ENERGY PREDICTED BY IDOCK:   -5.04 KCAL/MOL
REMARK 924 INTRA-LIGAND FREE ENERGY PREDICTED BY IDOCK:   -0.41 KCAL/MOL
REMARK 927      BINDING AFFINITY PREDICTED BY RF-SCORE:    0.00 PKD
ROOT
HETATM    1  O   UNL     1      -8.815  10.702  68.287  1.00  0.00    -0.129 OA 
HETATM    2  C   UNL     1      -9.740  10.248  67.627  1.00  0.00    -0.164 C  
ENDROOT
BRANCH   2   3
HETATM    3  O   UNL     1     -10.301   9.018  67.776  1.00  0.00    -0.219 OA 
BRANCH   3   4
HETATM    4  O   UNL     1     -10.743   8.923  69.174  1.00  0.00    -0.217 OA 
BRANCH   4   5
HETATM    5  C   UNL     1     -10.317   7.718  69.640  1.00  0.00    -0.212 C  
HETATM    6  O   UNL     1     -10.408   6.643  69.068  1.00  0.00    -0.171 OA 
BRANCH   5   7
HETATM    7  C   UNL     1      -9.768   7.862  71.016  1.00  0.00    -0.178 A  
HETATM    8  C   UNL     1      -7.966   8.331  72.570  1.00  0.00    -0.192 A  
HETATM    9  C   UNL     1      -8.441   8.241  71.256  1.00  0.00    -0.164 A  
HETATM   10  C   UNL     1      -8.813   8.050  73.644  1.00  0.00    -0.326 A  
HETATM   11  C   UNL     1     -10.137   7.676  73.411  1.00  0.00    -0.379 A  
HETATM   12  C   UNL     1     -10.611   7.578  72.101  1.00  0.00    -0.262 A  
ENDBRANCH   5   7
ENDBRANCH   4   5
ENDBRANCH   3   4
ENDBRANCH   2   3
BRANCH   2  13
HETATM   13  C   UNL     1     -10.423  11.024  66.550  1.00  0.00    -0.309 A  
HETATM   14  C   UNL     1     -12.033  12.657  65.754  1.00  0.00    -0.503 A  
HETATM   15  C   UNL     1     -10.050  10.774  65.220  1.00  0.00    -0.353 A  
HETATM   16  C   UNL     1     -11.421  11.974  66.811  1.00  0.00    -0.410 A  
HETATM   17  C   UNL     1     -10.662  11.461  64.168  1.00  0.00    -0.434 A  
HETATM   18  C   UNL     1     -11.654  12.402  64.436  1.00  0.00    -0.418 A  
ENDBRANCH   2  13
TORSDOF 5
ENDMDL
MODEL      190
REMARK 921   NORMALIZED FREE ENERGY PREDICTED BY IDOCK:   -2.64 KCAL/MOL
REMARK 922        TOTAL FREE ENERGY PREDICTED BY IDOCK:   -5.42 KCAL/MOL
REMARK 923 INTER-LIGAND FREE ENERGY PREDICTED BY IDOCK:   -5.15 KCAL/MOL
REMARK 924 INTRA-LIGAND FREE ENERGY PREDICTED BY IDOCK:   -0.27 KCAL/MOL
REMARK 927      BINDING AFFINITY PREDICTED BY RF-SCORE:    0.00 PKD
ROOT
HETATM    1  O   UNL     1     -11.210  11.353  68.466  1.00  0.00    -0.207 OA 
HETATM    2  C   UNL     1     -10.997  11.305  67.262  1.00  0.00    -0.286 C  
ENDROOT
BRANCH   2   3
HETATM    3  O   UNL     1     -11.361  12.244  66.348  1.00  0.00    -0.315 OA 
BRANCH   3   4
HETATM    4  O   UNL     1     -10.403  13.350  66.475  1.00  0.00    -0.274 OA 
BRANCH   4   5
HETATM    5  C   UNL     1     -11.081  14.398  67.016  1.00  0.00    -0.313 C  
HETATM    6  O   UNL     1     -12.241  14.395  67.397  1.00  0.00    -0.364 OA 
BRANCH   5   7
HETATM    7  C   UNL     1     -10.227  15.616  67.024  1.00  0.00    -0.274 A  
HETATM    8  C   UNL     1      -9.827  17.956  67.521  1.00  0.00    -0.309 A  
HETATM    9  C   UNL     1     -10.660  16.832  67.569  1.00  0.00    -0.309 A  
HETATM   10  C   UNL     1      -8.561  17.869  66.939  1.00  0.00    -0.259 A  
HETATM   11  C   UNL     1      -8.122  16.660  66.399  1.00  0.00    -0.359 A  
HETATM   12  C   UNL     1      -8.954  15.538  66.437  1.00  0.00    -0.359 A  
ENDBRANCH   5   7
ENDBRANCH   4   5
ENDBRANCH   3   4
ENDBRANCH   2   3
BRANCH   2  13
HETATM   13  C   UNL     1     -10.254  10.184  66.616  1.00  0.00    -0.287 A  
HETATM   14  C   UNL     1      -8.928   9.220  64.824  1.00  0.00    -0.217 A  
HETATM   15  C   UNL     1     -10.229   8.943  67.272  1.00  0.00    -0.326 A  
HETATM   16  C   UNL     1      -9.596  10.315  65.385  1.00  0.00    -0.310 A  
HETATM   17  C   UNL     1      -9.560   7.853  66.711  1.00  0.00    -0.278 A  
HETATM   18  C   UNL     1      -8.910   7.993  65.486  1.00  0.00    -0.102 A  
ENDBRANCH   2  13
TORSDOF 5
ENDMDL
MODEL      191
REMARK 921   NORMALIZED FREE ENERGY PREDICTED BY IDOCK:   -2.62 KCAL/MOL
REMARK 922        TOTAL FREE ENERGY PREDICTED BY IDOCK:   -5.39 KCAL/MOL
REMARK 923 INTER-LIGAND FREE ENERGY PREDICTED BY IDOCK:   -4.80 KCAL/MOL
REMARK 924 INTRA-LIGAND FREE ENERGY PREDICTED BY IDOCK:   -0.59 KCAL/MOL
REMARK 927      BINDING AFFINITY PREDICTED BY RF-SCORE:    0.00 PKD
ROOT
HETATM    1  O   UNL     1     -10.689  10.211  67.695  1.00  0.00    -0.246 OA 
HETATM    2  C   UNL     1     -10.641   9.851  68.863  1.00  0.00    -0.218 C  
ENDROOT
BRANCH   2   3
HETATM    3  O   UNL     1      -9.768   8.949  69.387  1.00  0.00    -0.164 OA 
BRANCH   3   4
HETATM    4  O   UNL     1      -9.133   9.599  70.542  1.00  0.00    -0.242 OA 
BRANCH   4   5
HETATM    5  C   UNL     1      -8.273   8.692  71.079  1.00  0.00    -0.150 C  
HETATM    6  O   UNL     1      -7.070   8.623  70.880  1.00  0.00    -0.053 OA 
BRANCH   5   7
HETATM    7  C   UNL     1      -9.015   7.713  71.919  1.00  0.00    -0.149 A  
HETATM    8  C   UNL     1     -10.674   7.142  73.593  1.00  0.00    -0.302 A  
HETATM    9  C   UNL     1     -10.030   8.101  72.802  1.00  0.00    -0.361 A  
HETATM   10  C   UNL     1     -10.313   5.797  73.499  1.00  0.00    -0.252 A  
HETATM   11  C   UNL     1      -9.307   5.403  72.618  1.00  0.00    -0.152 A  
HETATM   12  C   UNL     1      -8.656   6.358  71.833  1.00  0.00    -0.127 A  
ENDBRANCH   5   7
ENDBRANCH   4   5
ENDBRANCH   3   4
ENDBRANCH   2   3
BRANCH   2  13
HETATM   13  C   UNL     1     -11.548  10.396  69.915  1.00  0.00    -0.358 A  
HETATM   14  C   UNL     1     -12.601  12.216  71.128  1.00  0.00    -0.360 A  
HETATM   15  C   UNL     1     -12.217   9.483  70.747  1.00  0.00    -0.269 A  
HETATM   16  C   UNL     1     -11.748  11.769  70.113  1.00  0.00    -0.354 A  
HETATM   17  C   UNL     1     -13.070   9.933  71.758  1.00  0.00    -0.553 A  
HETATM   18  C   UNL     1     -13.261  11.300  71.948  1.00  0.00    -0.491 A  
ENDBRANCH   2  13
TORSDOF 5
ENDMDL
MODEL      192
REMARK 921   NORMALIZED FREE ENERGY PREDICTED BY IDOCK:   -2.62 KCAL/MOL
REMARK 922        TOTAL FREE ENERGY PREDICTED BY IDOCK:   -5.39 KCAL/MOL
REMARK 923 INTER-LIGAND FREE ENERGY PREDICTED BY IDOCK:   -4.51 KCAL/MOL
REMARK 924 INTRA-LIGAND FREE ENERGY PREDICTED BY IDOCK:   -0.88 KCAL/MOL
REMARK 927      BINDING AFFINITY PREDICTED BY RF-SCORE:    0.00 PKD
ROOT
HETATM    1  O   UNL     1      -9.060  12.504  67.499  1.00  0.00    -0.172 OA 
HETATM    2  C   UNL     1      -9.974  11.786  67.119  1.00  0.00    -0.203 C  
ENDROOT
BRANCH   2   3
HETATM    3  O   UNL     1     -10.442  10.682  67.761  1.00  0.00    -0.194 OA 
BRANCH   3   4
HETATM    4  O   UNL     1      -9.313   9.749  67.874  1.00  0.00    -0.128 OA 
BRANCH   4   5
HETATM    5  C   UNL     1      -9.538   8.748  66.981  1.00  0.00    -0.179 C  
HETATM    6  O   UNL     1     -10.471   7.960  66.990  1.00  0.00    -0.315 OA 
BRANCH   5   7
HETATM    7  C   UNL     1      -8.429   8.682  65.991  1.00  0.00    -0.151 A  
HETATM    8  C   UNL     1      -7.286   7.660  64.111  1.00  0.00    -0.080 A  
HETATM    9  C   UNL     1      -8.369   7.696  64.998  1.00  0.00    -0.078 A  
HETATM   10  C   UNL     1      -6.267   8.610  64.209  1.00  0.00    -0.067 A  
HETATM   11  C   UNL     1      -6.323   9.597  65.192  1.00  0.00    -0.083 A  
HETATM   12  C   UNL     1      -7.398   9.630  66.084  1.00  0.00    -0.098 A  
ENDBRANCH   5   7
ENDBRANCH   4   5
ENDBRANCH   3   4
ENDBRANCH   2   3
BRANCH   2  13
HETATM   13  C   UNL     1     -10.746  12.051  65.870  1.00  0.00    -0.314 A  
HETATM   14  C   UNL     1     -12.653  12.939  64.658  1.00  0.00    -0.459 A  
HETATM   15  C   UNL     1     -10.221  11.579  64.657  1.00  0.00    -0.334 A  
HETATM   16  C   UNL     1     -11.970  12.735  65.862  1.00  0.00    -0.506 A  
HETATM   17  C   UNL     1     -10.904  11.786  63.456  1.00  0.00    -0.496 A  
HETATM   18  C   UNL     1     -12.121  12.466  63.458  1.00  0.00    -0.651 A  
ENDBRANCH   2  13
TORSDOF 5
ENDMDL
MODEL      193
REMARK 921   NORMALIZED FREE ENERGY PREDICTED BY IDOCK:   -2.60 KCAL/MOL
REMARK 922        TOTAL FREE ENERGY PREDICTED BY IDOCK:   -5.36 KCAL/MOL
REMARK 923 INTER-LIGAND FREE ENERGY PREDICTED BY IDOCK:   -4.94 KCAL/MOL
REMARK 924 INTRA-LIGAND FREE ENERGY PREDICTED BY IDOCK:   -0.43 KCAL/MOL
REMARK 927      BINDING AFFINITY PREDICTED BY RF-SCORE:    0.00 PKD
ROOT
HETATM    1  O   UNL     1      -6.494  16.806  66.522  1.00  0.00    -0.213 OA 
HETATM    2  C   UNL     1      -7.546  16.797  67.146  1.00  0.00    -0.188 C  
ENDROOT
BRANCH   2   3
HETATM    3  O   UNL     1      -8.036  15.755  67.870  1.00  0.00    -0.137 OA 
BRANCH   3   4
HETATM    4  O   UNL     1      -8.539  14.769  66.903  1.00  0.00    -0.228 OA 
BRANCH   4   5
HETATM    5  C   UNL     1      -8.066  13.555  67.297  1.00  0.00    -0.130 C  
HETATM    6  O   UNL     1      -6.895  13.214  67.353  1.00  0.00    -0.163 OA 
BRANCH   5   7
HETATM    7  C   UNL     1      -9.195  12.635  67.598  1.00  0.00    -0.191 A  
HETATM    8  C   UNL     1     -10.171  10.738  68.752  1.00  0.00    -0.207 A  
HETATM    9  C   UNL     1      -9.087  11.595  68.530  1.00  0.00    -0.157 A  
HETATM   10  C   UNL     1     -11.365  10.920  68.052  1.00  0.00    -0.382 A  
HETATM   11  C   UNL     1     -11.482  11.956  67.126  1.00  0.00    -0.386 A  
HETATM   12  C   UNL     1     -10.399  12.809  66.896  1.00  0.00    -0.245 A  
ENDBRANCH   5   7
ENDBRANCH   4   5
ENDBRANCH   3   4
ENDBRANCH   2   3
BRANCH   2  13
HETATM   13  C   UNL     1      -8.451  17.980  67.225  1.00  0.00    -0.237 A  
HETATM   14  C   UNL     1     -10.627  19.021  67.503  1.00  0.00    -0.546 A  
HETATM   15  C   UNL     1      -7.888  19.254  67.049  1.00  0.00    -0.267 A  
HETATM   16  C   UNL     1      -9.830  17.872  67.454  1.00  0.00    -0.305 A  
HETATM   17  C   UNL     1      -8.686  20.400  67.101  1.00  0.00    -0.413 A  
HETATM   18  C   UNL     1     -10.056  20.282  67.327  1.00  0.00    -0.545 A  
ENDBRANCH   2  13
TORSDOF 5
ENDMDL
MODEL      194
REMARK 921   NORMALIZED FREE ENERGY PREDICTED BY IDOCK:   -2.52 KCAL/MOL
REMARK 922        TOTAL FREE ENERGY PREDICTED BY IDOCK:   -5.26 KCAL/MOL
REMARK 923 INTER-LIGAND FREE ENERGY PREDICTED BY IDOCK:   -4.89 KCAL/MOL
REMARK 924 INTRA-LIGAND FREE ENERGY PREDICTED BY IDOCK:   -0.37 KCAL/MOL
REMARK 927      BINDING AFFINITY PREDICTED BY RF-SCORE:    0.00 PKD
ROOT
HETATM    1  O   UNL     1      -9.521   6.457  67.071  1.00  0.00    -0.130 OA 
HETATM    2  C   UNL     1      -9.853   7.621  67.246  1.00  0.00    -0.186 C  
ENDROOT
BRANCH   2   3
HETATM    3  O   UNL     1     -10.420   8.129  68.373  1.00  0.00    -0.207 OA 
BRANCH   3   4
HETATM    4  O   UNL     1      -9.360   8.196  69.387  1.00  0.00    -0.154 OA 
BRANCH   4   5
HETATM    5  C   UNL     1      -9.869   7.653  70.526  1.00  0.00    -0.183 C  
HETATM    6  O   UNL     1      -9.431   6.686  71.130  1.00  0.00    -0.163 OA 
BRANCH   5   7
HETATM    7  C   UNL     1     -11.114   8.365  70.924  1.00  0.00    -0.289 A  
HETATM    8  C   UNL     1     -12.367  10.377  71.435  1.00  0.00    -0.500 A  
HETATM    9  C   UNL     1     -11.179   9.760  71.024  1.00  0.00    -0.451 A  
HETATM   10  C   UNL     1     -13.491   9.607  71.737  1.00  0.00    -0.477 A  
HETATM   11  C   UNL     1     -13.434   8.217  71.635  1.00  0.00    -0.363 A  
HETATM   12  C   UNL     1     -12.247   7.597  71.234  1.00  0.00    -0.339 A  
ENDBRANCH   5   7
ENDBRANCH   4   5
ENDBRANCH   3   4
ENDBRANCH   2   3
BRANCH   2  13
HETATM   13  C   UNL     1      -9.642   8.686  66.222  1.00  0.00    -0.322 A  
HETATM   14  C   UNL     1     -10.195  10.795  65.154  1.00  0.00    -0.365 A  
HETATM   15  C   UNL     1      -8.610   8.507  65.288  1.00  0.00    -0.192 A  
HETATM   16  C   UNL     1     -10.434   9.840  66.149  1.00  0.00    -0.128 A  
HETATM   17  C   UNL     1      -8.372   9.463  64.297  1.00  0.00    -0.176 A  
HETATM   18  C   UNL     1      -9.166  10.607  64.231  1.00  0.00    -0.265 A  
ENDBRANCH   2  13
TORSDOF 5
ENDMDL
MODEL      195
REMARK 921   NORMALIZED FREE ENERGY PREDICTED BY IDOCK:   -2.50 KCAL/MOL
REMARK 922        TOTAL FREE ENERGY PREDICTED BY IDOCK:   -5.23 KCAL/MOL
REMARK 923 INTER-LIGAND FREE ENERGY PREDICTED BY IDOCK:   -3.47 KCAL/MOL
REMARK 924 INTRA-LIGAND FREE ENERGY PREDICTED BY IDOCK:   -1.76 KCAL/MOL
REMARK 927      BINDING AFFINITY PREDICTED BY RF-SCORE:    0.00 PKD
ROOT
HETATM    1  O   UNL     1      -9.780   5.908  66.402  1.00  0.00    -0.157 OA 
HETATM    2  C   UNL     1     -10.044   7.035  66.797  1.00  0.00    -0.200 C  
ENDROOT
BRANCH   2   3
HETATM    3  O   UNL     1     -11.003   7.359  67.705  1.00  0.00    -0.143 OA 
BRANCH   3   4
HETATM    4  O   UNL     1     -10.330   7.477  69.006  1.00  0.00    -0.204 OA 
BRANCH   4   5
HETATM    5  C   UNL     1     -11.032   8.390  69.730  1.00  0.00    -0.127 C  
HETATM    6  O   UNL     1     -11.837   8.152  70.617  1.00  0.00    -0.221 OA 
BRANCH   5   7
HETATM    7  C   UNL     1     -10.740   9.767  69.246  1.00  0.00    -0.246 A  
HETATM    8  C   UNL     1      -9.222  11.591  68.746  1.00  0.00    -0.076 A  
HETATM    9  C   UNL     1      -9.438  10.277  69.179  1.00  0.00    -0.225 A  
HETATM   10  C   UNL     1     -10.302  12.393  68.372  1.00  0.00    -0.236 A  
HETATM   11  C   UNL     1     -11.601  11.890  68.431  1.00  0.00    -0.376 A  
HETATM   12  C   UNL     1     -11.820  10.582  68.871  1.00  0.00    -0.136 A  
ENDBRANCH   5   7
ENDBRANCH   4   5
ENDBRANCH   3   4
ENDBRANCH   2   3
BRANCH   2  13
HETATM   13  C   UNL     1      -9.302   8.247  66.342  1.00  0.00    -0.274 A  
HETATM   14  C   UNL     1      -9.182  10.463  65.357  1.00  0.00    -0.233 A  
HETATM   15  C   UNL     1      -7.905   8.254  66.477  1.00  0.00    -0.093 A  
HETATM   16  C   UNL     1      -9.937   9.362  65.778  1.00  0.00    -0.278 A  
HETATM   17  C   UNL     1      -7.154   9.355  66.058  1.00  0.00    -0.091 A  
HETATM   18  C   UNL     1      -7.794  10.459  65.498  1.00  0.00    -0.152 A  
ENDBRANCH   2  13
TORSDOF 5
ENDMDL
MODEL      196
REMARK 921   NORMALIZED FREE ENERGY PREDICTED BY IDOCK:   -2.49 KCAL/MOL
REMARK 922        TOTAL FREE ENERGY PREDICTED BY IDOCK:   -5.22 KCAL/MOL
REMARK 923 INTER-LIGAND FREE ENERGY PREDICTED BY IDOCK:   -5.15 KCAL/MOL
REMARK 924 INTRA-LIGAND FREE ENERGY PREDICTED BY IDOCK:   -0.07 KCAL/MOL
REMARK 927      BINDING AFFINITY PREDICTED BY RF-SCORE:    0.00 PKD
ROOT
HETATM    1  O   UNL     1     -12.264  14.019  67.620  1.00  0.00    -0.352 OA 
HETATM    2  C   UNL     1     -11.664  13.744  68.650  1.00  0.00    -0.356 C  
ENDROOT
BRANCH   2   3
HETATM    3  O   UNL     1     -10.375  13.319  68.736  1.00  0.00    -0.221 OA 
BRANCH   3   4
HETATM    4  O   UNL     1      -9.540  14.523  68.838  1.00  0.00    -0.210 OA 
BRANCH   4   5
HETATM    5  C   UNL     1      -8.928  14.680  67.633  1.00  0.00    -0.187 C  
HETATM    6  O   UNL     1      -9.013  15.649  66.894  1.00  0.00    -0.208 OA 
BRANCH   5   7
HETATM    7  C   UNL     1      -8.166  13.452  67.278  1.00  0.00    -0.162 A  
HETATM    8  C   UNL     1      -7.997  11.233  66.315  1.00  0.00    -0.086 A  
HETATM    9  C   UNL     1      -8.752  12.378  66.596  1.00  0.00    -0.119 A  
HETATM   10  C   UNL     1      -6.659  11.160  66.705  1.00  0.00    -0.137 A  
HETATM   11  C   UNL     1      -6.068  12.228  67.379  1.00  0.00    -0.153 A  
HETATM   12  C   UNL     1      -6.821  13.369  67.669  1.00  0.00    -0.172 A  
ENDBRANCH   5   7
ENDBRANCH   4   5
ENDBRANCH   3   4
ENDBRANCH   2   3
BRANCH   2  13
HETATM   13  C   UNL     1     -12.280  13.872  70.004  1.00  0.00    -0.408 A  
HETATM   14  C   UNL     1     -13.160  12.954  72.072  1.00  0.00    -0.483 A  
HETATM   15  C   UNL     1     -12.593  15.160  70.467  1.00  0.00    -0.429 A  
HETATM   16  C   UNL     1     -12.567  12.768  70.818  1.00  0.00    -0.308 A  
HETATM   17  C   UNL     1     -13.182  15.343  71.721  1.00  0.00    -0.544 A  
HETATM   18  C   UNL     1     -13.465  14.239  72.522  1.00  0.00    -0.613 A  
ENDBRANCH   2  13
TORSDOF 5
ENDMDL
MODEL      197
REMARK 921   NORMALIZED FREE ENERGY PREDICTED BY IDOCK:   -2.37 KCAL/MOL
REMARK 922        TOTAL FREE ENERGY PREDICTED BY IDOCK:   -5.06 KCAL/MOL
REMARK 923 INTER-LIGAND FREE ENERGY PREDICTED BY IDOCK:   -4.73 KCAL/MOL
REMARK 924 INTRA-LIGAND FREE ENERGY PREDICTED BY IDOCK:   -0.33 KCAL/MOL
REMARK 927      BINDING AFFINITY PREDICTED BY RF-SCORE:    0.00 PKD
ROOT
HETATM    1  O   UNL     1     -10.222   9.865  70.322  1.00  0.00    -0.267 OA 
HETATM    2  C   UNL     1     -10.370   9.577  69.143  1.00  0.00    -0.207 C  
ENDROOT
BRANCH   2   3
HETATM    3  O   UNL     1     -10.199   8.345  68.593  1.00  0.00    -0.194 OA 
BRANCH   3   4
HETATM    4  O   UNL     1     -10.773   7.378  69.539  1.00  0.00    -0.235 OA 
BRANCH   4   5
HETATM    5  C   UNL     1      -9.735   6.661  70.049  1.00  0.00    -0.162 C  
HETATM    6  O   UNL     1      -8.854   6.104  69.413  1.00  0.00    -0.125 OA 
BRANCH   5   7
HETATM    7  C   UNL     1      -9.845   6.578  71.530  1.00  0.00    -0.182 A  
HETATM    8  C   UNL     1     -10.862   5.735  73.564  1.00  0.00    -0.272 A  
HETATM    9  C   UNL     1     -10.780   5.751  72.167  1.00  0.00    -0.282 A  
HETATM   10  C   UNL     1     -10.010   6.535  74.328  1.00  0.00    -0.362 A  
HETATM   11  C   UNL     1      -9.074   7.357  73.700  1.00  0.00    -0.273 A  
HETATM   12  C   UNL     1      -8.995   7.382  72.306  1.00  0.00    -0.154 A  
ENDBRANCH   5   7
ENDBRANCH   4   5
ENDBRANCH   3   4
ENDBRANCH   2   3
BRANCH   2  13
HETATM   13  C   UNL     1     -10.804  10.569  68.115  1.00  0.00    -0.300 A  
HETATM   14  C   UNL     1     -10.889  11.433  65.848  1.00  0.00    -0.292 A  
HETATM   15  C   UNL     1     -11.577  11.661  68.539  1.00  0.00    -0.379 A  
HETATM   16  C   UNL     1     -10.462  10.461  66.760  1.00  0.00    -0.287 A  
HETATM   17  C   UNL     1     -12.004  12.629  67.625  1.00  0.00    -0.309 A  
HETATM   18  C   UNL     1     -11.658  12.514  66.280  1.00  0.00    -0.449 A  
ENDBRANCH   2  13
TORSDOF 5
ENDMDL
MODEL      198
REMARK 921   NORMALIZED FREE ENERGY PREDICTED BY IDOCK:   -2.34 KCAL/MOL
REMARK 922        TOTAL FREE ENERGY PREDICTED BY IDOCK:   -5.03 KCAL/MOL
REMARK 923 INTER-LIGAND FREE ENERGY PREDICTED BY IDOCK:   -4.71 KCAL/MOL
REMARK 924 INTRA-LIGAND FREE ENERGY PREDICTED BY IDOCK:   -0.32 KCAL/MOL
REMARK 927      BINDING AFFINITY PREDICTED BY RF-SCORE:    0.00 PKD
ROOT
HETATM    1  O   UNL     1      -9.219  10.522  68.809  1.00  0.00    -0.159 OA 
HETATM    2  C   UNL     1      -9.866   9.978  67.924  1.00  0.00    -0.145 C  
ENDROOT
BRANCH   2   3
HETATM    3  O   UNL     1     -10.218   8.665  67.883  1.00  0.00    -0.197 OA 
BRANCH   3   4
HETATM    4  O   UNL     1     -10.048   8.140  69.244  1.00  0.00    -0.191 OA 
BRANCH   4   5
HETATM    5  C   UNL     1     -10.655   6.923  69.275  1.00  0.00    -0.226 C  
HETATM    6  O   UNL     1     -11.579   6.588  69.999  1.00  0.00    -0.407 OA 
BRANCH   5   7
HETATM    7  C   UNL     1      -9.984   5.989  68.330  1.00  0.00    -0.173 A  
HETATM    8  C   UNL     1      -8.076   4.691  67.584  1.00  0.00    -0.100 A  
HETATM    9  C   UNL     1      -8.670   5.544  68.522  1.00  0.00    -0.105 A  
HETATM   10  C   UNL     1      -8.793   4.274  66.461  1.00  0.00    -0.116 A  
HETATM   11  C   UNL     1     -10.103   4.708  66.267  1.00  0.00    -0.292 A  
HETATM   12  C   UNL     1     -10.696   5.567  67.196  1.00  0.00    -0.265 A  
ENDBRANCH   5   7
ENDBRANCH   4   5
ENDBRANCH   3   4
ENDBRANCH   2   3
BRANCH   2  13
HETATM   13  C   UNL     1     -10.400  10.716  66.742  1.00  0.00    -0.299 A  
HETATM   14  C   UNL     1     -11.716  12.475  65.708  1.00  0.00    -0.478 A  
HETATM   15  C   UNL     1     -10.055  10.252  65.463  1.00  0.00    -0.351 A  
HETATM   16  C   UNL     1     -11.236  11.836  66.857  1.00  0.00    -0.387 A  
HETATM   17  C   UNL     1     -10.534  10.894  64.318  1.00  0.00    -0.405 A  
HETATM   18  C   UNL     1     -11.365  12.005  64.442  1.00  0.00    -0.411 A  
ENDBRANCH   2  13
TORSDOF 5
ENDMDL
MODEL      199
REMARK 921   NORMALIZED FREE ENERGY PREDICTED BY IDOCK:   -2.29 KCAL/MOL
REMARK 922        TOTAL FREE ENERGY PREDICTED BY IDOCK:   -4.96 KCAL/MOL
REMARK 923 INTER-LIGAND FREE ENERGY PREDICTED BY IDOCK:   -4.53 KCAL/MOL
REMARK 924 INTRA-LIGAND FREE ENERGY PREDICTED BY IDOCK:   -0.43 KCAL/MOL
REMARK 927      BINDING AFFINITY PREDICTED BY RF-SCORE:    0.00 PKD
ROOT
HETATM    1  O   UNL     1      -9.030   6.060  68.349  1.00  0.00    -0.115 OA 
HETATM    2  C   UNL     1      -9.334   7.151  68.812  1.00  0.00    -0.135 C  
ENDROOT
BRANCH   2   3
HETATM    3  O   UNL     1      -9.714   7.397  70.095  1.00  0.00    -0.175 OA 
BRANCH   3   4
HETATM    4  O   UNL     1     -11.178   7.269  70.132  1.00  0.00    -0.269 OA 
BRANCH   4   5
HETATM    5  C   UNL     1     -11.581   7.724  71.350  1.00  0.00    -0.276 C  
HETATM    6  O   UNL     1     -12.149   8.780  71.581  1.00  0.00    -0.298 OA 
BRANCH   5   7
HETATM    7  C   UNL     1     -11.170   6.772  72.417  1.00  0.00    -0.300 A  
HETATM    8  C   UNL     1     -11.228   4.602  73.499  1.00  0.00    -0.400 A  
HETATM    9  C   UNL     1     -11.621   5.447  72.453  1.00  0.00    -0.167 A  
HETATM   10  C   UNL     1     -10.381   5.075  74.503  1.00  0.00    -0.315 A  
HETATM   11  C   UNL     1      -9.924   6.392  74.470  1.00  0.00    -0.370 A  
HETATM   12  C   UNL     1     -10.321   7.240  73.432  1.00  0.00    -0.410 A  
ENDBRANCH   5   7
ENDBRANCH   4   5
ENDBRANCH   3   4
ENDBRANCH   2   3
BRANCH   2  13
HETATM   13  C   UNL     1      -9.296   8.409  68.011  1.00  0.00    -0.146 A  
HETATM   14  C   UNL     1      -8.688  10.735  67.669  1.00  0.00    -0.126 A  
HETATM   15  C   UNL     1      -9.925   8.411  66.756  1.00  0.00    -0.354 A  
HETATM   16  C   UNL     1      -8.675   9.582  68.463  1.00  0.00    -0.124 A  
HETATM   17  C   UNL     1      -9.933   9.563  65.965  1.00  0.00    -0.348 A  
HETATM   18  C   UNL     1      -9.315  10.724  66.423  1.00  0.00    -0.198 A  
ENDBRANCH   2  13
TORSDOF 5
ENDMDL
MODEL      200
REMARK 921   NORMALIZED FREE ENERGY PREDICTED BY IDOCK:   -2.27 KCAL/MOL
REMARK 922        TOTAL FREE ENERGY PREDICTED BY IDOCK:   -4.93 KCAL/MOL
REMARK 923 INTER-LIGAND FREE ENERGY PREDICTED BY IDOCK:   -4.49 KCAL/MOL
REMARK 924 INTRA-LIGAND FREE ENERGY PREDICTED BY IDOCK:   -0.44 KCAL/MOL
REMARK 927      BINDING AFFINITY PREDICTED BY RF-SCORE:    0.00 PKD
ROOT
HETATM    1  O   UNL     1     -10.225   9.251  66.209  1.00  0.00    -0.273 OA 
HETATM    2  C   UNL     1      -9.903   9.843  67.229  1.00  0.00    -0.182 C  
ENDROOT
BRANCH   2   3
HETATM    3  O   UNL     1      -9.216  11.016  67.290  1.00  0.00    -0.148 OA 
BRANCH   3   4
HETATM    4  O   UNL     1      -9.904  11.955  66.394  1.00  0.00    -0.204 OA 
BRANCH   4   5
HETATM    5  C   UNL     1     -10.339  12.988  67.165  1.00  0.00    -0.243 C  
HETATM    6  O   UNL     1     -11.368  13.023  67.822  1.00  0.00    -0.260 OA 
BRANCH   5   7
HETATM    7  C   UNL     1      -9.407  14.143  67.053  1.00  0.00    -0.253 A  
HETATM    8  C   UNL     1      -7.351  15.304  67.604  1.00  0.00    -0.201 A  
HETATM    9  C   UNL     1      -8.176  14.179  67.718  1.00  0.00    -0.172 A  
HETATM   10  C   UNL     1      -7.749  16.390  66.821  1.00  0.00    -0.298 A  
HETATM   11  C   UNL     1      -8.972  16.358  66.152  1.00  0.00    -0.367 A  
HETATM   12  C   UNL     1      -9.801  15.240  66.271  1.00  0.00    -0.316 A  
ENDBRANCH   5   7
ENDBRANCH   4   5
ENDBRANCH   3   4
ENDBRANCH   2   3
BRANCH   2  13
HETATM   13  C   UNL     1     -10.260   9.358  68.594  1.00  0.00    -0.222 A  
HETATM   14  C   UNL     1     -11.319   9.601  70.765  1.00  0.00    -0.409 A  
HETATM   15  C   UNL     1      -9.786   8.097  68.990  1.00  0.00    -0.163 A  
HETATM   16  C   UNL     1     -11.031  10.108  69.493  1.00  0.00    -0.295 A  
HETATM   17  C   UNL     1     -10.077   7.593  70.261  1.00  0.00    -0.198 A  
HETATM   18  C   UNL     1     -10.843   8.347  71.147  1.00  0.00    -0.286 A  
ENDBRANCH   2  13
TORSDOF 5
ENDMDL
MODEL      201
REMARK 921   NORMALIZED FREE ENERGY PREDICTED BY IDOCK:   -1.91 KCAL/MOL
REMARK 922        TOTAL FREE ENERGY PREDICTED BY IDOCK:   -4.48 KCAL/MOL
REMARK 923 INTER-LIGAND FREE ENERGY PREDICTED BY IDOCK:   -4.15 KCAL/MOL
REMARK 924 INTRA-LIGAND FREE ENERGY PREDICTED BY IDOCK:   -0.33 KCAL/MOL
REMARK 927      BINDING AFFINITY PREDICTED BY RF-SCORE:    0.00 PKD
ROOT
HETATM    1  O   UNL     1      -7.494   9.263  68.601  1.00  0.00    -0.078 OA 
HETATM    2  C   UNL     1      -8.529   9.023  67.995  1.00  0.00    -0.125 C  
ENDROOT
BRANCH   2   3
HETATM    3  O   UNL     1      -9.645   8.448  68.517  1.00  0.00    -0.146 OA 
BRANCH   3   4
HETATM    4  O   UNL     1      -9.507   6.999  68.315  1.00  0.00    -0.130 OA 
BRANCH   4   5
HETATM    5  C   UNL     1      -9.227   6.457  69.532  1.00  0.00    -0.144 C  
HETATM    6  O   UNL     1      -8.325   5.677  69.791  1.00  0.00    -0.104 OA 
BRANCH   5   7
HETATM    7  C   UNL     1     -10.236   6.895  70.534  1.00  0.00    -0.209 A  
HETATM    8  C   UNL     1     -12.500   7.002  71.397  1.00  0.00    -0.426 A  
HETATM    9  C   UNL     1     -11.587   6.536  70.444  1.00  0.00    -0.470 A  
HETATM   10  C   UNL     1     -12.068   7.819  72.444  1.00  0.00    -0.297 A  
HETATM   11  C   UNL     1     -10.723   8.176  72.543  1.00  0.00    -0.419 A  
HETATM   12  C   UNL     1      -9.811   7.719  71.588  1.00  0.00    -0.201 A  
ENDBRANCH   5   7
ENDBRANCH   4   5
ENDBRANCH   3   4
ENDBRANCH   2   3
BRANCH   2  13
HETATM   13  C   UNL     1      -8.724   9.370  66.557  1.00  0.00    -0.148 A  
HETATM   14  C   UNL     1      -8.083   9.317  64.215  1.00  0.00    -0.144 A  
HETATM   15  C   UNL     1      -9.827  10.168  66.215  1.00  0.00    -0.288 A  
HETATM   16  C   UNL     1      -7.852   8.945  65.545  1.00  0.00    -0.100 A  
HETATM   17  C   UNL     1     -10.056  10.536  64.886  1.00  0.00    -0.403 A  
HETATM   18  C   UNL     1      -9.183  10.110  63.887  1.00  0.00    -0.322 A  
ENDBRANCH   2  13
TORSDOF 5
ENDMDL
MODEL      202
REMARK 921   NORMALIZED FREE ENERGY PREDICTED BY IDOCK:   -1.88 KCAL/MOL
REMARK 922        TOTAL FREE ENERGY PREDICTED BY IDOCK:   -4.44 KCAL/MOL
REMARK 923 INTER-LIGAND FREE ENERGY PREDICTED BY IDOCK:   -3.69 KCAL/MOL
REMARK 924 INTRA-LIGAND FREE ENERGY PREDICTED BY IDOCK:   -0.75 KCAL/MOL
REMARK 927      BINDING AFFINITY PREDICTED BY RF-SCORE:    0.00 PKD
ROOT
HETATM    1  O   UNL     1     -10.686  12.520  68.489  1.00  0.00    -0.228 OA 
HETATM    2  C   UNL     1     -10.014  11.501  68.569  1.00  0.00    -0.204 C  
ENDROOT
BRANCH   2   3
HETATM    3  O   UNL     1      -8.783  11.311  68.021  1.00  0.00    -0.133 OA 
BRANCH   3   4
HETATM    4  O   UNL     1      -8.770  12.043  66.747  1.00  0.00    -0.192 OA 
BRANCH   4   5
HETATM    5  C   UNL     1      -9.216  11.181  65.794  1.00  0.00    -0.215 C  
HETATM    6  O   UNL     1     -10.284  11.236  65.205  1.00  0.00    -0.249 OA 
BRANCH   5   7
HETATM    7  C   UNL     1      -8.235  10.080  65.596  1.00  0.00    -0.143 A  
HETATM    8  C   UNL     1      -5.994   9.248  65.187  1.00  0.00    -0.060 A  
HETATM    9  C   UNL     1      -6.869  10.319  65.401  1.00  0.00    -0.140 A  
HETATM   10  C   UNL     1      -6.477   7.938  65.175  1.00  0.00    -0.044 A  
HETATM   11  C   UNL     1      -7.836   7.692  65.373  1.00  0.00    -0.115 A  
HETATM   12  C   UNL     1      -8.713   8.760  65.579  1.00  0.00    -0.217 A  
ENDBRANCH   5   7
ENDBRANCH   4   5
ENDBRANCH   3   4
ENDBRANCH   2   3
BRANCH   2  13
HETATM   13  C   UNL     1     -10.456  10.297  69.330  1.00  0.00    -0.259 A  
HETATM   14  C   UNL     1     -11.555   9.208  71.201  1.00  0.00    -0.386 A  
HETATM   15  C   UNL     1     -10.113   9.034  68.824  1.00  0.00    -0.214 A  
HETATM   16  C   UNL     1     -11.183  10.376  70.526  1.00  0.00    -0.395 A  
HETATM   17  C   UNL     1     -10.488   7.869  69.499  1.00  0.00    -0.226 A  
HETATM   18  C   UNL     1     -11.209   7.958  70.688  1.00  0.00    -0.269 A  
ENDBRANCH   2  13
TORSDOF 5
ENDMDL
MODEL      203
REMARK 921   NORMALIZED FREE ENERGY PREDICTED BY IDOCK:   -1.82 KCAL/MOL
REMARK 922        TOTAL FREE ENERGY PREDICTED BY IDOCK:   -4.36 KCAL/MOL
REMARK 923 INTER-LIGAND FREE ENERGY PREDICTED BY IDOCK:   -3.97 KCAL/MOL
REMARK 924 INTRA-LIGAND FREE ENERGY PREDICTED BY IDOCK:   -0.39 KCAL/MOL
REMARK 927      BINDING AFFINITY PREDICTED BY RF-SCORE:    0.00 PKD
ROOT
HETATM    1  O   UNL     1     -11.004   6.514  67.621  1.00  0.00    -0.304 OA 
HETATM    2  C   UNL     1     -10.905   7.388  68.472  1.00  0.00    -0.026 C  
ENDROOT
BRANCH   2   3
HETATM    3  O   UNL     1     -10.828   8.725  68.239  1.00  0.00    -0.111 OA 
BRANCH   3   4
HETATM    4  O   UNL     1      -9.692   8.931  67.330  1.00  0.00    -0.159 OA 
BRANCH   4   5
HETATM    5  C   UNL     1      -8.964   9.962  67.839  1.00  0.00    -0.128 C  
HETATM    6  O   UNL     1      -7.933   9.874  68.488  1.00  0.00    -0.084 OA 
BRANCH   5   7
HETATM    7  C   UNL     1      -9.638  11.258  67.556  1.00  0.00    -0.181 A  
HETATM    8  C   UNL     1     -10.145  13.147  66.122  1.00  0.00    -0.291 A  
HETATM    9  C   UNL     1      -9.515  11.913  66.324  1.00  0.00    -0.238 A  
HETATM   10  C   UNL     1     -10.902  13.724  67.142  1.00  0.00    -0.288 A  
HETATM   11  C   UNL     1     -11.032  13.075  68.370  1.00  0.00    -0.288 A  
HETATM   12  C   UNL     1     -10.398  11.848  68.578  1.00  0.00    -0.228 A  
ENDBRANCH   5   7
ENDBRANCH   4   5
ENDBRANCH   3   4
ENDBRANCH   2   3
BRANCH   2  13
HETATM   13  C   UNL     1     -10.885   7.094  69.935  1.00  0.00    -0.276 A  
HETATM   14  C   UNL     1     -11.944   6.454  72.024  1.00  0.00    -0.375 A  
HETATM   15  C   UNL     1      -9.668   7.236  70.620  1.00  0.00    -0.175 A  
HETATM   16  C   UNL     1     -12.026   6.700  70.649  1.00  0.00    -0.404 A  
HETATM   17  C   UNL     1      -9.589   6.987  71.992  1.00  0.00    -0.149 A  
HETATM   18  C   UNL     1     -10.728   6.596  72.694  1.00  0.00    -0.265 A  
ENDBRANCH   2  13
TORSDOF 5
ENDMDL
MODEL      204
REMARK 921   NORMALIZED FREE ENERGY PREDICTED BY IDOCK:   -1.82 KCAL/MOL
REMARK 922        TOTAL FREE ENERGY PREDICTED BY IDOCK:   -4.35 KCAL/MOL
REMARK 923 INTER-LIGAND FREE ENERGY PREDICTED BY IDOCK:   -4.43 KCAL/MOL
REMARK 924 INTRA-LIGAND FREE ENERGY PREDICTED BY IDOCK:    0.08 KCAL/MOL
REMARK 927      BINDING AFFINITY PREDICTED BY RF-SCORE:    0.00 PKD
ROOT
HETATM    1  O   UNL     1     -10.569   8.858  67.103  1.00  0.00    -0.286 OA 
HETATM    2  C   UNL     1     -10.125   9.995  67.019  1.00  0.00    -0.219 C  
ENDROOT
BRANCH   2   3
HETATM    3  O   UNL     1     -10.660  11.010  66.288  1.00  0.00    -0.254 OA 
BRANCH   3   4
HETATM    4  O   UNL     1     -10.600  10.593  64.880  1.00  0.00    -0.279 OA 
BRANCH   4   5
HETATM    5  C   UNL     1     -10.421  11.723  64.143  1.00  0.00    -0.346 C  
HETATM    6  O   UNL     1      -9.996  11.787  63.001  1.00  0.00    -0.396 OA 
BRANCH   5   7
HETATM    7  C   UNL     1     -10.756  12.925  64.954  1.00  0.00    -0.333 A  
HETATM    8  C   UNL     1     -10.173  15.014  66.040  1.00  0.00    -0.318 A  
HETATM    9  C   UNL     1      -9.813  13.919  65.245  1.00  0.00    -0.170 A  
HETATM   10  C   UNL     1     -11.472  15.124  66.538  1.00  0.00    -0.171 A  
HETATM   11  C   UNL     1     -12.418  14.140  66.248  1.00  0.00    -0.395 A  
HETATM   12  C   UNL     1     -12.060  13.042  65.462  1.00  0.00    -0.501 A  
ENDBRANCH   5   7
ENDBRANCH   4   5
ENDBRANCH   3   4
ENDBRANCH   2   3
BRANCH   2  13
HETATM   13  C   UNL     1      -8.911  10.446  67.759  1.00  0.00    -0.128 A  
HETATM   14  C   UNL     1      -6.856  11.723  67.963  1.00  0.00    -0.074 A  
HETATM   15  C   UNL     1      -8.688   9.923  69.043  1.00  0.00    -0.151 A  
HETATM   16  C   UNL     1      -7.984  11.352  67.223  1.00  0.00    -0.149 A  
HETATM   17  C   UNL     1      -7.562  10.299  69.780  1.00  0.00    -0.168 A  
HETATM   18  C   UNL     1      -6.647  11.199  69.239  1.00  0.00    -0.096 A  
ENDBRANCH   2  13
TORSDOF 5
ENDMDL
MODEL      205
REMARK 921   NORMALIZED FREE ENERGY PREDICTED BY IDOCK:   -1.80 KCAL/MOL
REMARK 922        TOTAL FREE ENERGY PREDICTED BY IDOCK:   -4.32 KCAL/MOL
REMARK 923 INTER-LIGAND FREE ENERGY PREDICTED BY IDOCK:   -4.07 KCAL/MOL
REMARK 924 INTRA-LIGAND FREE ENERGY PREDICTED BY IDOCK:   -0.25 KCAL/MOL
REMARK 927      BINDING AFFINITY PREDICTED BY RF-SCORE:    0.00 PKD
ROOT
HETATM    1  O   UNL     1     -10.502   8.754  67.771  1.00  0.00    -0.235 OA 
HETATM    2  C   UNL     1      -9.379   8.693  67.290  1.00  0.00    -0.152 C  
ENDROOT
BRANCH   2   3
HETATM    3  O   UNL     1      -8.355   9.552  67.540  1.00  0.00    -0.123 OA 
BRANCH   3   4
HETATM    4  O   UNL     1      -8.370  10.552  66.463  1.00  0.00    -0.133 OA 
BRANCH   4   5
HETATM    5  C   UNL     1      -8.942  11.674  66.976  1.00  0.00    -0.182 C  
HETATM    6  O   UNL     1      -8.775  12.129  68.097  1.00  0.00    -0.174 OA 
BRANCH   5   7
HETATM    7  C   UNL     1      -9.885  12.269  65.991  1.00  0.00    -0.263 A  
HETATM    8  C   UNL     1     -11.550  12.094  64.236  1.00  0.00    -0.444 A  
HETATM    9  C   UNL     1     -10.704  11.484  65.170  1.00  0.00    -0.348 A  
HETATM   10  C   UNL     1     -11.587  13.485  64.126  1.00  0.00    -0.415 A  
HETATM   11  C   UNL     1     -10.778  14.273  64.944  1.00  0.00    -0.448 A  
HETATM   12  C   UNL     1      -9.925  13.667  65.871  1.00  0.00    -0.304 A  
ENDBRANCH   5   7
ENDBRANCH   4   5
ENDBRANCH   3   4
ENDBRANCH   2   3
BRANCH   2  13
HETATM   13  C   UNL     1      -8.957   7.610  66.354  1.00  0.00    -0.198 A  
HETATM   14  C   UNL     1      -8.664   5.280  65.737  1.00  0.00    -0.143 A  
HETATM   15  C   UNL     1      -8.386   7.985  65.127  1.00  0.00    -0.139 A  
HETATM   16  C   UNL     1      -9.094   6.248  66.652  1.00  0.00    -0.152 A  
HETATM   17  C   UNL     1      -7.961   7.017  64.214  1.00  0.00    -0.091 A  
HETATM   18  C   UNL     1      -8.100   5.665  64.520  1.00  0.00    -0.131 A  
ENDBRANCH   2  13
TORSDOF 5
ENDMDL
MODEL      206
REMARK 921   NORMALIZED FREE ENERGY PREDICTED BY IDOCK:   -1.76 KCAL/MOL
REMARK 922        TOTAL FREE ENERGY PREDICTED BY IDOCK:   -4.28 KCAL/MOL
REMARK 923 INTER-LIGAND FREE ENERGY PREDICTED BY IDOCK:   -3.95 KCAL/MOL
REMARK 924 INTRA-LIGAND FREE ENERGY PREDICTED BY IDOCK:   -0.33 KCAL/MOL
REMARK 927      BINDING AFFINITY PREDICTED BY RF-SCORE:    0.00 PKD
ROOT
HETATM    1  O   UNL     1     -10.771   9.354  66.760  1.00  0.00    -0.175 OA 
HETATM    2  C   UNL     1     -10.114  10.281  67.212  1.00  0.00    -0.203 C  
ENDROOT
BRANCH   2   3
HETATM    3  O   UNL     1     -10.203  11.584  66.832  1.00  0.00    -0.208 OA 
BRANCH   3   4
HETATM    4  O   UNL     1     -10.353  12.373  68.063  1.00  0.00    -0.204 OA 
BRANCH   4   5
HETATM    5  C   UNL     1     -11.056  13.489  67.731  1.00  0.00    -0.268 C  
HETATM    6  O   UNL     1     -12.270  13.620  67.758  1.00  0.00    -0.321 OA 
BRANCH   5   7
HETATM    7  C   UNL     1     -10.136  14.553  67.245  1.00  0.00    -0.247 A  
HETATM    8  C   UNL     1      -9.669  16.598  66.028  1.00  0.00    -0.306 A  
HETATM    9  C   UNL     1     -10.584  15.642  66.487  1.00  0.00    -0.307 A  
HETATM   10  C   UNL     1      -8.312  16.474  66.330  1.00  0.00    -0.364 A  
HETATM   11  C   UNL     1      -7.860  15.394  67.089  1.00  0.00    -0.249 A  
HETATM   12  C   UNL     1      -8.769  14.434  67.541  1.00  0.00    -0.203 A  
ENDBRANCH   5   7
ENDBRANCH   4   5
ENDBRANCH   3   4
ENDBRANCH   2   3
BRANCH   2  13
HETATM   13  C   UNL     1      -9.111  10.106  68.303  1.00  0.00    -0.122 A  
HETATM   14  C   UNL     1      -8.449   9.438  70.542  1.00  0.00    -0.251 A  
HETATM   15  C   UNL     1      -7.792  10.519  68.059  1.00  0.00    -0.105 A  
HETATM   16  C   UNL     1      -9.433   9.562  69.555  1.00  0.00    -0.195 A  
HETATM   17  C   UNL     1      -6.811  10.391  69.045  1.00  0.00    -0.064 A  
HETATM   18  C   UNL     1      -7.140   9.851  70.287  1.00  0.00    -0.155 A  
ENDBRANCH   2  13
TORSDOF 5
ENDMDL
MODEL      207
REMARK 921   NORMALIZED FREE ENERGY PREDICTED BY IDOCK:   -1.68 KCAL/MOL
REMARK 922        TOTAL FREE ENERGY PREDICTED BY IDOCK:   -4.17 KCAL/MOL
REMARK 923 INTER-LIGAND FREE ENERGY PREDICTED BY IDOCK:   -3.49 KCAL/MOL
REMARK 924 INTRA-LIGAND FREE ENERGY PREDICTED BY IDOCK:   -0.68 KCAL/MOL
REMARK 927      BINDING AFFINITY PREDICTED BY RF-SCORE:    0.00 PKD
ROOT
HETATM    1  O   UNL     1     -10.495   8.262  67.055  1.00  0.00    -0.310 OA 
HETATM    2  C   UNL     1     -10.683   7.058  67.162  1.00  0.00    -0.363 C  
ENDROOT
BRANCH   2   3
HETATM    3  O   UNL     1     -11.637   6.463  67.927  1.00  0.00     0.034 OA 
BRANCH   3   4
HETATM    4  O   UNL     1     -10.931   5.718  68.978  1.00  0.00    -0.304 OA 
BRANCH   4   5
HETATM    5  C   UNL     1     -11.062   6.436  70.126  1.00  0.00    -0.365 C  
HETATM    6  O   UNL     1     -12.107   6.812  70.634  1.00  0.00    -0.392 OA 
BRANCH   5   7
HETATM    7  C   UNL     1      -9.722   6.781  70.674  1.00  0.00    -0.180 A  
HETATM    8  C   UNL     1      -8.277   7.764  72.356  1.00  0.00    -0.155 A  
HETATM    9  C   UNL     1      -9.560   7.434  71.902  1.00  0.00    -0.174 A  
HETATM   10  C   UNL     1      -7.156   7.436  71.592  1.00  0.00    -0.062 A  
HETATM   11  C   UNL     1      -7.310   6.780  70.370  1.00  0.00    -0.081 A  
HETATM   12  C   UNL     1      -8.589   6.458  69.910  1.00  0.00    -0.138 A  
ENDBRANCH   5   7
ENDBRANCH   4   5
ENDBRANCH   3   4
ENDBRANCH   2   3
BRANCH   2  13
HETATM   13  C   UNL     1      -9.881   6.044  66.416  1.00  0.00    -0.155 A  
HETATM   14  C   UNL     1      -9.609   3.916  65.281  1.00  0.00    -0.185 A  
HETATM   15  C   UNL     1      -8.526   6.322  66.176  1.00  0.00    -0.138 A  
HETATM   16  C   UNL     1     -10.418   4.832  65.962  1.00  0.00    -0.332 A  
HETATM   17  C   UNL     1      -7.721   5.406  65.493  1.00  0.00    -0.091 A  
HETATM   18  C   UNL     1      -8.264   4.203  65.047  1.00  0.00    -0.102 A  
ENDBRANCH   2  13
TORSDOF 5
ENDMDL
MODEL      208
REMARK 921   NORMALIZED FREE ENERGY PREDICTED BY IDOCK:   -1.66 KCAL/MOL
REMARK 922        TOTAL FREE ENERGY PREDICTED BY IDOCK:   -4.15 KCAL/MOL
REMARK 923 INTER-LIGAND FREE ENERGY PREDICTED BY IDOCK:   -4.39 KCAL/MOL
REMARK 924 INTRA-LIGAND FREE ENERGY PREDICTED BY IDOCK:    0.24 KCAL/MOL
REMARK 927      BINDING AFFINITY PREDICTED BY RF-SCORE:    0.00 PKD
ROOT
HETATM    1  O   UNL     1     -10.532   7.536  67.257  1.00  0.00    -0.262 OA 
HETATM    2  C   UNL     1     -10.030   8.607  67.572  1.00  0.00    -0.199 C  
ENDROOT
BRANCH   2   3
HETATM    3  O   UNL     1     -10.299   9.813  67.003  1.00  0.00    -0.224 OA 
BRANCH   3   4
HETATM    4  O   UNL     1     -10.323   9.598  65.549  1.00  0.00    -0.130 OA 
BRANCH   4   5
HETATM    5  C   UNL     1      -9.823  10.727  64.977  1.00  0.00    -0.288 C  
HETATM    6  O   UNL     1      -8.757  10.836  64.392  1.00  0.00    -0.164 OA 
BRANCH   5   7
HETATM    7  C   UNL     1     -10.739  11.875  65.219  1.00  0.00    -0.331 A  
HETATM    8  C   UNL     1     -12.251  13.613  64.459  1.00  0.00    -0.444 A  
HETATM    9  C   UNL     1     -11.426  12.516  64.180  1.00  0.00    -0.449 A  
HETATM   10  C   UNL     1     -12.396  14.066  65.771  1.00  0.00    -0.506 A  
HETATM   11  C   UNL     1     -11.718  13.430  66.811  1.00  0.00    -0.429 A  
HETATM   12  C   UNL     1     -10.888  12.340  66.535  1.00  0.00    -0.297 A  
ENDBRANCH   5   7
ENDBRANCH   4   5
ENDBRANCH   3   4
ENDBRANCH   2   3
BRANCH   2  13
HETATM   13  C   UNL     1      -9.043   8.744  68.682  1.00  0.00    -0.141 A  
HETATM   14  C   UNL     1      -6.977   9.580  69.645  1.00  0.00    -0.066 A  
HETATM   15  C   UNL     1      -9.304   8.066  69.883  1.00  0.00    -0.156 A  
HETATM   16  C   UNL     1      -7.871   9.504  68.570  1.00  0.00    -0.085 A  
HETATM   17  C   UNL     1      -8.411   8.146  70.955  1.00  0.00    -0.129 A  
HETATM   18  C   UNL     1      -7.247   8.903  70.834  1.00  0.00    -0.093 A  
ENDBRANCH   2  13
TORSDOF 5
ENDMDL
MODEL      209
REMARK 921   NORMALIZED FREE ENERGY PREDICTED BY IDOCK:   -1.50 KCAL/MOL
REMARK 922        TOTAL FREE ENERGY PREDICTED BY IDOCK:   -3.94 KCAL/MOL
REMARK 923 INTER-LIGAND FREE ENERGY PREDICTED BY IDOCK:   -3.18 KCAL/MOL
REMARK 924 INTRA-LIGAND FREE ENERGY PREDICTED BY IDOCK:   -0.76 KCAL/MOL
REMARK 927      BINDING AFFINITY PREDICTED BY RF-SCORE:    0.00 PKD
ROOT
HETATM    1  O   UNL     1     -10.339   7.980  67.562  1.00  0.00    -0.221 OA 
HETATM    2  C   UNL     1     -10.030   7.048  68.291  1.00  0.00    -0.153 C  
ENDROOT
BRANCH   2   3
HETATM    3  O   UNL     1     -10.780   6.547  69.310  1.00  0.00    -0.228 OA 
BRANCH   3   4
HETATM    4  O   UNL     1     -11.265   7.699  70.082  1.00  0.00    -0.254 OA 
BRANCH   4   5
HETATM    5  C   UNL     1     -10.389   7.883  71.106  1.00  0.00    -0.200 C  
HETATM    6  O   UNL     1      -9.668   8.853  71.283  1.00  0.00    -0.235 OA 
BRANCH   5   7
HETATM    7  C   UNL     1     -10.365   6.682  71.985  1.00  0.00    -0.218 A  
HETATM    8  C   UNL     1      -9.203   4.987  73.273  1.00  0.00    -0.131 A  
HETATM    9  C   UNL     1      -9.171   6.138  72.476  1.00  0.00    -0.137 A  
HETATM   10  C   UNL     1     -10.422   4.384  73.587  1.00  0.00    -0.276 A  
HETATM   11  C   UNL     1     -11.614   4.924  73.105  1.00  0.00    -0.300 A  
HETATM   12  C   UNL     1     -11.586   6.067  72.303  1.00  0.00    -0.359 A  
ENDBRANCH   5   7
ENDBRANCH   4   5
ENDBRANCH   3   4
ENDBRANCH   2   3
BRANCH   2  13
HETATM   13  C   UNL     1      -8.756   6.286  68.136  1.00  0.00    -0.115 A  
HETATM   14  C   UNL     1      -6.705   5.724  66.966  1.00  0.00    -0.062 A  
HETATM   15  C   UNL     1      -8.440   5.324  69.108  1.00  0.00    -0.098 A  
HETATM   16  C   UNL     1      -7.877   6.481  67.061  1.00  0.00    -0.108 A  
HETATM   17  C   UNL     1      -7.267   4.571  69.011  1.00  0.00    -0.052 A  
HETATM   18  C   UNL     1      -6.401   4.771  67.939  1.00  0.00    -0.037 A  
ENDBRANCH   2  13
TORSDOF 5
ENDMDL
MODEL      210
REMARK 921   NORMALIZED FREE ENERGY PREDICTED BY IDOCK:   -1.43 KCAL/MOL
REMARK 922        TOTAL FREE ENERGY PREDICTED BY IDOCK:   -3.84 KCAL/MOL
REMARK 923 INTER-LIGAND FREE ENERGY PREDICTED BY IDOCK:   -3.36 KCAL/MOL
REMARK 924 INTRA-LIGAND FREE ENERGY PREDICTED BY IDOCK:   -0.49 KCAL/MOL
REMARK 927      BINDING AFFINITY PREDICTED BY RF-SCORE:    0.00 PKD
ROOT
HETATM    1  O   UNL     1     -10.869   7.551  66.777  1.00  0.00    -0.292 OA 
HETATM    2  C   UNL     1     -10.324   6.487  67.038  1.00  0.00    -0.253 C  
ENDROOT
BRANCH   2   3
HETATM    3  O   UNL     1     -10.795   5.536  67.888  1.00  0.00    -0.162 OA 
BRANCH   3   4
HETATM    4  O   UNL     1     -10.333   5.905  69.233  1.00  0.00    -0.198 OA 
BRANCH   4   5
HETATM    5  C   UNL     1      -9.805   4.782  69.790  1.00  0.00    -0.218 C  
HETATM    6  O   UNL     1      -9.115   3.945  69.228  1.00  0.00    -0.105 OA 
BRANCH   5   7
HETATM    7  C   UNL     1     -10.243   4.654  71.207  1.00  0.00    -0.205 A  
HETATM    8  C   UNL     1     -11.124   5.568  73.273  1.00  0.00    -0.322 A  
HETATM    9  C   UNL     1     -10.757   5.736  71.932  1.00  0.00    -0.297 A  
HETATM   10  C   UNL     1     -10.988   4.323  73.888  1.00  0.00    -0.304 A  
HETATM   11  C   UNL     1     -10.482   3.240  73.169  1.00  0.00    -0.254 A  
HETATM   12  C   UNL     1     -10.106   3.406  71.834  1.00  0.00    -0.156 A  
ENDBRANCH   5   7
ENDBRANCH   4   5
ENDBRANCH   3   4
ENDBRANCH   2   3
BRANCH   2  13
HETATM   13  C   UNL     1      -9.037   6.063  66.414  1.00  0.00    -0.159 A  
HETATM   14  C   UNL     1      -7.730   4.794  64.808  1.00  0.00    -0.078 A  
HETATM   15  C   UNL     1      -7.844   6.583  66.941  1.00  0.00    -0.107 A  
HETATM   16  C   UNL     1      -8.971   5.164  65.340  1.00  0.00    -0.157 A  
HETATM   17  C   UNL     1      -6.608   6.213  66.407  1.00  0.00    -0.048 A  
HETATM   18  C   UNL     1      -6.552   5.318  65.340  1.00  0.00    -0.040 A  
ENDBRANCH   2  13
TORSDOF 5
ENDMDL
MODEL      211
REMARK 921   NORMALIZED FREE ENERGY PREDICTED BY IDOCK:    1.83 KCAL/MOL
REMARK 922        TOTAL FREE ENERGY PREDICTED BY IDOCK:    0.36 KCAL/MOL
REMARK 923 INTER-LIGAND FREE ENERGY PREDICTED BY IDOCK:   -3.45 KCAL/MOL
REMARK 924 INTRA-LIGAND FREE ENERGY PREDICTED BY IDOCK:    3.81 KCAL/MOL
REMARK 927      BINDING AFFINITY PREDICTED BY RF-SCORE:    0.00 PKD
ROOT
HETATM    1  O   UNL     1     -10.745  17.315  69.906  1.00  0.00    -0.040 OA 
HETATM    2  C   UNL     1     -11.479  16.343  69.804  1.00  0.00    -0.089 C  
ENDROOT
BRANCH   2   3
HETATM    3  O   UNL     1     -11.787  15.691  68.650  1.00  0.00    -0.372 OA 
BRANCH   3   4
HETATM    4  O   UNL     1     -10.968  16.298  67.592  1.00  0.00    -0.315 OA 
BRANCH   4   5
HETATM    5  C   UNL     1      -9.705  16.409  68.087  1.00  0.00    -0.229 C  
HETATM    6  O   UNL     1      -9.050  17.434  68.185  1.00  0.00    -0.252 OA 
BRANCH   5   7
HETATM    7  C   UNL     1      -9.172  15.067  68.445  1.00  0.00    -0.193 A  
HETATM    8  C   UNL     1      -9.448  12.707  68.933  1.00  0.00     0.254 A  
HETATM    9  C   UNL     1      -9.997  13.940  68.562  1.00  0.00    -0.221 A  
HETATM   10  C   UNL     1      -8.079  12.594  69.181  1.00  0.00     0.498 A  
HETATM   11  C   UNL     1      -7.251  13.710  69.062  1.00  0.00    -0.049 A  
HETATM   12  C   UNL     1      -7.797  14.944  68.699  1.00  0.00    -0.134 A  
ENDBRANCH   5   7
ENDBRANCH   4   5
ENDBRANCH   3   4
ENDBRANCH   2   3
BRANCH   2  13
HETATM   13  C   UNL     1     -12.136  15.697  70.978  1.00  0.00    -0.448 A  
HETATM   14  C   UNL     1     -14.076  14.890  72.195  1.00  0.00    -0.616 A  
HETATM   15  C   UNL     1     -11.323  15.295  72.050  1.00  0.00    -0.431 A  
HETATM   16  C   UNL     1     -13.520  15.488  71.058  1.00  0.00    -0.436 A  
HETATM   17  C   UNL     1     -11.881  14.695  73.181  1.00  0.00    -0.032 A  
HETATM   18  C   UNL     1     -13.258  14.494  73.253  1.00  0.00    -0.346 A  
ENDBRANCH   2  13
TORSDOF 5
ENDMDL
